data_mof_unit_65364.cif
_audit_creation_date              2012-12-10T17:54:11-0500
_audit_creation_method            fapswitch 2.2
_symmetry_space_group_name_H-M    P1
_symmetry_Int_Tables_number       1
_space_group_crystal_system       triclinic
_cell_length_a                    10.468939
_cell_length_b                    11.73053
_cell_length_c                    17.389405
_cell_angle_alpha                 89.997537
_cell_angle_beta                  85.996669
_cell_angle_gamma                 90.00154
_cell_volume                      2130.31609766

loop_
_atom_site_label
_atom_site_type_symbol
_atom_type_description
_atom_site_fract_x
_atom_site_fract_y
_atom_site_fract_z
_atom_type_partial_charge
C1    C     C_R   0.500001 0.716675 0.500002 0.830972
C2    C     C_R   0.516418 0.501501 0.349686 0.793078
C3    C     C_R   0.475134 0.492561 0.734389 -0.032279
C4    C     C_R   0.524866 0.507439 0.265611 -0.032279
C5    C     C_R   0.587020 0.477485 0.773063 -0.199632
C6    C     C_R   0.412980 0.522515 0.226937 -0.199633
C7    C     C_R   0.580511 0.471145 0.852825 -0.146699
C8    C     C_R   0.419489 0.528856 0.147175 -0.146699
C9    C     C_R   0.461997 0.481448 0.895189 0.191130
C10   C     C_R   0.538003 0.518552 0.104811 0.191129
C11   C     C_R   0.349713 0.493270 0.856666 -0.168066
C12   C     C_R   0.499999 0.283325 0.499998 0.830971
C13   C     C_R   0.650287 0.506730 0.143334 -0.168066
C14   C     C_R   0.356128 0.499250 0.776553 -0.190421
C15   C     C_R   0.643872 0.500750 0.223446 -0.190422
C16   C     C_2   0.452919 0.479803 0.979589 -0.227303
C17   C     C_2   0.547081 0.520197 0.020411 -0.227303
C18   C     C_1   0.500003 0.838054 0.499999 -0.179565
C19   C     C_1   0.499997 0.161946 0.500001 -0.179566
C20   C     C_1   0.500001 0.940269 0.499999 0.005671
C21   C     C_1   0.499999 0.059731 0.500001 0.005671
C22   C     C_1   0.927936 0.500000 0.499996 0.079103
C23   C     C_1   0.072064 0.500000 0.500004 0.079103
C24   C     C_R   0.483582 0.498499 0.650314 0.793078
Cu1   Cu    Cu3+1 0.374700 0.500000 0.500000 0.982772
Cu2   Cu    Cu3+1 0.625300 0.500000 0.500000 0.982772
H1    H     H_    0.634860 0.552952 0.991620 0.145480
H2    H     H_    0.268414 0.509786 0.747781 0.155061
H3    H     H_    0.365140 0.447048 0.008380 0.145481
H4    H     H_    0.257437 0.499952 0.888673 0.124023
H5    H     H_    0.742563 0.500048 0.111327 0.124023
H6    H     H_    0.331818 0.543033 0.119113 0.124694
H7    H     H_    0.668182 0.456968 0.880887 0.124693
H8    H     H_    0.679743 0.469771 0.741739 0.157476
H9    H     H_    0.320257 0.530230 0.258261 0.157476
H10   H     H_    0.731586 0.490214 0.252219 0.155061
N1    N     N_1   0.813590 0.500000 0.499990 -0.145143
N2    N     N_1   0.186410 0.500000 0.500010 -0.145143
O1    O     O_R   0.394190 0.662800 0.500010 -0.568764
O2    O     O_R   0.605810 0.337200 0.499990 -0.568764
O3    O     O_R   0.605810 0.662800 0.499990 -0.567494
O4    O     O_R   0.394190 0.337200 0.500010 -0.567494
O5    O     O_R   0.381920 0.500000 0.613600 -0.581785
O6    O     O_R   0.618080 0.500000 0.386400 -0.581785
O7    O     O_R   0.593540 0.500000 0.613600 -0.582306
O8    O     O_R   0.406460 0.500000 0.386400 -0.582306

loop_
_geom_bond_atom_site_label_1
_geom_bond_atom_site_label_2
_ccdc_geom_bond_type
Cu1   O4    S    
C12   O2    A    
C2    C4    S    
Cu2   N1    S    
Cu1   N2    S    
C23   N2    T    
C9    C11   A    
C5    H8    S    
Cu1   O5    S    
C4    C15   A    
C3    C24   S    
Cu2   O6    S    
Cu2   O3    S    
Cu1   O1    S    
C7    H7    S    
Cu2   O2    S    
C1    C18   S    
C20   C21   S    
C3    C14   A    
C24   O7    A    
C12   C19   S    
C1    O3    A    
C19   C21   T    
C9    C16   S    
C18   C20   T    
C13   C15   A    
C11   C14   A    
C1    O1    A    
C10   C17   S    
C12   O4    A    
C17   H1    S    
C7    C9    A    
C15   H10   S    
C6    H9    S    
C16   H3    S    
C4    C6    A    
C5    C7    A    
C24   O5    A    
C22   C23   S    
C6    C8    A    
Cu2   O7    S    
C14   H2    S    
Cu1   Cu2   S    
C22   N1    T    
Cu1   O8    S    
C13   H5    S    
C8    C10   A    
C2    O8    A    
C11   H4    S    
C2    O6    A    
C16   C17   D    
C3    C5    A    
C10   C13   A    
C8    H6    S    
