data_mof_unit_60257.cif
_audit_creation_date              2012-12-10T17:19:09-0500
_audit_creation_method            fapswitch 2.2
_symmetry_space_group_name_H-M    P1
_symmetry_Int_Tables_number       1
_space_group_crystal_system       triclinic
_cell_length_a                    21.770742
_cell_length_b                    21.770742
_cell_length_c                    29.371053
_cell_angle_alpha                 90.000035
_cell_angle_beta                  90.000035
_cell_angle_gamma                 90.0
_cell_volume                      13920.8572217

loop_
_atom_site_label
_atom_site_type_symbol
_atom_type_description
_atom_site_fract_x
_atom_site_fract_y
_atom_site_fract_z
_atom_type_partial_charge
C1    C     C_R   0.381359 0.000000 0.000000 0.837040
C2    C     C_R   0.120084 0.000000 0.000000 0.964249
C3    C     C_3   0.141228 0.680471 0.948161 -0.503220
C4    C     C_3   0.680470 0.141231 0.051835 -0.503217
C5    C     C_3   0.141230 0.319528 0.051838 -0.503220
C6    C     C_3   0.319529 0.858771 0.051839 -0.503219
C7    C     C_3   0.858772 0.680471 0.051840 -0.503217
C8    C     C_3   0.819529 0.641229 0.448161 -0.503218
C9    C     C_3   0.358769 0.819530 0.448165 -0.503216
C10   C     C_3   0.180472 0.358770 0.448162 -0.503220
C11   C     C_3   0.641228 0.180471 0.448161 -0.503220
C12   C     C_3   0.180470 0.641231 0.551835 -0.503217
C13   C     C_R   0.000000 0.120084 0.000000 0.964252
C14   C     C_3   0.641230 0.819528 0.551838 -0.503220
C15   C     C_3   0.819529 0.358771 0.551839 -0.503219
C16   C     C_3   0.358772 0.180471 0.551840 -0.503217
C17   C     C_R   0.879916 0.000000 1.000000 0.964251
C18   C     C_R   0.500000 0.379916 0.500000 0.964249
C19   C     C_R   0.620084 0.500000 0.500000 0.964249
C20   C     C_R   0.500000 0.620084 0.500000 0.964252
C21   C     C_R   0.379916 0.500000 0.500000 0.964251
C22   C     C_R   0.500000 1.000000 0.084607 0.781747
C23   C     C_R   0.000000 0.500000 0.084607 0.781746
C24   C     C_R   0.500000 1.000000 0.915393 0.781746
C25   C     C_R   0.000000 0.381359 1.000000 0.837040
C26   C     C_R   1.000000 0.500000 0.915393 0.781746
C27   C     C_R   0.000000 0.500000 0.584607 0.781747
C28   C     C_R   0.500000 0.000000 0.584607 0.781746
C29   C     C_R   0.000000 0.500000 0.415393 0.781746
C30   C     C_R   0.500000 0.000000 0.415393 0.781746
C31   C     C_1   0.500000 0.000000 0.135882 -0.175275
C32   C     C_1   0.000000 0.500000 0.135882 -0.175275
C33   C     C_1   0.500000 1.000000 0.864118 -0.175274
C34   C     C_1   1.000000 0.500000 0.864118 -0.175274
C35   C     C_1   1.000000 0.500000 0.635881 -0.175275
C36   C     C_R   0.618641 0.000000 0.000000 0.837041
C37   C     C_1   0.500000 0.000000 0.635881 -0.175275
C38   C     C_1   0.000000 0.500000 0.364118 -0.175274
C39   C     C_1   0.500000 0.000000 0.364118 -0.175274
C40   C     C_1   0.500000 0.000000 0.178364 0.021823
C41   C     C_1   0.000000 0.500000 0.178364 0.021823
C42   C     C_1   0.500000 1.000000 0.821636 0.021823
C43   C     C_1   1.000000 0.500000 0.821636 0.021823
C44   C     C_1   1.000000 0.500000 0.678364 0.021823
C45   C     C_1   0.500000 1.000000 0.678364 0.021823
C46   C     C_1   0.000000 0.500000 0.321636 0.021823
C47   C     C_R   0.000000 0.618641 0.000000 0.837040
C48   C     C_1   0.500000 0.000000 0.321636 0.021823
C49   C     C_1   0.500000 0.000000 0.228758 0.025386
C50   C     C_1   0.000000 0.500000 0.228758 0.025386
C51   C     C_1   0.500000 1.000000 0.771242 0.025386
C52   C     C_1   1.000000 0.500000 0.771242 0.025386
C53   C     C_1   1.000000 0.500000 0.728758 0.025386
C54   C     C_1   0.500000 1.000000 0.728758 0.025386
C55   C     C_1   0.000000 0.500000 0.271242 0.025386
C56   C     C_1   0.500000 0.000000 0.271242 0.025386
C57   C     C_R   0.282673 0.039256 0.969962 0.162934
C58   C     C_R   0.881359 0.500000 0.500000 0.837040
C59   C     C_R   0.960743 0.282672 0.969963 0.162932
C60   C     C_R   0.717327 0.960743 0.969963 0.162936
C61   C     C_R   0.039256 0.717327 0.969962 0.162935
C62   C     C_R   0.717327 0.039257 0.030037 0.162933
C63   C     C_R   0.039257 0.282673 0.030037 0.162937
C64   C     C_R   0.282673 0.960744 0.030038 0.162934
C65   C     C_R   0.960744 0.717327 0.030038 0.162934
C66   C     C_R   0.782673 0.539256 0.469962 0.162934
C67   C     C_R   0.460743 0.782673 0.469963 0.162932
C68   C     C_R   0.217327 0.460743 0.469963 0.162936
C69   C     C_R   0.500000 0.881359 0.500000 0.837040
C70   C     C_R   0.539256 0.217327 0.469962 0.162935
C71   C     C_R   0.217327 0.539257 0.530037 0.162933
C72   C     C_R   0.539257 0.782673 0.530037 0.162937
C73   C     C_R   0.782673 0.460744 0.530038 0.162934
C74   C     C_R   0.460744 0.217327 0.530038 0.162934
C75   C     C_R   0.218573 0.039370 0.970257 0.330500
C76   C     C_R   0.960629 0.218573 0.970258 0.330499
C77   C     C_R   0.781427 0.960629 0.970258 0.330497
C78   C     C_R   0.039370 0.781427 0.970257 0.330497
C79   C     C_R   0.781427 0.039371 0.029742 0.330498
C80   C     C_R   0.118641 0.500000 0.500000 0.837041
C81   C     C_R   0.039371 0.218573 0.029742 0.330498
C82   C     C_R   0.218573 0.960630 0.029743 0.330498
C83   C     C_R   0.960630 0.781427 0.029743 0.330500
C84   C     C_R   0.718573 0.539370 0.470257 0.330500
C85   C     C_R   0.460629 0.718573 0.470258 0.330499
C86   C     C_R   0.281427 0.460629 0.470258 0.330497
C87   C     C_R   0.539370 0.281427 0.470257 0.330497
C88   C     C_R   0.281427 0.539371 0.529742 0.330498
C89   C     C_R   0.539371 0.718573 0.529742 0.330498
C90   C     C_R   0.718573 0.460630 0.529743 0.330498
C91   C     C_R   0.500000 0.118641 0.500000 0.837040
C92   C     C_R   0.460630 0.281427 0.529743 0.330500
C93   C     C_R   0.186691 0.000000 0.000000 -0.288819
C94   C     C_R   0.000000 0.186691 0.000000 -0.288818
C95   C     C_R   0.813309 0.000000 1.000000 -0.288819
C96   C     C_R   1.000000 0.813309 1.000000 -0.288820
C97   C     C_R   0.686691 0.500000 0.500000 -0.288819
C98   C     C_R   0.500000 0.686691 0.500000 -0.288818
C99   C     C_R   0.313309 0.500000 0.500000 -0.288819
C100  C     C_R   0.500000 0.313309 0.500000 -0.288820
C101  C     C_R   0.314670 0.000000 0.000000 -0.266580
C102  C     C_R   0.000000 0.879916 1.000000 0.964249
C103  C     C_R   0.000000 0.314670 0.000000 -0.266581
C104  C     C_R   0.685330 0.000000 1.000000 -0.266580
C105  C     C_R   1.000000 0.685330 0.000000 -0.266579
C106  C     C_R   0.814670 0.500000 0.500000 -0.266580
C107  C     C_R   0.500000 0.814670 0.500000 -0.266580
C108  C     C_R   0.185330 0.500000 0.500000 -0.266580
C109  C     C_R   0.500000 0.185330 0.500000 -0.266579
C110  C     C_3   0.319529 0.141229 0.948161 -0.503218
C111  C     C_3   0.858769 0.319530 0.948165 -0.503216
C112  C     C_3   0.680472 0.858770 0.948162 -0.503220
Cl1   Cl    Cl    0.178937 0.090043 0.933248 -0.555887
Cl2   Cl    Cl    0.409954 0.678937 0.433250 -0.555886
Cl3   Cl    Cl    0.321063 0.409955 0.433250 -0.555889
Cl4   Cl    Cl    0.590043 0.321063 0.433248 -0.555887
Cl5   Cl    Cl    0.321063 0.590046 0.566750 -0.555886
Cl6   Cl    Cl    0.590045 0.678937 0.566750 -0.555889
Cl7   Cl    Cl    0.678937 0.409957 0.566752 -0.555887
Cl8   Cl    Cl    0.409957 0.321063 0.566752 -0.555887
Cl9   Cl    Cl    0.909954 0.178937 0.933250 -0.555886
Cl10  Cl    Cl    0.821063 0.909955 0.933250 -0.555889
Cl11  Cl    Cl    0.090043 0.821063 0.933248 -0.555886
Cl12  Cl    Cl    0.821063 0.090046 0.066750 -0.555886
Cl13  Cl    Cl    0.090045 0.178937 0.066750 -0.555889
Cl14  Cl    Cl    0.178937 0.909957 0.066752 -0.555887
Cl15  Cl    Cl    0.909957 0.821063 0.066752 -0.555887
Cl16  Cl    Cl    0.678937 0.590043 0.433248 -0.555887
Cu1   Cu    Cu3+1 0.500000 0.938190 0.000000 0.947743
Cu2   Cu    Cu3+1 0.000000 0.000000 0.042460 1.167081
Cu3   Cu    Cu3+1 0.500000 0.500000 0.457540 1.167081
Cu4   Cu    Cu3+1 0.500000 0.500000 0.542460 1.167081
Cu5   Cu    Cu3+1 0.061810 0.500000 0.000000 0.947743
Cu6   Cu    Cu3+1 0.500000 0.061810 0.000000 0.947742
Cu7   Cu    Cu3+1 0.938190 0.500000 0.000000 0.947742
Cu8   Cu    Cu3+1 0.000000 0.438190 0.500000 0.947743
Cu9   Cu    Cu3+1 0.561810 0.000000 0.500000 0.947743
Cu10  Cu    Cu3+1 0.000000 0.561810 0.500000 0.947742
Cu11  Cu    Cu3+1 0.438190 0.000000 0.500000 0.947742
Cu12  Cu    Cu3+1 0.000000 0.000000 0.957540 1.167081
H1    H     H_    0.352937 0.057452 0.922702 0.247034
H2    H     H_    0.632292 0.847305 0.957213 0.203568
H3    H     H_    0.710786 0.845333 0.976984 0.231763
H4    H     H_    0.693733 0.831542 0.917779 0.239106
H5    H     H_    0.057452 0.647062 0.922702 0.247033
H6    H     H_    0.152692 0.632291 0.957215 0.203571
H7    H     H_    0.154667 0.710788 0.976981 0.231765
H8    H     H_    0.168457 0.693727 0.917777 0.239102
H9    H     H_    0.647063 0.057455 0.077297 0.247034
H10   H     H_    0.632290 0.152693 0.042780 0.203571
H11   H     H_    0.710787 0.154667 0.023014 0.231764
H12   H     H_    0.367709 0.152693 0.957212 0.203568
H13   H     H_    0.693726 0.168461 0.082218 0.239099
H14   H     H_    0.057455 0.352937 0.077296 0.247036
H15   H     H_    0.152695 0.367708 0.042787 0.203568
H16   H     H_    0.154667 0.289214 0.023016 0.231763
H17   H     H_    0.168458 0.306267 0.082220 0.239106
H18   H     H_    0.352937 0.942548 0.077297 0.247034
H19   H     H_    0.367709 0.847308 0.042785 0.203570
H20   H     H_    0.289212 0.845333 0.023019 0.231764
H21   H     H_    0.306273 0.831543 0.082223 0.239102
H22   H     H_    0.942548 0.647063 0.077298 0.247034
H23   H     H_    0.289214 0.154666 0.976983 0.231762
H24   H     H_    0.847307 0.632291 0.042788 0.203568
H25   H     H_    0.845334 0.710786 0.023018 0.231763
H26   H     H_    0.831544 0.693731 0.082223 0.239105
H27   H     H_    0.852937 0.557452 0.422703 0.247034
H28   H     H_    0.867709 0.652693 0.457212 0.203568
H29   H     H_    0.789214 0.654666 0.476983 0.231762
H30   H     H_    0.806269 0.668457 0.417778 0.239105
H31   H     H_    0.442545 0.852937 0.422703 0.247034
H32   H     H_    0.347307 0.867710 0.457220 0.203571
H33   H     H_    0.345333 0.789213 0.476986 0.231764
H34   H     H_    0.306269 0.168457 0.917778 0.239105
H35   H     H_    0.331539 0.806273 0.417782 0.239099
H36   H     H_    0.147063 0.442545 0.422703 0.247035
H37   H     H_    0.132292 0.347305 0.457213 0.203568
H38   H     H_    0.210786 0.345333 0.476984 0.231763
H39   H     H_    0.193733 0.331542 0.417780 0.239106
H40   H     H_    0.557452 0.147063 0.422702 0.247033
H41   H     H_    0.652691 0.132291 0.457215 0.203571
H42   H     H_    0.654667 0.210788 0.476981 0.231765
H43   H     H_    0.668457 0.193727 0.417777 0.239102
H44   H     H_    0.147063 0.557455 0.577297 0.247034
H45   H     H_    0.942545 0.352936 0.922703 0.247034
H46   H     H_    0.132291 0.652693 0.542780 0.203571
H47   H     H_    0.210787 0.654667 0.523014 0.231764
H48   H     H_    0.193726 0.668461 0.582218 0.239099
H49   H     H_    0.557455 0.852937 0.577296 0.247036
H50   H     H_    0.652695 0.867708 0.542787 0.203568
H51   H     H_    0.654667 0.789214 0.523016 0.231763
H52   H     H_    0.668458 0.806267 0.582220 0.239106
H53   H     H_    0.852937 0.442548 0.577297 0.247034
H54   H     H_    0.867709 0.347308 0.542785 0.203570
H55   H     H_    0.789212 0.345333 0.523019 0.231764
H56   H     H_    0.847307 0.367710 0.957220 0.203571
H57   H     H_    0.806273 0.331543 0.582222 0.239102
H58   H     H_    0.442548 0.147063 0.577298 0.247034
H59   H     H_    0.347307 0.132291 0.542788 0.203568
H60   H     H_    0.345334 0.210786 0.523018 0.231763
H61   H     H_    0.331544 0.193731 0.582222 0.239105
H62   H     H_    0.845333 0.289213 0.976986 0.231764
H63   H     H_    0.831539 0.306273 0.917782 0.239099
H64   H     H_    0.647063 0.942545 0.922703 0.247035
N1    N     N_2   0.314418 0.076396 0.937554 -0.379871
N2    N     N_2   0.423601 0.814418 0.437555 -0.379868
N3    N     N_2   0.185582 0.423602 0.437555 -0.379873
N4    N     N_2   0.576396 0.185582 0.437553 -0.379869
N5    N     N_2   0.185582 0.576399 0.562445 -0.379868
N6    N     N_2   0.576398 0.814418 0.562445 -0.379873
N7    N     N_2   0.814418 0.423604 0.562446 -0.379870
N8    N     N_2   0.423604 0.185582 0.562446 -0.379871
N9    N     N_2   0.923601 0.314418 0.937555 -0.379868
N10   N     N_2   0.685582 0.923602 0.937555 -0.379873
N11   N     N_2   0.076396 0.685582 0.937554 -0.379869
N12   N     N_2   0.685582 0.076398 0.062445 -0.379868
N13   N     N_2   0.076398 0.314418 0.062445 -0.379873
N14   N     N_2   0.314418 0.923604 0.062446 -0.379870
N15   N     N_2   0.923604 0.685582 0.062446 -0.379871
N16   N     N_2   0.814418 0.576396 0.437554 -0.379871
O1    O     O_R   0.409820 0.947800 0.000000 -0.576214
O2    O     O_R   0.552200 0.909820 0.500000 -0.576212
O3    O     O_R   0.090180 0.552200 0.500000 -0.576215
O4    O     O_R   0.447800 0.090180 0.500000 -0.576213
O5    O     O_R   0.090180 0.447800 0.500000 -0.576212
O6    O     O_R   0.447800 0.909820 0.500000 -0.576215
O7    O     O_R   0.909820 0.552200 0.500000 -0.576212
O8    O     O_R   0.552200 0.090180 0.500000 -0.576214
O9    O     O_R   0.499990 0.947800 0.061980 -0.565167
O10   O     O_R   0.052200 0.499990 0.061980 -0.565167
O11   O     O_R   0.500010 0.052200 0.061980 -0.565167
O12   O     O_R   0.052200 0.409820 0.000000 -0.576212
O13   O     O_R   0.947800 0.500010 0.061980 -0.565167
O14   O     O_R   0.500010 0.947800 0.938020 -0.565167
O15   O     O_R   0.947800 0.499990 0.938020 -0.565167
O16   O     O_R   0.499990 0.052200 0.938020 -0.565167
O17   O     O_R   0.052200 0.500010 0.938020 -0.565167
O18   O     O_R   0.999990 0.447800 0.561980 -0.565167
O19   O     O_R   0.552200 0.999990 0.561980 -0.565167
O20   O     O_R   0.000010 0.552200 0.561980 -0.565167
O21   O     O_R   0.447800 0.000010 0.561980 -0.565167
O22   O     O_R   0.000010 0.447800 0.438020 -0.565167
O23   O     O_R   0.590180 0.052200 0.000000 -0.576215
O24   O     O_R   0.447800 0.999990 0.438020 -0.565167
O25   O     O_R   0.999990 0.552200 0.438020 -0.565167
O26   O     O_R   0.552200 0.000010 0.438020 -0.565167
O27   O     O_R   0.000010 0.909720 0.964150 -0.549974
O28   O     O_R   0.090280 0.000010 0.964150 -0.549975
O29   O     O_R   0.999990 0.090280 0.964150 -0.549975
O30   O     O_R   0.909720 0.999990 0.964150 -0.549974
O31   O     O_R   0.999990 0.909720 0.035850 -0.549973
O32   O     O_R   0.909720 0.000010 0.035850 -0.549974
O33   O     O_R   0.000010 0.090280 0.035850 -0.549974
O34   O     O_R   0.947800 0.590180 0.000000 -0.576213
O35   O     O_R   0.090280 0.999990 0.035850 -0.549974
O36   O     O_R   0.500010 0.409720 0.464150 -0.549974
O37   O     O_R   0.590280 0.500010 0.464150 -0.549975
O38   O     O_R   0.499990 0.590280 0.464150 -0.549975
O39   O     O_R   0.409720 0.499990 0.464150 -0.549974
O40   O     O_R   0.499990 0.409720 0.535850 -0.549973
O41   O     O_R   0.409720 0.500010 0.535850 -0.549974
O42   O     O_R   0.500010 0.590280 0.535850 -0.549974
O43   O     O_R   0.590280 0.499990 0.535850 -0.549974
O44   O     O_R   0.590180 0.947800 0.000000 -0.576212
O45   O     O_R   0.947800 0.409820 0.000000 -0.576215
O46   O     O_R   0.409820 0.052200 0.000000 -0.576212
O47   O     O_R   0.052200 0.590180 0.000000 -0.576214
O48   O     O_R   0.909820 0.447800 0.500000 -0.576214

loop_
_geom_bond_atom_site_label_1
_geom_bond_atom_site_label_2
_ccdc_geom_bond_type
Cu11  O4    S    
C84   Cl16  S    
Cu8   O5    S    
C21   O41   A    
C25   O12   A    
Cu6   O46   S    
C81   C94   A    
C96   C102  S    
C91   O8    A    
Cu12  O27   S    
C68   C86   A    
H27   N16   S    
C4    H10   S    
C11   H41   S    
Cu2   Cu12  S    
C2    O35   A    
C74   C109  A    
C6    H19   S    
C69   C107  S    
H44   N5    S    
Cu4   O40   S    
C60   C104  A    
Cu2   O31   S    
C8    H29   S    
C57   N1    S    
C3    H7    S    
Cu9   Cu11  S    
C92   C100  A    
Cu5   O17   S    
C63   C81   A    
Cu11  O6    S    
C24   O16   A    
C10   H39   S    
C36   O44   A    
H36   N3    S    
C85   Cl2   S    
C73   C90   A    
Cu9   O8    S    
Cu8   O18   S    
H49   N6    S    
C28   O19   A    
C72   C89   A    
C15   H57   S    
Cu10  O3    S    
C43   C52   S    
H53   N7    S    
C74   C92   A    
C40   C49   S    
C12   H48   S    
C24   O14   A    
Cu1   O9    S    
C17   O30   A    
H14   N13   S    
C23   O13   A    
C31   C40   T    
C112  H4    S    
C1    O1    A    
C69   O2    A    
C112  H2    S    
Cu11  O24   S    
Cu5   O10   S    
C82   Cl14  S    
C15   N7    S    
C85   C98   A    
C8    H28   S    
C20   O42   A    
C91   C109  S    
C6    N14   S    
C15   H54   S    
C44   C53   S    
C26   C34   S    
C5    N13   S    
C1    O46   A    
C78   C96   A    
C47   C105  S    
H9    N12   S    
C46   C55   S    
C64   C82   A    
C66   N16   S    
C29   O22   A    
C6    H21   S    
Cu10  O20   S    
C77   Cl10  S    
C112  N10   S    
C80   O5    A    
Cu1   O44   S    
H58   N8    S    
C90   C97   A    
C18   O40   A    
C16   H60   S    
C111  H56   S    
C15   H55   S    
Cu2   O35   S    
C4    H13   S    
C7    H25   S    
C12   H46   S    
C3    H8    S    
C17   C95   S    
C82   C93   A    
C30   O24   A    
C71   C108  A    
C69   O6    A    
Cu5   Cu7   S    
C36   O23   A    
C11   H42   S    
C18   C100  S    
C66   C106  A    
C68   C108  A    
C70   C87   A    
C111  H62   S    
C65   C105  A    
C8    H30   S    
C27   O20   A    
Cu5   O47   S    
C3    N11   S    
C62   C104  A    
C110  H34   S    
C19   C97   S    
C64   C101  A    
C72   N6    S    
C60   C77   A    
C67   C85   A    
Cu12  O29   S    
C22   C31   S    
C22   O11   A    
C102  O31   A    
C10   H38   S    
C62   C79   A    
C16   N8    S    
Cu12  O30   S    
C24   C33   S    
C47   O34   A    
C63   C103  A    
C111  H63   S    
C65   N15   S    
C21   C99   S    
C14   N6    S    
Cu3   O36   S    
C21   O39   A    
C27   C35   S    
C5    H15   S    
C12   H47   S    
C66   C84   A    
Cu9   O2    S    
C77   C95   A    
Cu1   Cu6   S    
C74   N8    S    
C86   Cl3   S    
C58   C106  S    
C71   N5    S    
C29   C38   S    
C10   N3    S    
C79   C95   A    
C8    N16   S    
C70   C109  A    
C2    O28   A    
Cu3   O38   S    
C88   C99   A    
C25   O45   A    
C72   C107  A    
C61   C78   A    
H18   N14   S    
C13   O33   A    
C68   N3    S    
Cu7   O13   S    
C13   C94   S    
C11   H43   S    
Cu6   O11   S    
H31   N2    S    
C9    H33   S    
C86   C99   A    
C67   N2    S    
C35   C44   T    
C87   Cl4   S    
C16   H59   S    
Cu4   O43   S    
C75   Cl1   S    
C14   H51   S    
C67   C107  A    
Cu1   O1    S    
C7    H26   S    
C45   C54   S    
C5    H17   S    
Cu1   O14   S    
C76   Cl9   S    
C78   Cl11  S    
Cu3   O39   S    
Cu4   O41   S    
C28   O21   A    
C84   C97   A    
C32   C41   T    
C37   C45   T    
Cu3   Cu4   S    
C5    H16   S    
C1    C101  S    
C41   C50   S    
C57   C101  A    
C52   C53   T    
C75   C93   A    
Cu8   Cu10  S    
Cu4   O42   S    
C87   C100  A    
C79   Cl12  S    
C47   O47   A    
C64   N14   S    
C48   C56   S    
C4    H11   S    
C33   C42   T    
H22   N15   S    
C76   C94   A    
C30   O26   A    
C81   Cl13  S    
Cu12  O28   S    
C10   H37   S    
C29   O25   A    
C73   N7    S    
C2    C93   S    
C25   C103  S    
C102  O27   A    
C111  N9    S    
C83   Cl15  S    
C19   O37   A    
C6    H20   S    
C110  H23   S    
C59   N9    S    
C42   C51   S    
Cu2   O32   S    
C49   C56   T    
C13   O29   A    
C7    H24   S    
C80   C108  S    
C17   O32   A    
C110  H12   S    
C50   C55   T    
Cu8   O22   S    
C89   C98   A    
C36   C104  S    
C51   C54   T    
C18   O36   A    
C23   C32   S    
C57   C75   A    
C9    N2    S    
C92   Cl8   S    
Cu5   O12   S    
C59   C103  A    
Cu10  O25   S    
H40   N4    S    
C90   Cl7   S    
C80   O3    A    
Cu9   O26   S    
C26   O17   A    
C63   N13   S    
C73   C106  A    
C22   O9    A    
C112  H3    S    
C28   C37   S    
H5    N11   S    
C83   C96   A    
C62   N12   S    
C61   C105  A    
H45   N9    S    
C30   C39   S    
C9    H35   S    
C110  N1    S    
Cu7   O15   S    
C14   H52   S    
Cu7   O34   S    
Cu10  O7    S    
Cu11  O21   S    
H64   N10   S    
H1    N1    S    
Cu6   O23   S    
C38   C46   T    
C23   O10   A    
C65   C83   A    
C91   O4    A    
C7    N15   S    
C19   O43   A    
C71   C88   A    
C14   H50   S    
Cu2   O33   S    
C12   N5    S    
C20   C98   S    
C89   Cl6   S    
C3    H6    S    
Cu8   O48   S    
C11   N4    S    
C58   O48   A    
C4    N12   S    
Cu7   O45   S    
Cu6   O16   S    
C39   C48   T    
C9    H32   S    
C60   N10   S    
C61   N11   S    
C88   Cl5   S    
C34   C43   T    
C70   N4    S    
C59   C76   A    
C26   O15   A    
Cu3   O37   S    
C58   O7    A    
C16   H61   S    
C27   O18   A    
C20   O38   A    
Cu9   O19   S    
