data_mof_unit_65125.cif
_audit_creation_date              2012-12-11T19:05:37-0500
_audit_creation_method            fapswitch 2.2
_symmetry_space_group_name_H-M    P1
_symmetry_Int_Tables_number       1
_space_group_crystal_system       triclinic
_cell_length_a                    8.214293
_cell_length_b                    15.034598
_cell_length_c                    22.886218
_cell_angle_alpha                 98.704557
_cell_angle_beta                  89.696382
_cell_angle_gamma                 98.692454
_cell_volume                      2761.32314987

loop_
_atom_site_label
_atom_site_type_symbol
_atom_type_description
_atom_site_fract_x
_atom_site_fract_y
_atom_site_fract_z
_atom_type_partial_charge
Ba1   Ba    Ba6+2 0.856840 0.543240 0.473380 1.657041
Ba2   Ba    Ba6+2 0.332990 0.456840 0.526630 1.665806
C1    C     C_3   0.724161 0.882256 0.333868 -0.363075
C2    C     C_R   0.194145 0.513671 0.926644 -0.035937
C3    C     C_R   0.149699 0.504945 0.865963 0.591970
C4    C     C_3   0.152781 0.734656 0.316431 0.356593
C5    C     C_R   0.863499 0.480497 0.890173 0.582394
C6    C     C_R   0.905090 0.481048 0.950201 -0.025049
C7    C     C_R   0.070932 0.499956 0.968724 -0.047573
C8    C     C_R   0.359419 0.535313 0.946364 -0.056115
C9    C     C_R   0.400873 0.539740 0.006103 -0.090462
C10   C     C_R   0.279394 0.520993 0.047937 -0.022693
C11   C     C_R   0.113767 0.504538 0.029589 -0.046615
C12   C     C_3   0.682539 0.787688 0.351030 0.353529
C13   C     C_R   0.784048 0.462837 0.992280 -0.089968
C14   C     C_R   0.825702 0.470289 0.052260 -0.063325
C15   C     C_R   0.990918 0.492541 0.071869 -0.034693
C16   C     C_3   0.144565 0.760758 0.254991 -0.342366
C17   C     C_R   0.035678 0.503147 0.132662 0.583012
C18   C     C_R   0.320659 0.516999 0.107375 0.582994
C19   C     C_2   0.812628 0.415314 0.760746 -0.087220
C20   C     C_3   0.770664 0.399672 0.695351 -0.094484
C21   C     C_1   0.000990 0.520785 0.685172 0.016744
C22   C     C_2   0.034804 0.536342 0.743020 -0.085612
C23   C     C_3   0.477591 0.324947 0.345694 0.300915
C24   C     C_2   0.939665 0.479180 0.784455 0.203458
C25   C     C_R   0.399203 0.568245 0.237069 -0.105648
C26   C     C_R   0.449502 0.567646 0.295383 -0.028524
C27   C     C_R   0.188529 0.479862 0.314170 0.021506
C28   C     C_3   0.230495 0.735486 0.601898 0.335059
C29   C     C_R   0.145030 0.470574 0.253618 -0.098991
C30   C     C_R   0.247181 0.517349 0.213713 0.190479
C31   C     C_2   0.869898 0.465842 0.661294 -0.258158
C32   C     C_R   0.346855 0.823387 0.458851 -0.009722
C33   C     C_R   0.577492 0.790818 0.512988 0.066041
C34   C     C_3   0.463228 0.301427 0.278752 -0.375457
C35   C     C_R   0.757730 0.229684 0.518045 -0.282477
C36   C     C_R   0.849344 0.171111 0.539746 0.008019
C37   C     C_R   0.790200 0.077874 0.533155 -0.138248
C38   C     C_R   0.637866 0.041552 0.503236 0.013956
C39   C     C_R   0.552253 0.102114 0.477424 -0.018774
C40   C     C_3   0.257241 0.838771 0.618787 0.212364
C41   C     C_R   0.569850 0.947092 0.496480 0.007900
C42   C     C_R   0.417633 0.915919 0.464699 -0.020523
C43   C     C_R   0.339328 0.977447 0.439351 -0.103322
C44   C     C_R   0.406331 0.068055 0.444788 -0.053942
C45   C     C_3   0.018802 0.247222 0.682133 0.335580
C46   C     C_R   0.645411 0.882759 0.521468 -0.098660
C47   C     C_R   0.431872 0.761237 0.480437 -0.308980
C48   C     C_R   0.615078 0.195805 0.484528 0.021401
C49   C     C_3   0.964772 0.263897 0.398087 0.312854
C50   C     C_3   0.939865 0.160891 0.380494 -0.392649
C51   C     C_3   0.709878 0.658178 0.651003 0.327277
C52   C     C_3   0.718067 0.680287 0.718090 -0.321452
C53   C     C_3   0.038421 0.219118 0.742531 -0.340454
C54   C     C_3   0.482753 0.215061 0.657965 0.331294
C55   C     C_3   0.440244 0.127970 0.684678 -0.315171
C56   C     C_R   0.340933 0.527844 0.334136 -0.293756
Cl1   Cl    Cl    0.412411 0.874049 0.675172 -0.678143
H1    H     H_    0.748417 0.787161 0.393196 0.088461
H2    H     H_    0.610061 0.599973 0.638500 0.071485
H3    H     H_    0.858709 0.898645 0.327199 0.149049
H4    H     H_    0.823495 0.734725 0.732264 0.124208
H5    H     H_    0.734122 0.618778 0.737446 0.063559
H6    H     H_    0.601986 0.703530 0.734799 0.170686
H7    H     H_    0.547699 0.774065 0.357638 -0.067747
H8    H     H_    0.686969 0.933686 0.369465 0.069973
H9    H     H_    0.358433 0.342996 0.362775 0.015644
H10   H     H_    0.576129 0.384420 0.356733 0.064775
H11   H     H_    0.361899 0.243891 0.266169 0.123378
H12   H     H_    0.296077 0.871804 0.579849 -0.018198
H13   H     H_    0.436545 0.361172 0.259430 0.072521
H14   H     H_    0.580678 0.281976 0.260563 0.135148
H15   H     H_    0.657403 0.885447 0.292347 0.113609
H16   H     H_    0.184526 0.707071 0.221695 0.077261
H17   H     H_    0.075101 0.319770 0.684334 0.065440
H18   H     H_    0.885328 0.238542 0.671809 -0.051715
H19   H     H_    0.170336 0.230456 0.756031 0.158590
H20   H     H_    0.971004 0.260202 0.776019 0.065458
H21   H     H_    0.987760 0.146010 0.741134 0.126432
H22   H     H_    0.617065 0.223757 0.649810 -0.085286
H23   H     H_    0.140530 0.861826 0.634951 0.075274
H24   H     H_    0.417394 0.206811 0.614735 0.099960
H25   H     H_    0.478776 0.070360 0.654251 0.123930
H26   H     H_    0.305835 0.112776 0.691531 0.157253
H27   H     H_    0.071626 0.668552 0.316747 0.092519
H28   H     H_    0.506139 0.134902 0.727756 0.126340
H29   H     H_    0.728526 0.456333 0.083121 0.173497
H30   H     H_    0.656642 0.441410 0.978607 0.118767
H31   H     H_    0.528442 0.559641 0.019900 0.114843
H32   H     H_    0.480554 0.608703 0.210675 0.136752
H33   H     H_    0.457247 0.549550 0.915715 0.168757
H34   H     H_    0.846681 0.285819 0.411994 -0.000339
H35   H     H_    0.123908 0.594845 0.761007 0.116710
H36   H     H_    0.746902 0.367895 0.787152 0.116333
H37   H     H_    0.032823 0.426021 0.238319 0.129523
H38   H     H_    0.378523 0.530568 0.379689 0.080758
H39   H     H_    0.281956 0.727001 0.325724 -0.071941
H40   H     H_    0.836071 0.462243 0.615139 0.076459
H41   H     H_    0.378813 0.690083 0.475457 0.073680
H42   H     H_    0.225306 0.956637 0.414370 0.107032
H43   H     H_    0.755646 0.901770 0.548518 0.087959
H44   H     H_    0.804994 0.301683 0.523113 0.061701
H45   H     H_    0.055072 0.282770 0.435342 0.076456
H46   H     H_    0.867854 0.035880 0.550328 0.082568
H47   H     H_    0.339386 0.110892 0.423324 0.101866
H48   H     H_    0.016471 0.768559 0.244039 0.160043
H49   H     H_    0.226908 0.826015 0.253149 0.103574
H50   H     H_    0.348794 0.712355 0.589377 0.001132
H51   H     H_    0.142947 0.716971 0.563719 0.006602
H52   H     H_    0.843167 0.139723 0.345304 0.127903
H53   H     H_    0.901580 0.126628 0.418957 0.064201
H54   H     H_    0.056878 0.138734 0.363872 0.120633
H55   H     H_    0.828629 0.639188 0.634878 -0.024101
N1    N     N_R   0.984959 0.489307 0.847725 -0.427196
N2    N     N_R   0.200342 0.512164 0.150677 -0.423474
O1    O     O_2   0.889550 0.449620 0.359410 -0.458643
O2    O     O_2   0.185517 0.175359 0.530164 -0.486967
O3    O     O_3   0.097241 0.191825 0.639684 -0.596689
O4    O     O_3   0.130120 0.450560 0.430480 -0.494903
O5    O     O_3   0.576410 0.610420 0.531990 -0.501008
O6    O     O_2   0.341630 0.276020 0.466390 -0.465007
O7    O     O_3   0.515803 0.249432 0.369141 -0.645401
O8    O     O_2   0.463197 0.468384 0.709158 -0.429998
O9    O     O_3   0.435536 0.289087 0.696369 -0.580344
O10   O     O_2   0.258423 0.509507 0.829450 -0.558846
O11   O     O_2   0.718474 0.473807 0.876069 -0.595449
O12   O     O_3   0.679322 0.735149 0.627764 -0.583747
O13   O     O_2   0.927288 0.506200 0.169271 -0.569127
O14   O     O_2   0.464144 0.515041 0.119786 -0.607925
O15   O     O_3   0.674100 0.616440 0.398760 -0.495733
O16   O     O_2   0.784546 0.553866 0.293764 -0.435066
O17   O     O_3   0.020816 0.303827 0.348999 -0.635964
O18   O     O_3   0.732476 0.723249 0.306150 -0.595008
O19   O     O_2   0.848070 0.724010 0.533650 -0.471940
O20   O     O_3   0.092910 0.663610 0.428710 -0.488173
O21   O     O_2   0.007908 0.824944 0.468011 -0.497028
O22   O     O_3   0.099250 0.802676 0.357773 -0.607073
O23   O     O_2   0.300150 0.550410 0.640630 -0.452444
O24   O     O_3   0.059590 0.549510 0.569530 -0.499976
O25   O     O_3   0.515610 0.383640 0.601250 -0.482614
O26   O     O_3   0.167765 0.696290 0.650539 -0.614341
O27   O     O_3   0.613300 0.389650 0.468010 -0.481528
O28   O     O_3   0.096810 0.336470 0.571300 -0.486563
P1    P     P_3+3 0.056010 0.422560 0.367570 0.985874
P2    P     P_3+3 0.670430 0.710550 0.550450 1.008683
P3    P     P_3+3 0.136638 0.780240 0.428932 0.931632
P4    P     P_3+3 0.133710 0.577520 0.632440 1.007078
P5    P     P_3+3 0.056528 0.218222 0.569901 0.946884
P6    P     P_3+3 0.660133 0.614289 0.322478 0.983690
P7    P     P_3+3 0.524550 0.276113 0.446313 0.934426
P8    P     P_3+3 0.546068 0.388999 0.677185 1.000584

loop_
_geom_bond_atom_site_label_1
_geom_bond_atom_site_label_2
_ccdc_geom_bond_type
O3    P5    S    
C19   C24   D    
C26   P6    S    
C16   H16   S    
C53   H21   S    
O16   P6    D    
Ba1   P1    S    
C40   H23   S    
O24   P4    S    
C54   H22   S    
C52   H6    S    
C43   C44   A    
C42   C43   A    
C23   H9    S    
C35   C36   A    
C28   H51   S    
Ba2   O23   S    
C4    H39   S    
C45   C53   S    
C51   O12   S    
C22   C24   S    
C45   H17   S    
C27   P1    S    
C36   C37   A    
C1    H3    S    
C52   H4    S    
C50   H53   S    
Ba2   P4    S    
C29   H37   S    
O18   P6    S    
Ba2   O28   S    
C54   C55   S    
O1    P1    D    
Ba1   Ba2   S    
C5    N1    Am   
C1    H15   S    
C7    C11   A    
C24   N1    S    
C16   H48   S    
C51   H2    S    
C48   P7    S    
C38   C41   A    
C6    C7    A    
C21   C31   D    
C3    O10   D    
C33   C47   A    
C21   C22   D    
C25   H32   S    
Ba1   O20   S    
C41   C46   A    
C36   P5    S    
C45   O3    S    
O8    P8    D    
C8    H33   S    
O4    P1    S    
C19   C20   S    
C3    N1    Am   
Ba2   O27   S    
Ba1   P2    S    
C56   H38   S    
C33   C46   A    
C34   H11   S    
O7    P7    S    
Ba2   O6    S    
C4    C16   S    
C20   P8    S    
O23   P4    D    
C28   H50   S    
C49   C50   S    
O26   P4    S    
C5    C6    A    
C32   C42   A    
C8    C9    A    
C37   C38   A    
C35   H44   S    
C53   H19   S    
Ba2   O4    S    
C14   C15   A    
C19   H36   S    
C50   H52   S    
C49   H45   S    
C51   C52   S    
C55   H28   S    
C31   H40   S    
Ba1   O4    S    
C4    O22   S    
O2    P5    D    
C41   C42   A    
O28   P5    S    
Ba1   O27   S    
O9    P8    S    
C22   H35   S    
C13   H30   S    
C53   H20   S    
C32   P3    S    
C29   C30   A    
O22   P3    S    
C39   C44   A    
O19   P2    D    
C46   H43   S    
C10   C18   A    
C12   H7    S    
C55   H25   S    
Ba1   O1    S    
C54   O9    S    
C30   N2    S    
C23   O7    S    
C1    C12   S    
C43   H42   S    
C49   H34   S    
C38   C39   A    
C6    C13   A    
O17   P1    S    
C45   H18   S    
C2    C8    A    
C39   C48   A    
C12   H1    S    
C51   H55   S    
C54   H24   S    
C18   N2    Am   
Ba2   O5    S    
C17   O13   D    
C37   H46   S    
C20   C31   S    
C32   C47   A    
Ba1   O5    S    
C25   C30   A    
O21   P3    D    
C1    H8    S    
C27   C56   A    
C18   O14   D    
C2    C3    A    
Ba1   O15   S    
C28   O26   S    
C40   Cl1   S    
C9    C10   A    
C26   C56   A    
C12   O18   S    
C21   P4    S    
C4    H27   S    
C11   C15   A    
Ba2   O24   S    
O6    P7    D    
C27   C29   A    
C47   H41   S    
C35   C48   A    
C49   O17   S    
C9    H31   S    
O12   P2    S    
C52   H5    S    
C17   N2    Am   
C50   H54   S    
C44   H47   S    
O27   P7    S    
C40   H12   S    
C15   C17   A    
C55   H26   S    
C16   H49   S    
O20   P3    S    
C34   H14   S    
C23   C34   S    
C34   H13   S    
C23   H10   S    
C10   C11   A    
C25   C26   A    
C14   H29   S    
Ba2   O25   S    
O5    P2    S    
C28   C40   S    
O15   P6    S    
Ba1   O24   S    
C5    O11   D    
C2    C7    A    
Ba1   O19   S    
C33   P2    S    
C13   C14   A    
O25   P8    S    
