data_mof_unit_36719.cif
_audit_creation_date              2012-12-10T19:51:40-0500
_audit_creation_method            fapswitch 2.2
_symmetry_space_group_name_H-M    P1
_symmetry_Int_Tables_number       1
_space_group_crystal_system       triclinic
_cell_length_a                    14.257032
_cell_length_b                    13.529008
_cell_length_c                    14.920396
_cell_angle_alpha                 90.781246
_cell_angle_beta                  88.380309
_cell_angle_gamma                 81.304657
_cell_volume                      2843.21647452

loop_
_atom_site_label
_atom_site_type_symbol
_atom_type_description
_atom_site_fract_x
_atom_site_fract_y
_atom_site_fract_z
_atom_type_partial_charge
C1    C     C_R   0.500939 0.501134 0.327760 0.857070
C2    C     C_R   0.498689 0.501286 0.672303 0.863302
C3    C     C_R   0.428461 0.486947 0.092530 -0.156264
C4    C     C_R   0.575510 0.490891 0.907163 -0.158911
C5    C     C_R   0.493616 0.539262 0.049248 0.048827
C6    C     C_R   0.493549 0.539301 0.952201 0.048436
C7    C     C_R   0.118600 0.419186 0.462078 -0.298476
C8    C     C_R   0.885077 0.537507 0.578636 -0.306248
C9    C     C_R   0.216724 0.424175 0.458163 -0.007122
C10   C     C_R   0.785896 0.539431 0.572863 -0.013605
C11   C     C_R   0.191056 0.572474 0.547381 0.313098
C12   C     C_R   0.808313 0.457641 0.430580 0.303734
C13   C     C_R   0.092484 0.570281 0.550699 -0.284628
C14   C     C_R   0.907032 0.456151 0.434939 -0.299307
C15   C     C_R   0.054141 0.493573 0.508466 0.108440
C16   C     C_R   0.947699 0.494801 0.508703 0.121156
C17   C     C_R   0.518201 0.313702 0.500231 0.897477
C18   C     C_R   0.481760 0.686252 0.500653 0.905703
C19   C     C_1   0.465844 0.790811 0.510259 -0.188838
C20   C     C_1   0.533475 0.209299 0.508835 -0.198004
C21   C     C_2   0.456461 0.983404 0.533249 -0.027595
C22   C     C_2   0.541087 0.017544 0.531586 -0.028968
C23   C     C_1   0.541419 0.121475 0.518994 -0.049780
C24   C     C_1   0.457066 0.878929 0.520938 -0.053262
C25   C     C_R   0.564532 0.577824 0.097648 0.020782
C26   C     C_R   0.410428 0.573886 0.905078 0.020253
C27   C     C_R   0.567173 0.562776 0.189718 -0.253242
C28   C     C_R   0.412660 0.558576 0.812549 -0.248572
C29   C     C_R   0.501260 0.510842 0.232047 -0.040983
C30   C     C_R   0.495380 0.510991 0.768389 -0.039336
C31   C     C_R   0.431658 0.473601 0.183658 -0.199652
C32   C     C_R   0.576837 0.477827 0.815556 -0.207801
H1    H     H_    0.619128 0.593740 0.228766 0.147495
H2    H     H_    0.350556 0.585874 0.774666 0.141850
H3    H     H_    0.380588 0.433051 0.216181 0.148756
H4    H     H_    0.641030 0.440500 0.781734 0.153134
H5    H     H_    0.376406 0.454149 0.055162 0.143521
H6    H     H_    0.638015 0.461000 0.943431 0.144331
H7    H     H_    0.094012 0.356459 0.429362 0.138635
H8    H     H_    0.912114 0.568528 0.638109 0.135609
H9    H     H_    0.264423 0.366149 0.422422 0.144505
H10   H     H_    0.739714 0.572258 0.627587 0.138517
H11   H     H_    0.045894 0.629859 0.585869 0.135100
H12   H     H_    0.952632 0.425987 0.378794 0.131711
N1    N     N_R   0.252470 0.500000 0.499980 -0.107078
N2    N     N_R   0.747530 0.500000 0.500020 -0.091358
O1    O     O_R   0.579480 0.500010 0.369070 -0.627783
O2    O     O_R   0.420520 0.499990 0.630930 -0.641629
O3    O     O_R   0.420520 0.500010 0.369060 -0.614121
O4    O     O_R   0.579480 0.499990 0.630940 -0.626691
O5    O     O_R   0.590920 0.359650 0.500030 -0.606541
O6    O     O_R   0.409080 0.640350 0.499970 -0.619430
O7    O     O_R   0.431960 0.359650 0.500020 -0.608699
O8    O     O_R   0.568040 0.640350 0.499980 -0.598781
Zn1   Zn    Zn3+2 0.606140 0.500000 0.500010 0.939292
Zn2   Zn    Zn3+2 0.393860 0.500000 0.499990 0.930173
C33   C     C_R   0.634347 0.950613 0.533137 0.151145
C34   C     C_R   0.705131 0.957859 0.467018 -0.148890
C35   C     C_R   0.792140 0.894297 0.468104 -0.145276
C36   C     C_R   0.809575 0.823655 0.535448 -0.102043
C37   C     C_R   0.740264 0.816890 0.602217 -0.130612
C38   C     C_R   0.653173 0.880202 0.601394 -0.141520
H13   H     H_    0.692539 0.011759 0.414032 0.128272
H14   H     H_    0.846029 0.899714 0.416596 0.127621
H15   H     H_    0.876890 0.774422 0.536084 0.125456
H16   H     H_    0.754073 0.762719 0.654767 0.118069
H17   H     H_    0.600434 0.874438 0.653983 0.123105
C39   C     C_R   0.362671 0.049773 0.538225 0.145733
C40   C     C_R   0.291228 0.035024 0.478471 -0.152816
C41   C     C_R   0.202888 0.096243 0.483907 -0.156979
C42   C     C_R   0.184749 0.172213 0.549231 -0.120193
C43   C     C_R   0.254839 0.187067 0.609364 -0.121044
C44   C     C_R   0.343128 0.125776 0.604475 -0.140825
H18   H     H_    0.304077 0.976646 0.427262 0.130677
H19   H     H_    0.148420 0.084703 0.437477 0.128524
H20   H     H_    0.116233 0.219289 0.553518 0.132122
H21   H     H_    0.240564 0.245732 0.660151 0.131083
H22   H     H_    0.396004 0.137197 0.652700 0.126870
C45   C     C_R   0.637735 0.630777 0.054259 0.104815
C46   C     C_R   0.734243 0.602607 0.072991 -0.170374
C47   C     C_R   0.803696 0.650689 0.031664 -0.137338
C48   C     C_R   0.777696 0.727375 0.971400 -0.119098
C49   C     C_R   0.682165 0.756343 0.952580 -0.135691
C50   C     C_R   0.612428 0.708651 0.993893 -0.130757
H23   H     H_    0.755922 0.542455 0.118675 0.119685
H24   H     H_    0.877770 0.628213 0.046125 0.121025
H25   H     H_    0.831574 0.764355 0.939306 0.119329
H26   H     H_    0.662083 0.815858 0.905926 0.123905
H27   H     H_    0.539021 0.732652 0.978518 0.115149
C51   C     C_R   0.320511 0.623394 0.950060 0.103459
C52   C     C_R   0.233764 0.591493 0.930155 -0.175220
C53   C     C_R   0.149042 0.637113 0.972208 -0.140386
C54   C     C_R   0.149871 0.715032 0.034389 -0.113430
C55   C     C_R   0.235406 0.747610 0.054478 -0.128821
C56   C     C_R   0.320296 0.702348 0.012484 -0.130788
H28   H     H_    0.231784 0.530482 0.882827 0.125720
H29   H     H_    0.082725 0.611850 0.956739 0.121244
H30   H     H_    0.084230 0.750181 0.066966 0.118717
H31   H     H_    0.235952 0.808125 0.102574 0.124062
H32   H     H_    0.385429 0.729247 0.028760 0.115569
C57   C     C_3   0.224657 0.656149 0.599340 -0.403456
C58   C     C_3   0.208407 0.754012 0.548125 -0.848757
H33   H     H_    0.242249 0.744111 0.480008 0.273514
H34   H     H_    0.239477 0.812509 0.585022 0.253120
H35   H     H_    0.131201 0.779860 0.541646 0.241937
H36   H     H_    0.185082 0.667350 0.664913 0.170472
H37   H     H_    0.299238 0.637987 0.617039 0.250863
C59   C     C_3   0.775905 0.412086 0.345416 -0.377274
C60   C     C_3   0.739826 0.312314 0.360017 -0.767604
H38   H     H_    0.752988 0.284535 0.428942 0.257520
H39   H     H_    0.663192 0.319451 0.346123 0.255601
H40   H     H_    0.777079 0.254452 0.312521 0.209247
H41   H     H_    0.726928 0.466818 0.308971 0.211364
H42   H     H_    0.836122 0.396106 0.295676 0.155994

loop_
_geom_bond_atom_site_label_1
_geom_bond_atom_site_label_2
_ccdc_geom_bond_type
C57   H37   S    
C9    N1    A    
C57   C58   S    
C27   C29   A    
C17   O5    A    
C22   C33   S    
C47   C48   A    
C51   C52   A    
C18   O6    A    
C51   C56   A    
C6    C26   A    
C27   H1    S    
C35   H14   S    
C54   C55   A    
C38   H17   S    
C32   H4    S    
O1    Zn1   S    
C60   H39   S    
C45   C50   A    
C10   H10   S    
C48   H25   S    
C34   H13   S    
C17   C20   S    
C59   C60   S    
C58   H35   S    
O2    Zn2   S    
C18   C19   S    
C59   H42   S    
C2    O4    A    
C52   H28   S    
C37   H16   S    
N1    Zn2   S    
C39   C40   A    
N2    Zn1   S    
C10   N2    A    
C44   H22   S    
C41   C42   A    
C47   H24   S    
C43   C44   A    
C7    C15   A    
C49   H26   S    
C28   H2    S    
C35   C36   A    
C8    C16   A    
C21   C22   D    
C46   H23   S    
C40   C41   A    
C53   H29   S    
C15   C16   S    
C58   H33   S    
C33   C38   A    
C4    C6    A    
C60   H40   S    
C52   C53   A    
C12   C59   S    
C56   H32   S    
C1    O1    A    
C2    O2    A    
C34   C35   A    
C36   C37   A    
C59   H41   S    
C58   H34   S    
C43   H21   S    
C49   C50   A    
C20   C23   T    
C1    C29   S    
C40   H18   S    
C11   C57   S    
C3    C31   A    
C4    C32   A    
C5    C25   A    
C12   N2    A    
C4    H6    S    
C36   H15   S    
C55   C56   A    
C13   C15   A    
C21   C39   S    
C14   C16   A    
C11   N1    A    
C25   C27   A    
C50   H27   S    
C17   O7    A    
C42   H20   S    
C13   H11   S    
C14   H12   S    
O7    Zn2   S    
C57   H36   S    
C7    C9    A    
O8    Zn1   S    
C25   C45   S    
C9    H9    S    
C12   C14   A    
C46   C47   A    
C3    C5    A    
C26   C51   S    
O3    Zn2   S    
C26   C28   A    
O4    Zn1   S    
C2    C30   S    
C28   C30   A    
C19   C24   T    
C39   C44   A    
C42   C43   A    
C29   C31   A    
C60   H38   S    
C30   C32   A    
C11   C13   A    
C33   C34   A    
C5    C6    S    
C55   H31   S    
C31   H3    S    
C53   C54   A    
O5    Zn1   S    
C37   C38   A    
C18   O8    A    
C45   C46   A    
C3    H5    S    
C8    C10   A    
C48   C49   A    
C21   C24   S    
C41   H19   S    
C7    H7    S    
C22   C23   S    
C8    H8    S    
C1    O3    A    
C54   H30   S    
O6    Zn2   S    
