data_mof_unit_43668.cif
_audit_creation_date              2013-03-05T16:42:23-0500
_audit_creation_method            fapswitch 2.2
_symmetry_space_group_name_H-M    P1
_symmetry_Int_Tables_number       1
_space_group_crystal_system       triclinic
_cell_length_a                    9.889152
_cell_length_b                    10.686561
_cell_length_c                    15.343793
_cell_angle_alpha                 90.715291
_cell_angle_beta                  68.800153
_cell_angle_gamma                 89.853726
_cell_volume                      1511.64791365

loop_
_atom_site_label
_atom_site_type_symbol
_atom_site_description
_atom_site_fract_x
_atom_site_fract_y
_atom_site_fract_z
_atom_type_partial_charge
O1    O     O_R   0.385310 0.683210 0.499990 -0.616351
O2    O     O_R   0.614650 0.683240 0.500000 -0.626407
C1    C     C_R   0.498508 0.739751 0.502069 0.877317
O3    O     O_R   0.319830 0.499970 0.632240 -0.611689
O4    O     O_R   0.549170 0.500000 0.632250 -0.600928
C2    C     C_R   0.410353 0.493927 0.675975 0.857151
Zn1   Zn    Zn3+2 0.346870 0.499980 0.499990 0.963929
Zn2   Zn    Zn3+2 0.653130 0.500020 0.500010 0.989476
O5    O     O_R   0.385350 0.316760 0.500000 -0.603493
O6    O     O_R   0.614690 0.316790 0.500010 -0.584002
O7    O     O_R   0.450830 0.500000 0.367750 -0.619670
O8    O     O_R   0.680170 0.500030 0.367760 -0.585963
C3    C     C_R   0.499815 0.260195 0.500509 0.926767
C4    C     C_R   0.589940 0.500036 0.324033 0.911083
C5    C     C_R   0.362229 0.455684 0.773746 -0.065681
C6    C     C_R   0.644936 0.492656 0.222424 -0.096516
C7    C     C_R   0.205330 0.335528 0.904091 -0.217396
C8    C     C_R   0.233039 0.389867 0.816735 -0.213227
C9    C     C_R   0.463644 0.463076 0.817361 -0.208719
C10   C     C_R   0.444314 0.398960 0.899338 0.111536
C11   C     C_R   0.308299 0.344374 0.947436 0.164003
C12   C     C_R   0.552166 0.401159 0.939304 0.015378
C13   C     C_R   0.509072 0.386208 0.036624 0.054300
C14   C     C_R   0.372753 0.330027 0.084674 -0.183653
C15   C     C_R   0.276378 0.304604 0.039008 -0.210930
C16   C     C_R   0.700552 0.420509 0.886221 0.124548
C17   C     C_R   0.793254 0.462041 0.930026 -0.270147
C18   C     C_R   0.743325 0.476158 0.027339 0.082703
C19   C     C_R   0.602655 0.431398 0.081490 0.084348
C20   C     C_R   0.831148 0.532114 0.072277 0.104148
C21   C     C_R   0.782318 0.536958 0.169498 -0.147788
C22   C     C_R   0.555667 0.442480 0.178691 -0.210552
H1    H     H_    0.173101 0.261603 0.077322 0.173337
H2    H     H_    0.448032 0.414537 0.222231 0.165009
H3    H     H_    0.849862 0.579372 0.203653 0.173770
H4    H     H_    0.904852 0.480891 0.887293 0.162683
H5    H     H_    0.102642 0.289387 0.938513 0.160737
H6    H     H_    0.155058 0.379223 0.782610 0.180762
H7    H     H_    0.559253 0.519819 0.786553 0.173603
H8    H     H_    0.339033 0.302576 0.156801 0.167593
C23   C     C_R   0.391916 0.935667 0.482521 0.043480
C24   C     C_R   0.490744 0.871577 0.511113 -0.067532
C25   C     C_R   0.578017 0.936170 0.550723 -0.215671
H9    H     H_    0.648031 0.887158 0.579347 0.160763
C26   C     C_R   0.579910 0.065655 0.548938 -0.176589
H10   H     H_    0.651055 0.115864 0.576553 0.187790
C27   C     C_R   0.494574 0.128432 0.507466 -0.094894
C28   C     C_R   0.395096 0.063280 0.479580 0.093660
C29   C     C_3   0.369661 0.063952 0.388743 0.241127
C30   C     C_3   0.363656 0.921830 0.393513 -0.528263
H11   H     H_    0.254921 0.882345 0.404871 0.186443
H12   H     H_    0.454172 0.873386 0.337573 0.216034
C31   C     C_R   0.891706 0.566720 0.566100 0.238202
N1    N     N_R   0.856900 0.500860 0.500610 -0.124559
C32   C     C_R   0.963862 0.425513 0.439477 0.191572
C33   C     C_R   0.107196 0.426715 0.439395 -0.144857
H13   H     H_    0.190869 0.370479 0.388899 0.184201
N2    N     N_R   0.142540 0.500820 0.500610 -0.121993
C34   C     C_R   0.033538 0.565756 0.566739 0.238338
C35   C     C_3   0.029149 0.703247 0.585060 -0.500656
C36   C     C_3   0.876581 0.704376 0.583282 -0.526954
H14   H     H_    0.032596 0.725730 0.655159 0.209863
H15   H     H_    0.107962 0.755077 0.526468 0.216586
H16   H     H_    0.792003 0.728395 0.652177 0.208096
H17   H     H_    0.868386 0.755816 0.522835 0.217503
N3    N     N_3   0.965563 0.592033 0.021482 -0.457816
H18   H     H_    0.946557 0.659596 0.978467 0.193030
H19   H     H_    0.037708 0.525534 0.979621 0.198841
N4    N     N_3   0.230951 0.122513 0.398246 -0.440072
H20   H     H_    0.147594 0.086889 0.456302 0.195285
H21   H     H_    0.207289 0.098159 0.339105 0.213064
I1    I     I_    0.547264 0.131152 0.270642 -0.387812
I2    I     I_    0.927896 0.305677 0.339392 -0.357124
I3    I     I_    0.801537 0.352161 0.746634 -0.440159

loop_
_geom_bond_atom_site_label_1
_geom_bond_atom_site_label_2
_geom_bond_distance
_ccdc_geom_bond_type
C5    C8    1.403110 A    
N3    H19   1.039800 S    
C32   C33   1.417090 A    
C1    C24   1.413018 S    
C23   C24   1.389578 A    
C9    C10   1.391574 A    
C31   C34   1.406184 A    
C31   N1    1.362837 A    
C6    C21   1.394394 A    
Zn1   O7    1.914508 S    
C16   C17   1.389040 A    
C35   H15   1.109215 S    
C13   C19   1.420693 A    
C18   C19   1.425380 A    
C19   C22   1.395848 A    
C20   C21   1.392166 A    
O7    C4    1.294240 A    
C33   H13   1.080879 S    
C35   H14   1.111691 S    
N4    H21   1.045919 S    
O5    C3    1.284454 A    
C16   I3    2.127988 S    
C2    C5    1.464236 S    
C31   C36   1.488812 S    
C29   I1    2.149724 S    
C30   H12   1.112144 S    
C13   C14   1.420455 A    
Zn1   N2    2.017226 S    
N3    H18   1.045544 S    
C34   C35   1.490066 S    
C29   N4    1.463971 S    
O3    Zn1   1.948535 S    
C30   H11   1.110539 S    
C26   C27   1.401184 A    
C14   C15   1.397390 A    
O3    C2    1.300436 A    
Zn2   N1    2.018503 S    
C3    C27   1.413135 S    
N2    C34   1.364044 A    
C26   H10   1.083639 S    
C7    C11   1.406005 A    
C35   C36   1.518870 S    
O1    C1    1.283765 A    
C22   H2    1.077388 S    
C36   H16   1.111579 S    
C5    C9    1.394416 A    
C25   H9    1.081863 S    
C27   C28   1.391431 A    
Zn2   O8    1.948532 S    
C7    C8    1.401253 A    
C7    H5    1.083737 S    
C25   C26   1.384409 A    
C20   N3    1.432448 S    
C9    H7    1.082564 S    
C28   C29   1.503249 S    
C10   C12   1.409598 A    
C4    C6    1.454696 S    
C24   C25   1.400951 A    
C23   C30   1.495443 S    
Zn1   O5    1.993686 S    
C11   C15   1.396164 A    
N1    C32   1.380675 A    
O1    Zn1   1.995609 S    
O2    Zn2   1.993686 S    
O8    C4    1.295902 A    
O6    C3    1.285965 A    
O4    Zn2   1.914508 S    
C17   H4    1.081449 S    
C6    C22   1.392474 A    
C18   C20   1.418721 A    
O2    C1    1.286265 A    
C8    H6    1.082960 S    
O4    C2    1.293946 A    
C14   H8    1.078754 S    
C23   C28   1.365119 A    
C33   N2    1.360822 A    
C21   H3    1.083986 S    
N4    H20   1.047358 S    
C32   I2    2.114971 S    
C36   H17   1.111696 S    
C10   C11   1.411020 A    
Zn2   O6    1.995609 S    
C29   C30   1.521748 S    
C12   C16   1.414492 A    
C17   C18   1.398860 A    
C12   C13   1.408200 A    
C15   H1    1.083867 S    
