data_mof_unit_7216.cif
_audit_creation_date              2012-10-26T19:35:38-0400
_audit_creation_method            fapswitch 2.2
_symmetry_space_group_name_H-M    P1
_symmetry_Int_Tables_number       1
_space_group_crystal_system       triclinic
_cell_length_a                    15.851846
_cell_length_b                    10.90851
_cell_length_c                    9.618927
_cell_angle_alpha                 91.559505
_cell_angle_beta                  89.876084
_cell_angle_gamma                 92.117348
_cell_volume                      1661.55265536

loop_
_atom_site_label
_atom_site_type_symbol
_atom_type_description
_atom_site_fract_x
_atom_site_fract_y
_atom_site_fract_z
_atom_type_partial_charge
C1    C     C_R   0.499988 0.262559 0.497592 0.543274
C2    C     C_R   0.497220 0.128803 0.492794 -0.021444
C3    C     C_R   0.486604 0.056393 0.367814 0.044043
C4    C     C_R   0.340056 0.499354 0.500090 0.546987
C5    C     C_R   0.483452 0.928459 0.374991 -0.113739
C6    C     C_R   0.497495 0.870207 0.500946 0.033765
C7    C     C_R   0.505055 0.942629 0.622127 -0.017100
C8    C     C_3   0.565677 0.948799 0.742645 -0.087819
C9    C     C_3   0.557302 0.088703 0.742896 -0.099076
C10   C     C_R   0.569717 0.538466 0.074175 0.167394
C11   C     C_R   0.435638 0.443130 0.073210 0.083159
C12   C     C_3   0.083072 0.489674 0.500013 0.034249
C13   C     C_R   0.435274 0.444047 0.924202 0.151325
C14   C     C_R   0.571326 0.533030 0.927943 0.177934
C15   C     C_3   0.624750 0.648153 0.920580 -0.090635
C16   C     C_R   0.500569 0.737309 0.501274 0.590962
C17   C     C_3   0.614924 0.661117 0.079622 -0.097519
C18   C     C_R   0.659902 0.499167 0.499871 0.583100
C19   C     C_3   0.970195 0.404823 0.588056 0.042281
C20   C     C_3   0.025976 0.377475 0.460379 0.025490
C21   C     C_1   0.250370 0.496734 0.500344 0.070053
C22   C     C_1   0.749364 0.494751 0.499459 0.072249
C23   C     C_3   0.973683 0.599820 0.539427 -0.141936
C24   C     C_3   0.028344 0.516994 0.629166 -0.113312
C25   C     C_2   0.053115 0.252220 0.415595 0.301891
C26   C     C_2   0.653891 0.906593 0.711373 0.561175
C27   C     C_2   0.636320 0.165564 0.713824 0.313826
C28   C     C_2   0.367469 0.374068 0.146103 0.306727
C29   C     C_2   0.366714 0.374386 0.850070 0.649718
C30   C     C_2   0.713434 0.623787 0.870142 0.624720
C31   C     C_2   0.694542 0.664204 0.165544 0.631668
C32   C     C_2   0.938936 0.310044 0.687698 0.573985
C33   C     C_2   0.940482 0.428272 0.228400 0.252633
C34   C     C_3   0.916328 0.487094 0.499550 0.008478
C35   C     C_2   0.484613 0.106078 0.226291 0.562109
C36   C     C_3   0.029794 0.572662 0.410397 -0.147344
C37   C     C_3   0.971706 0.459864 0.372127 -0.015951
C38   C     C_1   0.174789 0.493740 0.500435 0.053321
C39   C     C_1   0.824742 0.490669 0.499314 0.027383
C40   C     C_R   0.501015 0.068204 0.618760 -0.031628
Cu1   Cu    Cu3+1 0.500000 0.499980 0.640670 1.056442
Cu2   Cu    Cu3+1 0.500000 0.500020 0.359330 1.034501
H1    H     H_    0.521787 0.123167 0.834917 0.188366
H2    H     H_    0.732906 0.816622 0.583015 0.360618
H3    H     H_    0.673098 0.148853 0.620283 0.134142
H4    H     H_    0.382314 0.309164 0.224153 0.163069
H5    H     H_    0.327295 0.215597 0.755112 0.349759
H6    H     H_    0.799630 0.500457 0.813634 0.355721
H7    H     H_    0.801448 0.582771 0.217419 0.331788
H8    H     H_    0.839587 0.217005 0.770184 0.388451
H9    H     H_    0.959876 0.484929 0.142233 0.133016
H10   H     H_    0.423197 0.110288 0.043197 0.344843
H11   H     H_    0.592879 0.718698 0.862037 0.097431
H12   H     H_    0.571835 0.735626 0.110105 0.103915
H13   H     H_    0.055139 0.641630 0.336901 0.142668
H14   H     H_    0.951191 0.691404 0.572066 0.160729
H15   H     H_    0.052497 0.540331 0.735234 0.159662
H16   H     H_    0.475309 0.874544 0.279243 0.159915
H17   H     H_    0.537468 0.908004 0.837402 0.105307
H18   H     H_    0.005780 0.180641 0.391023 0.148699
N1    N     N_R   0.500530 0.500930 0.147930 -0.286273
N2    N     N_R   0.500530 0.500890 0.852020 -0.290841
O1    O     O_R   0.500000 0.319640 0.618810 -0.460856
O2    O     O_2   0.710375 0.933129 0.794366 -0.435347
O3    O     O_R   0.671504 0.839007 0.589857 -0.677811
O4    O     O_2   0.658949 0.247884 0.795298 -0.399829
O5    O     O_2   0.293317 0.391597 0.122414 -0.450101
O6    O     O_2   0.297329 0.418779 0.839683 -0.457615
O7    O     O_R   0.379275 0.254591 0.801897 -0.710796
O8    O     O_2   0.764851 0.709217 0.860078 -0.464836
O9    O     O_R   0.738053 0.503863 0.841569 -0.592184
O10   O     O_2   0.710173 0.752134 0.243967 -0.478660
O11   O     O_R   0.749711 0.567183 0.156997 -0.630855
O12   O     O_R   0.500010 0.319680 0.381230 -0.502803
O13   O     O_2   0.989603 0.256217 0.757042 -0.457045
O14   O     O_R   0.852519 0.282757 0.699954 -0.666958
O15   O     O_2   0.893322 0.338747 0.207666 -0.432345
O16   O     O_2   0.544426 0.168145 0.183147 -0.459577
O17   O     O_R   0.416910 0.073309 0.138368 -0.698599
O18   O     O_R   0.379070 0.499970 0.618770 -0.485317
O19   O     O_R   0.379080 0.500010 0.381190 -0.516114
O20   O     O_R   0.499990 0.680320 0.618770 -0.511436
O21   O     O_R   0.500000 0.680360 0.381190 -0.516539
O22   O     O_R   0.620920 0.499990 0.618810 -0.463570
O23   O     O_R   0.620930 0.500030 0.381230 -0.468216
O24   O     O_2   0.127833 0.230072 0.406629 -0.460914

loop_
_geom_bond_atom_site_label_1
_geom_bond_atom_site_label_2
_ccdc_geom_bond_type
C20   C37   S    
C34   C37   S    
C8    C26   S    
Cu1   Cu2   S    
C19   C20   S    
C32   O13   D    
C30   O9    S    
C7    C8    S    
C28   H4    S    
C5    H16   S    
C1    O12   A    
C15   H11   S    
C13   C29   S    
C36   C37   S    
C4    O18   A    
C8    H17   S    
C5    C6    A    
C31   O11   S    
C20   C25   S    
Cu1   O20   S    
C10   C17   S    
C14   N2    A    
C1    C2    S    
C26   O2    D    
H5    O7    S    
C13   N2    A    
C8    C9    S    
C18   O22   A    
C7    C40   A    
C25   H18   S    
C12   C36   S    
H10   O17   S    
C27   H3    S    
H2    O3    S    
Cu2   O19   S    
Cu1   N2    S    
Cu1   O18   S    
C19   C32   S    
C1    O1    A    
C30   O8    D    
C29   O7    S    
C9    H1    S    
C18   O23   A    
Cu2   O12   S    
C21   C38   T    
C34   C39   S    
C23   H14   S    
C28   O5    D    
C10   C14   A    
C24   H15   S    
C3    C5    A    
Cu1   O22   S    
C16   O21   A    
C33   C37   S    
H8    O14   S    
C29   O6    D    
C3    C35   S    
C23   C24   S    
C23   C34   S    
C12   C20   S    
C16   O20   A    
Cu2   O23   S    
Cu2   N1    S    
C31   O10   D    
C17   C31   S    
H7    O11   S    
C10   N1    A    
Cu1   O1    S    
H6    O9    S    
C9    C27   S    
C15   C30   S    
C15   C17   S    
C18   C22   S    
C26   O3    S    
Cu2   O21   S    
C11   N1    A    
C19   C34   S    
C32   O14   S    
C6    C7    A    
C33   H9    S    
C12   C24   S    
C35   O16   D    
C2    C3    A    
C36   H13   S    
C4    C21   S    
C11   C13   A    
C33   O15   D    
C11   C28   S    
C22   C39   T    
C4    O19   A    
C35   O17   S    
C25   O24   D    
C19   C24   S    
C9    C40   S    
C12   C38   S    
C6    C16   S    
C2    C40   A    
C23   C36   S    
C27   O4    D    
C14   C15   S    
C17   H12   S    
