data_mof_unit_23626.cif
_audit_creation_date              2013-03-05T16:06:23-0500
_audit_creation_method            fapswitch 2.2
_symmetry_space_group_name_H-M    P1
_symmetry_Int_Tables_number       1
_space_group_crystal_system       triclinic
_cell_length_a                    7.221665
_cell_length_b                    25.873961
_cell_length_c                    28.694643
_cell_angle_alpha                 90.001785
_cell_angle_beta                  89.998251
_cell_angle_gamma                 90.001978
_cell_volume                      5361.68237458

loop_
_atom_site_label
_atom_site_type_symbol
_atom_site_description
_atom_site_fract_x
_atom_site_fract_y
_atom_site_fract_z
_atom_type_partial_charge
O1    O     O_R   0.601030 0.796770 0.202460 -0.561429
O2    O     O_R   0.398970 0.203230 0.797540 -0.559682
O3    O     O_R   0.398970 0.203230 0.702460 -0.561384
O4    O     O_R   0.601030 0.796770 0.297540 -0.559692
O5    O     O_R   0.101030 0.703230 0.297540 -0.561373
O6    O     O_R   0.898970 0.296770 0.702460 -0.559487
O7    O     O_R   0.898970 0.296770 0.797540 -0.560769
O8    O     O_R   0.101030 0.703230 0.202460 -0.559643
O9    O     O_R   0.271290 0.802910 0.297210 -0.572390
O10   O     O_R   0.728710 0.197090 0.702790 -0.600934
O11   O     O_R   0.728710 0.197090 0.797210 -0.571962
O12   O     O_R   0.271290 0.802910 0.202790 -0.600979
O13   O     O_R   0.771290 0.697090 0.202790 -0.572375
O14   O     O_R   0.228710 0.302910 0.797210 -0.601224
O15   O     O_R   0.228710 0.302910 0.702790 -0.572511
O16   O     O_R   0.771290 0.697090 0.297210 -0.601003
C1    C     C_R   0.440045 0.815409 0.312229 0.962376
C2    C     C_R   0.560468 0.185425 0.687009 1.035218
C3    C     C_R   0.559957 0.184597 0.812233 0.962422
C4    C     C_R   0.439533 0.814568 0.187002 1.035450
C5    C     C_R   0.940048 0.684582 0.187779 0.962321
C6    C     C_R   0.060472 0.314553 0.813006 1.035602
C7    C     C_R   0.059957 0.315410 0.687772 0.962098
C8    C     C_R   0.939525 0.685433 0.312999 1.035439
O17   O     O_3   0.434520 0.717290 0.250000 -0.275622
O18   O     O_3   0.565480 0.282710 0.750000 -0.275555
O19   O     O_3   0.934520 0.782710 0.250000 -0.275654
O20   O     O_3   0.065480 0.217290 0.750000 -0.275470
V1    V     V_3+5 0.159680 0.756060 0.250000 1.259040
V2    V     V_3+5 0.840320 0.243940 0.750000 1.259439
V3    V     V_3+5 0.659680 0.743940 0.250000 1.259024
V4    V     V_3+5 0.340320 0.256060 0.750000 1.259000
C9    C     C_R   0.020314 0.407861 0.659339 -0.087921
C10   C     C_R   0.017669 0.662088 0.396984 -0.096432
C11   C     C_R   0.979338 0.592090 0.159421 -0.087971
C12   C     C_R   0.983231 0.337699 0.897098 -0.096774
C13   C     C_R   0.519762 0.092171 0.840685 -0.088129
C14   C     C_R   0.517772 0.837932 0.103027 -0.096392
C15   C     C_R   0.479196 0.907880 0.340656 -0.088015
C16   C     C_R   0.482739 0.162110 0.602998 -0.096368
C17   C     C_R   0.015656 0.442826 0.621655 -0.122271
C18   C     C_R   0.028707 0.623792 0.431904 -0.120467
C19   C     C_R   0.983994 0.557087 0.121765 -0.122080
C20   C     C_R   0.972322 0.375950 0.932070 -0.120197
C21   C     C_R   0.515120 0.057212 0.878373 -0.122536
C22   C     C_R   0.528833 0.876235 0.068114 -0.120550
C23   C     C_R   0.483870 0.942844 0.378343 -0.122032
C24   C     C_R   0.471695 0.123819 0.568072 -0.120371
H1    H     H_    0.993786 0.483648 0.628076 0.166557
H2    H     H_    0.080553 0.633409 0.466265 0.163295
H3    H     H_    0.005608 0.516261 0.128222 0.166537
H4    H     H_    0.921113 0.366261 0.966472 0.163509
H5    H     H_    0.492846 0.016403 0.871963 0.166678
H6    H     H_    0.580731 0.866628 0.033756 0.163313
H7    H     H_    0.505397 0.983680 0.371919 0.166516
H8    H     H_    0.420187 0.133463 0.533686 0.163196
C25   C     C_R   0.036148 0.425808 0.575471 0.131764
C26   C     C_R   0.968904 0.573104 0.423635 0.122809
C27   C     C_R   0.963829 0.574070 0.075565 0.131808
C28   C     C_R   0.031194 0.426719 0.923771 0.123030
C29   C     C_R   0.536192 0.074211 0.924545 0.131763
C30   C     C_R   0.468978 0.926916 0.076387 0.122760
C31   C     C_R   0.463832 0.925807 0.424532 0.131856
C32   C     C_R   0.531041 0.073097 0.576374 0.122888
C33   C     C_R   0.060462 0.372866 0.566953 -0.076844
C34   C     C_R   0.897686 0.560126 0.379816 -0.052801
C35   C     C_R   0.939863 0.627015 0.066999 -0.077075
C36   C     C_R   0.101478 0.439822 0.879889 -0.053076
C37   C     C_R   0.561105 0.127136 0.933049 -0.076915
C38   C     C_R   0.397691 0.939882 0.120202 -0.052688
C39   C     C_R   0.439978 0.872850 0.433055 -0.077126
C40   C     C_R   0.601783 0.060080 0.620231 -0.052890
H9    H     H_    0.073207 0.358744 0.531566 0.111871
H10   H     H_    0.849838 0.521178 0.373010 0.126643
H11   H     H_    0.927370 0.641107 0.031598 0.111910
H12   H     H_    0.148613 0.478833 0.873063 0.126658
H13   H     H_    0.574321 0.141249 0.968428 0.111798
H14   H     H_    0.349798 0.978824 0.127009 0.126634
H15   H     H_    0.427575 0.858720 0.468446 0.111943
H16   H     H_    0.649252 0.021103 0.627065 0.126655
C41   C     C_R   0.068036 0.337734 0.603968 -0.102298
C42   C     C_R   0.885987 0.597429 0.344641 -0.104062
C43   C     C_R   0.932336 0.662187 0.103986 -0.102287
C44   C     C_R   0.113139 0.402569 0.844672 -0.104615
C45   C     C_R   0.568720 0.162263 0.896032 -0.102206
C46   C     C_R   0.385972 0.902572 0.155371 -0.104023
C47   C     C_R   0.432453 0.837716 0.396040 -0.102314
C48   C     C_R   0.613491 0.097380 0.655411 -0.104325
H17   H     H_    0.086519 0.297046 0.596535 0.124881
H18   H     H_    0.829732 0.586422 0.311093 0.137680
H19   H     H_    0.914155 0.702877 0.096519 0.124822
H20   H     H_    0.168710 0.413672 0.811078 0.137787
H21   H     H_    0.587779 0.202934 0.903463 0.124952
H22   H     H_    0.329661 0.913569 0.188915 0.137748
H23   H     H_    0.414366 0.797015 0.403475 0.124831
H24   H     H_    0.669355 0.086344 0.688992 0.137609
C49   C     C_R   0.049437 0.354502 0.650236 -0.168693
C50   C     C_R   0.947871 0.648257 0.352251 -0.195008
C51   C     C_R   0.950582 0.645455 0.150271 -0.168703
C52   C     C_R   0.052100 0.351666 0.852302 -0.195115
C53   C     C_R   0.549452 0.145512 0.849774 -0.168855
C54   C     C_R   0.447903 0.851750 0.147757 -0.195071
C55   C     C_R   0.450568 0.854501 0.349766 -0.168633
C56   C     C_R   0.552105 0.148245 0.647762 -0.194959
C57   C     C_R   0.167140 0.469786 0.502849 -0.054137
C58   C     C_R   0.835015 0.527986 0.494905 -0.049479
C59   C     C_R   0.832845 0.530043 0.002971 -0.054170
C60   C     C_R   0.164953 0.471831 0.995060 -0.049280
C61   C     C_R   0.667222 0.030226 0.997162 -0.054050
C62   C     C_R   0.335065 0.972038 0.005129 -0.049429
C63   C     C_R   0.332833 0.969770 0.497156 -0.054184
C64   C     C_R   0.664942 0.027982 0.505104 -0.049476
C65   C     C_R   0.141039 0.504812 0.465819 -0.197182
C66   C     C_R   0.861188 0.492825 0.531783 -0.197666
C67   C     C_R   0.858966 0.495000 0.965954 -0.197316
C68   C     C_R   0.138758 0.507004 0.031928 -0.197679
C69   C     C_R   0.641122 0.995204 0.034195 -0.197171
C70   C     C_R   0.361228 0.007199 0.968251 -0.197699
C71   C     C_R   0.358923 0.004796 0.534188 -0.197210
C72   C     C_R   0.638775 0.992826 0.468221 -0.197626
H25   H     H_    0.251163 0.510719 0.440681 0.177416
H26   H     H_    0.752398 0.487512 0.557333 0.183992
H27   H     H_    0.748876 0.489091 0.940808 0.177515
H28   H     H_    0.247543 0.512333 0.057476 0.183953
H29   H     H_    0.751267 0.989292 0.059325 0.177403
H30   H     H_    0.252418 0.012511 0.942709 0.183974
H31   H     H_    0.248802 0.010696 0.559329 0.177469
H32   H     H_    0.747569 0.987514 0.442671 0.183972
C73   C     C_R   0.978298 0.534082 0.461510 -0.012397
C74   C     C_R   0.023915 0.463412 0.536185 0.001400
C75   C     C_R   0.021696 0.465723 0.961663 -0.012496
C76   C     C_R   0.976046 0.536429 0.036310 0.001385
C77   C     C_R   0.478365 0.965941 0.038516 -0.012412
C78   C     C_R   0.523970 0.036609 0.963836 0.001513
C79   C     C_R   0.521651 0.034073 0.538497 -0.012409
C80   C     C_R   0.476053 0.963408 0.463817 0.001306
C81   C     C_2   0.992547 0.428586 0.707191 0.967317
O21   O     O_2   0.934111 0.400842 0.738348 -0.680113
O22   O     O_R   0.029076 0.480684 0.716421 -0.778671
H33   H     H_    0.004185 0.490334 0.750097 0.331258
C82   C     C_2   0.071115 0.716025 0.409641 0.973008
O23   O     O_2   0.029484 0.752473 0.384634 -0.654492
O24   O     O_R   0.164537 0.725372 0.451531 -0.791859
H34   H     H_    0.185566 0.763525 0.457565 0.327443
C83   C     C_2   0.006758 0.571401 0.207296 0.967270
O25   O     O_2   0.065300 0.599144 0.238441 -0.680201
O26   O     O_R   0.969789 0.519336 0.216562 -0.778650
H35   H     H_    0.994491 0.509708 0.250250 0.331239
C84   C     C_2   0.930443 0.283694 0.909745 0.972159
O27   O     O_2   0.969541 0.247384 0.884316 -0.654658
O28   O     O_R   0.840385 0.274111 0.952059 -0.791783
H36   H     H_    0.818880 0.235940 0.957897 0.327698
C85   C     C_2   0.491517 0.071453 0.792844 0.967379
O29   O     O_2   0.433510 0.099251 0.761678 -0.679995
O30   O     O_R   0.527150 0.019302 0.783633 -0.778737
H37   H     H_    0.502028 0.009665 0.749966 0.331341
C86   C     C_2   0.571263 0.784001 0.090364 0.973058
O31   O     O_2   0.529631 0.747545 0.115364 -0.654513
O32   O     O_R   0.664726 0.774668 0.048477 -0.791841
H38   H     H_    0.685772 0.736517 0.042436 0.327417
C87   C     C_2   0.506468 0.928621 0.292794 0.967392
O33   O     O_2   0.564946 0.900916 0.261614 -0.680308
O34   O     O_R   0.469424 0.980693 0.283580 -0.778636
H39   H     H_    0.494014 0.990358 0.249895 0.331256
C88   C     C_2   0.429685 0.216071 0.590327 0.972903
O35   O     O_2   0.471464 0.252501 0.615343 -0.654477
O36   O     O_R   0.336437 0.225459 0.548421 -0.791870
H40   H     H_    0.315601 0.263621 0.542393 0.327472
C89   C     C_2   0.348272 0.442601 0.506687 1.003996
O37   O     O_2   0.441397 0.434969 0.471741 -0.643827
O38   O     O_R   0.415887 0.427026 0.550145 -0.783125
H41   H     H_    0.539785 0.408762 0.547889 0.326883
C90   C     C_2   0.656767 0.557186 0.492742 1.008891
O39   O     O_2   0.612383 0.580980 0.457676 -0.642729
O40   O     O_R   0.536913 0.556812 0.531062 -0.793467
H42   H     H_    0.419353 0.577269 0.525286 0.332343
C91   C     C_2   0.651734 0.557244 0.006792 1.003999
O41   O     O_2   0.558597 0.564838 0.971843 -0.643819
O42   O     O_R   0.584151 0.572878 0.050239 -0.783134
H43   H     H_    0.460244 0.591136 0.047972 0.326895
C92   C     C_2   0.343249 0.442659 0.992883 1.008888
O43   O     O_2   0.387776 0.418938 0.957786 -0.642950
O44   O     O_R   0.462998 0.442986 0.031222 -0.793443
H44   H     H_    0.580613 0.422556 0.025434 0.332318
C93   C     C_2   0.848392 0.057390 0.993305 1.003825
O45   O     O_2   0.941484 0.065061 0.028249 -0.643790
O46   O     O_R   0.916075 0.072901 0.949834 -0.783153
H45   H     H_    0.039961 0.091175 0.952078 0.326760
C94   C     C_2   0.156817 0.942836 0.007298 1.008871
O47   O     O_2   0.112412 0.919055 0.042371 -0.642749
O48   O     O_R   0.036990 0.943190 0.968975 -0.793408
H46   H     H_    0.919428 0.922731 0.974755 0.332344
C95   C     C_2   0.151726 0.942565 0.493319 1.004072
O49   O     O_2   0.058555 0.934958 0.528261 -0.643830
O50   O     O_R   0.084187 0.926944 0.449866 -0.783144
H47   H     H_    0.960274 0.908685 0.452122 0.326910
C96   C     C_2   0.843215 0.057169 0.507286 1.008891
O51   O     O_2   0.887653 0.080918 0.542374 -0.642703
O52   O     O_R   0.963040 0.056830 0.468960 -0.793503
H48   H     H_    0.080626 0.077273 0.474750 0.332347

loop_
_geom_bond_atom_site_label_1
_geom_bond_atom_site_label_2
_geom_bond_distance
_ccdc_geom_bond_type
O17   V3    1.766171 S    
C58   C73   1.419079 A    
O38   H41   1.013960 S    
C48   H24   1.082975 S    
C10   C82   1.492791 S    
O18   V4    1.766171 S    
C88   O35   1.222596 D    
O12   V1    1.988512 S    
O19   V1    1.766215 S    
C89   O38   1.398558 S    
C89   O37   1.223422 D    
O16   C8    1.331306 A    
C37   H13   1.083079 S    
O26   H35   1.014075 S    
C10   C18   1.411483 A    
C69   C77   1.403595 A    
C62   C70   1.408242 A    
C39   H15   1.083057 S    
C83   O25   1.221742 D    
C35   H11   1.083055 S    
C61   C69   1.409217 A    
O15   V4    1.988579 S    
C67   C75   1.403599 A    
C92   O43   1.222413 D    
O16   V3    1.988577 S    
C35   C43   1.399084 A    
C81   O22   1.398844 S    
O11   C3    1.332456 A    
C86   O31   1.222596 D    
C65   C73   1.403610 A    
C60   C92   1.493839 S    
C58   C66   1.408265 A    
C8    C50   1.482407 S    
O8    V1    1.977025 S    
C30   C77   1.484984 S    
C57   C65   1.409225 A    
O10   C2    1.331296 A    
C84   O28   1.399515 S    
C23   C31   1.404237 A    
C5    C51   1.479513 S    
C63   C80   1.418437 A    
C93   O46   1.398555 S    
C38   H14   1.083070 S    
C96   O51   1.222414 D    
C26   C73   1.485022 S    
O24   H34   1.013689 S    
C34   H10   1.083077 S    
O1    V3    1.977104 S    
C33   H9    1.083059 S    
C30   C38   1.399369 A    
O3    C2    1.330048 A    
O2    V4    1.977102 S    
C11   C83   1.487622 S    
C96   O52   1.399387 S    
C23   H7    1.083757 S    
C16   C24   1.411472 A    
C60   C75   1.419042 A    
C46   H22   1.082956 S    
C27   C35   1.402499 A    
C19   H3    1.083759 S    
C45   H21   1.082492 S    
C26   C34   1.399373 A    
O34   H39   1.014086 S    
O11   V2    1.988510 S    
C9    C81   1.487645 S    
O20   V2    1.766215 S    
C95   O50   1.398556 S    
C47   H23   1.082392 S    
O28   H36   1.013718 S    
C87   O34   1.398839 S    
C15   C87   1.487623 S    
C11   C19   1.410274 A    
C70   C78   1.405816 A    
C19   C27   1.404224 A    
C41   H17   1.082402 S    
C20   H4    1.083530 S    
O15   C7    1.332492 A    
O2    C3    1.327368 A    
C32   C79   1.485005 S    
C21   H5    1.083768 S    
O52   H48   1.014127 S    
C86   O32   1.399453 S    
O7    V2    1.977023 S    
C43   C51   1.403144 A    
C59   C91   1.489321 S    
O12   C4    1.331304 A    
C66   C74   1.405791 A    
C18   C26   1.400994 A    
O3    V4    1.977027 S    
C11   C51   1.420777 A    
C28   C75   1.485014 S    
C17   H1    1.083760 S    
C40   C48   1.399126 A    
C29   C78   1.491820 S    
C87   O33   1.221748 D    
O5    V1    1.977064 S    
C92   O44   1.399385 S    
C16   C56   1.424661 A    
C27   C76   1.491664 S    
C67   H27   1.084490 S    
C83   O26   1.398827 S    
O48   H46   1.014127 S    
C44   C52   1.406024 A    
C13   C85   1.487770 S    
C25   C74   1.491748 S    
C6    C52   1.482288 S    
O14   V4    1.988492 S    
O36   H40   1.013701 S    
C64   C72   1.408257 A    
O50   H47   1.013963 S    
C91   O42   1.398557 S    
C90   O39   1.222408 D    
C71   C79   1.403607 A    
C40   H16   1.083081 S    
C72   C80   1.405761 A    
C36   C44   1.399028 A    
O44   H44   1.014126 S    
C37   C45   1.399064 A    
C34   C42   1.399133 A    
O10   V2    1.988494 S    
C33   C41   1.399088 A    
O32   H38   1.013693 S    
C68   C76   1.405782 A    
C18   H2    1.083617 S    
C22   H6    1.083609 S    
O8    C5    1.327329 A    
O13   C5    1.332490 A    
C12   C52   1.424834 A    
C2    C56   1.482316 S    
C44   H20   1.082944 S    
C59   C67   1.409223 A    
C16   C88   1.492779 S    
C31   C39   1.402480 A    
C90   O40   1.399389 S    
C57   C89   1.489309 S    
C63   C95   1.489327 S    
C47   C55   1.403159 A    
O4    C1    1.327333 A    
C63   C71   1.409230 A    
O9    C1    1.332485 A    
C7    C49   1.479528 S    
C22   C30   1.400987 A    
C95   O49   1.223423 D    
C42   C50   1.406020 A    
C39   C47   1.399082 A    
C12   C20   1.411624 A    
C85   O30   1.398844 S    
C64   C79   1.419071 A    
C13   C21   1.410281 A    
C38   C46   1.399121 A    
C64   C96   1.493864 S    
C45   C53   1.403235 A    
C15   C23   1.410290 A    
C29   C37   1.402512 A    
C24   H8    1.083620 S    
O1    C4    1.330067 A    
C68   H28   1.083341 S    
O6    V2    1.977066 S    
C61   C78   1.418477 A    
O13   V3    1.988494 S    
C14   C86   1.492791 S    
C25   C33   1.402504 A    
C59   C76   1.418435 A    
O22   H33   1.014095 S    
C72   H32   1.083344 S    
C15   C55   1.420757 A    
C57   C74   1.418456 A    
O9    V1    1.988492 S    
C36   H12   1.083069 S    
O7    C6    1.330002 A    
C43   H19   1.082390 S    
C81   O21   1.221751 D    
C62   C94   1.493891 S    
C42   H18   1.082963 S    
C9    C17   1.410287 A    
C31   C80   1.491646 S    
O14   C6    1.331278 A    
C82   O24   1.399459 S    
C1    C55   1.479505 S    
C17   C25   1.404256 A    
O46   H45   1.013959 S    
C14   C54   1.424690 A    
O40   H42   1.014128 S    
C82   O23   1.222596 D    
C13   C53   1.420813 A    
C3    C53   1.479490 S    
C4    C54   1.482379 S    
C60   C68   1.408258 A    
C93   O45   1.223419 D    
O5    C8    1.330077 A    
C41   C49   1.403171 A    
C20   C28   1.401083 A    
O6    C7    1.327332 A    
C21   C29   1.404263 A    
C10   C50   1.424690 A    
C58   C90   1.493891 S    
C9    C49   1.420771 A    
C32   C40   1.399380 A    
C94   O47   1.222412 D    
C12   C84   1.493158 S    
C14   C22   1.411466 A    
O4    V3    1.977025 S    
C24   C32   1.401012 A    
O42   H43   1.013964 S    
C66   H26   1.083336 S    
C61   C93   1.489282 S    
C65   H25   1.084494 S    
C28   C36   1.399300 A    
C88   O36   1.399459 S    
C91   O41   1.223427 D    
O30   H37   1.014080 S    
C62   C77   1.419049 A    
C70   H30   1.083318 S    
C94   O48   1.399383 S    
C85   O29   1.221747 D    
C84   O27   1.222604 D    
C69   H29   1.084488 S    
C48   C56   1.405994 A    
C71   H31   1.084490 S    
C46   C54   1.406017 A    
