data_mof_unit_13211.cif
_audit_creation_date              2012-12-10T16:49:29-0500
_audit_creation_method            fapswitch 2.2
_symmetry_space_group_name_H-M    P1
_symmetry_Int_Tables_number       1
_space_group_crystal_system       triclinic
_cell_length_a                    19.370365
_cell_length_b                    8.69012
_cell_length_c                    7.435445
_cell_angle_alpha                 102.966403
_cell_angle_beta                  94.20195
_cell_angle_gamma                 92.37424
_cell_volume                      1214.26376421

loop_
_atom_site_label
_atom_site_type_symbol
_atom_type_description
_atom_site_fract_x
_atom_site_fract_y
_atom_site_fract_z
_atom_type_partial_charge
C1    C     C_R   0.497915 0.199664 0.453231 0.882627
C2    C     C_R   0.502084 0.800336 0.546769 0.882624
C3    C     C_2   0.496903 0.031819 0.426853 -0.367743
C4    C     C_2   0.503096 0.968180 0.573147 -0.367739
C5    C     C_R   0.367441 0.499784 0.502537 0.813488
C6    C     C_R   0.632560 0.500233 0.497465 0.813488
C7    C     C_R   0.258776 0.541834 0.671494 0.142833
C8    C     C_R   0.741239 0.458489 0.328510 0.142860
C9    C     C_R   0.186416 0.537664 0.665220 -0.263682
C10   C     C_R   0.813600 0.462755 0.334792 -0.263708
C11   C     C_R   0.145578 0.491535 0.496109 0.027774
C12   C     C_R   0.854431 0.508755 0.503925 0.027746
C13   C     C_R   0.177863 0.445245 0.329871 0.178087
C14   C     C_R   0.822133 0.554840 0.670175 0.178109
C15   C     C_R   0.250282 0.448750 0.336667 -0.278513
C16   C     C_R   0.749714 0.551228 0.663365 -0.278452
C17   C     C_R   0.291319 0.497311 0.505494 -0.053875
C18   C     C_R   0.708684 0.502776 0.494520 -0.053889
C19   C     C_R   0.930321 0.505771 0.503023 0.410585
C20   C     C_R   0.069692 0.494571 0.497024 0.410577
Cu1   Cu    Cu3+1 0.507710 0.517380 0.684380 0.963295
Cu2   Cu    Cu3+1 0.492290 0.482620 0.315620 0.963298
H1    H     H_    0.274630 0.411075 0.208821 0.153807
H2    H     H_    0.725358 0.588748 0.791219 0.153781
H3    H     H_    0.444998 0.380046 0.948793 0.226793
H4    H     H_    0.555002 0.619954 0.051207 0.226800
N1    N     N_R   0.030262 0.520303 0.349370 -0.182790
N2    N     N_R   0.969752 0.480043 0.650675 -0.182791
N3    N     N_R   0.961852 0.525218 0.351985 -0.233341
N4    N     N_R   0.038162 0.475130 0.648063 -0.233324
N5    N     N_2   0.480680 0.456420 0.038530 -0.208140
N6    N     N_2   0.519320 0.543580 0.961470 -0.208137
O1    O     O_R   0.505010 0.286130 0.619770 -0.584451
O2    O     O_R   0.494990 0.713870 0.380230 -0.584454
O3    O     O_R   0.491990 0.256780 0.308370 -0.585395
O4    O     O_R   0.508010 0.743220 0.691630 -0.585390
O5    O     O_R   0.406650 0.514660 0.655750 -0.554303
O6    O     O_R   0.593350 0.485340 0.344250 -0.554291
O7    O     O_R   0.393640 0.485310 0.344340 -0.594895
O8    O     O_R   0.606360 0.514690 0.655660 -0.594898
N7    N     N_3   0.298588 0.594121 0.846492 -0.560528
H5    H     H_    0.284575 0.519739 0.932079 0.210836
H6    H     H_    0.285017 0.708254 0.906806 0.221076
N8    N     N_3   0.701436 0.406379 0.153482 -0.560487
H7    H     H_    0.715382 0.481061 0.068156 0.210706
H8    H     H_    0.715089 0.292374 0.092858 0.221111
H9    H     H_    0.162190 0.574068 0.793677 0.172755
H10   H     H_    0.837833 0.426529 0.206318 0.172771
N9    N     N_3   0.137254 0.391401 0.155381 -0.552161
H11   H     H_    0.169012 0.373371 0.045573 0.209168
H12   H     H_    0.113462 0.281133 0.155158 0.225874
N10   N     N_3   0.862730 0.608599 0.844699 -0.552150
H13   H     H_    0.830965 0.626521 0.954491 0.209104
H14   H     H_    0.886506 0.718911 0.845039 0.225885
H15   H     H_    0.491055 0.960251 0.285827 0.180835
H16   H     H_    0.508945 0.039749 0.714172 0.180835

loop_
_geom_bond_atom_site_label_1
_geom_bond_atom_site_label_2
_ccdc_geom_bond_type
H3    N5    S    
C7    C17   A    
C2    C4    S    
C6    O6    A    
H4    N6    S    
Cu2   O3    S    
C20   N1    A    
C5    O5    A    
N1    N3    A    
C9    C11   A    
N7    H5    S    
N5    N6    D    
C2    O2    A    
N2    N4    A    
C1    O1    A    
C16   H2    S    
Cu1   O4    S    
C20   N4    A    
Cu1   Cu2   S    
C4    H16   S    
C19   N2    A    
N7    H6    S    
Cu1   O8    S    
C10   C12   A    
C13   N9    S    
Cu2   O7    S    
C12   C19   S    
C15   H1    S    
Cu1   N6    S    
C12   C14   A    
N10   H14   S    
C9    H9    S    
C14   C16   A    
C13   C15   A    
C10   H10   S    
Cu2   O2    S    
C6    C18   S    
C6    O8    A    
C11   C20   S    
Cu1   O1    S    
Cu2   N5    S    
C8    C18   A    
C3    C4    D    
C19   N3    A    
C11   C13   A    
C5    C17   S    
N10   H13   S    
C1    O3    A    
Cu1   O5    S    
C16   C18   A    
N9    H11   S    
C2    O4    A    
C7    C9    A    
C5    O7    A    
N9    H12   S    
C15   C17   A    
C3    H15   S    
C8    C10   A    
C14   N10   S    
N8    H7    S    
C8    N8    S    
C7    N7    S    
N8    H8    S    
C1    C3    S    
Cu2   O6    S    
