data_mof_unit_19885.cif
_audit_creation_date              2012-12-10T20:44:05-0500
_audit_creation_method            fapswitch 2.2
_symmetry_space_group_name_H-M    P1
_symmetry_Int_Tables_number       1
_space_group_crystal_system       triclinic
_cell_length_a                    17.362186
_cell_length_b                    10.680583
_cell_length_c                    9.885119
_cell_angle_alpha                 90.414661
_cell_angle_beta                  89.281762
_cell_angle_gamma                 90.720379
_cell_volume                      1832.74451

loop_
_atom_site_label
_atom_site_type_symbol
_atom_type_description
_atom_site_fract_x
_atom_site_fract_y
_atom_site_fract_z
_atom_type_partial_charge
C1    C     C_R   0.497721 0.260430 0.499765 0.896762
C2    C     C_R   0.116418 0.574310 0.488539 -0.024484
C3    C     C_R   0.543401 0.064530 0.580996 -0.003379
C4    C     C_R   0.353640 0.502416 0.500819 0.927810
C5    C     C_R   0.492885 0.128348 0.498916 -0.278384
C6    C     C_R   0.440285 0.063401 0.414525 0.459504
C7    C     C_R   0.440234 0.933401 0.413307 0.411390
C8    C     C_R   0.490760 0.870822 0.500314 -0.239918
C9    C     C_R   0.540384 0.936560 0.584244 -0.031137
C10   C     C_3   0.542541 0.933025 0.735328 0.373777
C11   C     C_3   0.550354 0.073977 0.731569 -0.490498
C12   C     C_R   0.886294 0.579412 0.486870 0.163847
C13   C     C_R   0.436298 0.461669 0.072116 -0.077714
C14   C     C_R   0.560518 0.549415 0.071143 0.502302
C15   C     C_R   0.561173 0.545687 0.926830 -0.248339
C16   C     C_R   0.496377 0.739207 0.500310 0.913756
C17   C     C_R   0.435032 0.466307 0.929467 -0.016019
C18   C     C_3   0.393940 0.341997 0.921120 0.250750
C19   C     C_3   0.398907 0.334244 0.074960 0.216786
C20   C     C_R   0.646924 0.502699 0.499159 0.844576
C21   C     C_R   0.846013 0.591211 0.609148 -0.165197
C22   C     C_R   0.767809 0.562712 0.614247 -0.205956
C23   C     C_1   0.967309 0.591646 0.485558 -0.081305
C24   C     C_R   0.730038 0.522046 0.496772 -0.041032
C25   C     C_R   0.771312 0.510005 0.374494 -0.184116
C26   C     C_R   0.849414 0.538748 0.369701 -0.181219
C27   C     C_3   0.476167 0.863730 0.925194 0.109507
C28   C     C_3   0.398365 0.816966 0.977653 -0.695358
C29   C     C_3   0.627422 0.725393 0.131132 0.079418
C30   C     C_3   0.687134 0.776222 0.229203 -0.787926
C31   C     C_3   0.274568 0.449736 0.901074 0.125777
C32   C     C_3   0.190534 0.424599 0.867594 -0.818377
C33   C     C_3   0.097755 0.738475 0.744270 0.094383
C34   C     C_1   0.035745 0.590172 0.485906 0.014628
C35   C     C_3   0.149023 0.780137 0.860720 -0.861304
C36   C     C_R   0.164009 0.657441 0.561387 0.430595
C37   C     C_R   0.243662 0.634314 0.565123 0.322784
C38   C     C_R   0.272093 0.525323 0.502111 -0.121800
C39   C     C_R   0.223941 0.444240 0.430220 -0.292282
C40   C     C_R   0.146107 0.468571 0.423860 -0.222513
H1    H     H_    0.875279 0.620261 0.700589 0.125636
H2    H     H_    0.881303 0.526933 0.275600 0.136219
H3    H     H_    0.246753 0.362205 0.379327 0.175651
H4    H     H_    0.108792 0.404351 0.369086 0.175547
H5    H     H_    0.375959 0.787309 0.371001 0.344814
H6    H     H_    0.494427 0.946977 0.985839 0.151256
H7    H     H_    0.517861 0.787281 0.937413 0.100825
H8    H     H_    0.377607 0.737442 0.914258 0.244888
H9    H     H_    0.403915 0.784219 0.083305 0.227418
H10   H     H_    0.355706 0.893488 0.974835 0.270823
H11   H     H_    0.571073 0.768019 0.159150 0.148751
H12   H     H_    0.593919 0.882650 0.772715 0.031539
H13   H     H_    0.644869 0.754597 0.027238 0.105540
H14   H     H_    0.744587 0.737132 0.204233 0.251607
H15   H     H_    0.690492 0.879855 0.221976 0.197674
H16   H     H_    0.670740 0.750750 0.334503 0.253361
H17   H     H_    0.295832 0.529537 0.838887 0.186489
H18   H     H_    0.277317 0.476023 0.009867 0.114439
H19   H     H_    0.169408 0.339555 0.921146 0.266366
H20   H     H_    0.155059 0.504929 0.900927 0.200818
H21   H     H_    0.184088 0.410462 0.756867 0.257905
H22   H     H_    0.499063 0.249113 0.069191 0.315070
H23   H     H_    0.501443 0.122336 0.780983 0.221341
H24   H     H_    0.080650 0.638198 0.757543 0.115170
H25   H     H_    0.043680 0.792769 0.750494 0.174956
H26   H     H_    0.164473 0.880871 0.850470 0.278763
H27   H     H_    0.117974 0.766053 0.958417 0.221424
H28   H     H_    0.202515 0.724413 0.861249 0.251263
H29   H     H_    0.268522 0.794394 0.652224 0.386018
H30   H     H_    0.374543 0.206351 0.380273 0.321569
H31   H     H_    0.608193 0.108733 0.762354 0.156679
H32   H     H_    0.611218 0.579615 0.871452 0.151916
H33   H     H_    0.429092 0.271439 0.867304 0.128482
H34   H     H_    0.342848 0.331685 0.130266 0.155459
H35   H     H_    0.736936 0.573817 0.709377 0.149652
H36   H     H_    0.743321 0.478733 0.282759 0.194968
N1    N     N_R   0.499490 0.499140 0.142800 -0.113489
N2    N     N_R   0.499490 0.499180 0.857150 -0.118274
O1    O     O_R   0.500010 0.316790 0.614690 -0.620175
O2    O     O_3   0.469853 0.894265 0.787695 -0.552825
O3    O     O_3   0.624211 0.593560 0.139685 -0.596976
O4    O     O_3   0.317286 0.340743 0.870673 -0.586680
O5    O     O_3   0.448831 0.239717 0.117598 -0.698714
O6    O     O_3   0.134191 0.765613 0.618654 -0.615857
O7    O     O_3   0.295225 0.716608 0.625402 -0.774110
O8    O     O_3   0.383888 0.122112 0.341625 -0.661909
O9    O     O_R   0.500000 0.316760 0.385350 -0.573359
O10   O     O_R   0.389120 0.500020 0.614710 -0.567415
O11   O     O_R   0.389110 0.499990 0.385370 -0.641560
O12   O     O_R   0.500000 0.683240 0.614650 -0.563444
O13   O     O_R   0.499990 0.683210 0.385310 -0.634239
O14   O     O_R   0.610890 0.500010 0.614630 -0.634267
O15   O     O_R   0.610880 0.499980 0.385290 -0.558724
O16   O     O_3   0.385805 0.872298 0.335103 -0.720375
Zn1   Zn    Zn3+2 0.500010 0.500020 0.653130 0.975923
Zn2   Zn    Zn3+2 0.499990 0.499980 0.346870 0.996080

loop_
_geom_bond_atom_site_label_1
_geom_bond_atom_site_label_2
_ccdc_geom_bond_type
C1    O9    A    
H22   O5    S    
C16   O12   A    
C20   O15   A    
C10   H12   S    
C33   H25   S    
C7    C8    A    
C29   O3    S    
C15   H32   S    
C20   O14   A    
C12   C23   S    
C29   C30   S    
C31   O4    S    
C1    C5    S    
C31   H18   S    
C37   O7    S    
C36   C37   A    
C32   H21   S    
C11   H23   S    
C38   C39   A    
C11   H31   S    
C15   N2    A    
C27   H7    S    
C18   C19   S    
C14   N1    A    
C33   C35   S    
O13   Zn2   S    
C28   H10   S    
C20   C24   S    
C8    C9    A    
C9    C10   S    
C2    C34   S    
O10   Zn1   S    
C8    C16   S    
C21   C22   A    
C22   H35   S    
C19   O5    S    
H5    O16   S    
C14   O3    S    
C13   N1    A    
C13   C19   S    
O12   Zn1   S    
C24   C25   A    
C27   O2    S    
C39   C40   A    
C10   O2    S    
C39   H3    S    
C35   H26   S    
C25   C26   A    
C30   H16   S    
C12   C21   A    
O14   Zn1   S    
C12   C26   A    
O1    Zn1   S    
C37   C38   A    
C3    C9    A    
C30   H14   S    
C28   H9    S    
C31   C32   S    
C35   H27   S    
N2    Zn1   S    
C23   C34   T    
O9    Zn2   S    
C17   C18   S    
C21   H1    S    
C27   H6    S    
C4    C38   S    
C18   H33   S    
C1    O1    A    
C22   C24   A    
C32   H20   S    
H30   O8    S    
H29   O7    S    
C26   H2    S    
C4    O11   A    
C29   H11   S    
C2    C36   A    
C7    O16   S    
C28   H8    S    
C19   H34   S    
C3    C5    A    
C6    C7    A    
C4    O10   A    
O15   Zn2   S    
C30   H15   S    
N1    Zn2   S    
C6    O8    S    
C13   C17   A    
C25   H36   S    
C31   H17   S    
O11   Zn2   S    
C5    C6    A    
C29   H13   S    
C35   H28   S    
C36   O6    S    
C33   H24   S    
C17   N2    A    
C18   O4    S    
C33   O6    S    
C3    C11   S    
C10   C11   S    
C2    C40   A    
C40   H4    S    
C16   O13   A    
C27   C28   S    
C14   C15   A    
C32   H19   S    
