data_mof_unit_64853.cif
_audit_creation_date              2012-12-10T20:53:16-0500
_audit_creation_method            fapswitch 2.2
_symmetry_space_group_name_H-M    P1
_symmetry_Int_Tables_number       1
_space_group_crystal_system       triclinic
_cell_length_a                    15.855463
_cell_length_b                    15.09339
_cell_length_c                    10.743033
_cell_angle_alpha                 90.006193
_cell_angle_beta                  89.99536
_cell_angle_gamma                 89.999816
_cell_volume                      2570.94406696

loop_
_atom_site_label
_atom_site_type_symbol
_atom_type_description
_atom_site_fract_x
_atom_site_fract_y
_atom_site_fract_z
_atom_type_partial_charge
C1    C     C_R   0.338928 0.500004 0.500095 0.903733
C2    C     C_R   0.661072 0.500004 0.499854 0.903970
C3    C     C_R   0.497926 0.952955 0.387047 0.332331
C4    C     C_R   0.502066 0.952975 0.612948 0.330514
C5    C     C_R   0.499996 0.905028 0.499998 -0.289989
C6    C     C_R   0.502056 0.047046 0.612948 0.322231
C7    C     C_R   0.497944 0.047027 0.387046 0.322128
C8    C     C_R   0.500001 0.094973 0.499997 -0.272433
C9    C     C_1   0.499998 0.807019 0.499999 0.369107
C10   C     C_1   0.500000 0.192981 0.499998 0.325198
C11   C     C_R   0.495244 0.499854 0.262301 0.852548
C12   C     C_R   0.504773 0.499864 0.737700 0.849642
C13   C     C_2   0.495704 0.429497 0.933753 -0.206747
C14   C     C_2   0.504568 0.429525 0.066245 -0.206326
C15   C     C_2   0.523021 0.498493 0.867234 0.298455
C16   C     C_2   0.477046 0.498445 0.132761 0.299280
C17   C     C_R   0.955949 0.582823 0.470010 0.354599
C18   C     C_R   0.044064 0.582815 0.469985 0.355137
C19   C     C_R   0.913060 0.503429 0.494933 -0.021774
C20   C     C_R   0.086945 0.503418 0.494898 -0.022025
C21   C     C_R   0.956396 0.424931 0.519092 -0.197467
C22   C     C_R   0.043602 0.424926 0.519077 -0.198119
C23   C     C_1   0.824184 0.501430 0.496828 0.078988
C24   C     C_1   0.175820 0.501422 0.496848 0.078868
C25   C     C_1   0.250604 0.500281 0.498552 -0.095691
C26   C     C_1   0.749398 0.500283 0.498438 -0.095603
H1    H     H_    0.462953 0.373857 0.891374 0.191229
H2    H     H_    0.537464 0.373992 0.108638 0.191300
H3    H     H_    0.922715 0.363927 0.538240 0.189411
H4    H     H_    0.077277 0.363920 0.538226 0.189253
N1    N     N_1   0.500000 0.270550 0.500000 -0.077488
N2    N     N_1   0.500000 0.729450 0.500000 -0.062344
O1    O     O_R   0.378020 0.573650 0.500040 -0.585010
O2    O     O_R   0.621980 0.573650 0.499960 -0.584844
O3    O     O_R   0.378020 0.426320 0.500100 -0.614391
O4    O     O_R   0.621980 0.426320 0.499900 -0.614470
O5    O     O_R   0.500000 0.573650 0.319080 -0.556197
O6    O     O_R   0.500000 0.573650 0.680920 -0.558148
O7    O     O_R   0.500000 0.426320 0.319140 -0.640108
O8    O     O_R   0.500000 0.426320 0.680860 -0.640259
Zn1   Zn    Zn3+2 0.500000 0.598370 0.500000 1.125392
Zn2   Zn    Zn3+2 0.500000 0.401630 0.500000 1.032958
Cl1   Cl    Cl    0.589896 0.582695 0.927000 -0.451378
Cl2   Cl    Cl    0.409953 0.582445 0.073002 -0.448864
Cl3   Cl    Cl    0.100362 0.681553 0.439390 -0.427752
Cl4   Cl    Cl    0.899663 0.681574 0.439472 -0.430084
Cl5   Cl    Cl    0.495371 0.105032 0.244223 -0.436521
Cl6   Cl    Cl    0.504640 0.105076 0.755770 -0.437730
Cl7   Cl    Cl    0.495278 0.894929 0.244228 -0.360318
Cl8   Cl    Cl    0.504700 0.894974 0.755768 -0.364194

loop_
_geom_bond_atom_site_label_1
_geom_bond_atom_site_label_2
_ccdc_geom_bond_type
C12   O8    A    
C18   C20   A    
C1    C25   S    
N2    Zn1   S    
C18   Cl3   S    
C5    C9    S    
N1    Zn2   S    
C11   C16   S    
C16   Cl2   S    
O4    Zn2   S    
C12   C15   S    
O1    Zn1   S    
C2    O2    A    
C14   H2    S    
O8    Zn2   S    
C17   C18   A    
C3    Cl7   S    
C15   Cl1   S    
C7    C8    A    
C2    C26   S    
C13   C14   S    
C24   C25   T    
C11   O7    A    
O2    Zn1   S    
C6    Cl6   S    
C4    C6    A    
C19   C21   A    
C20   C22   A    
O7    Zn2   S    
C3    C7    A    
C13   C15   D    
O5    Zn1   S    
C14   C16   D    
C1    O1    A    
C12   O6    A    
C17   Cl4   S    
C1    O3    A    
O6    Zn1   S    
C8    C10   S    
C23   C26   T    
C2    O4    A    
C11   O5    A    
O3    Zn2   S    
C19   C23   S    
C13   H1    S    
C6    C8    A    
C22   H4    S    
C9    N2    T    
C17   C19   A    
C21   C22   A    
C21   H3    S    
C10   N1    T    
C20   C24   S    
C4    Cl8   S    
C4    C5    A    
C3    C5    A    
C7    Cl5   S    
