data_mof_unit_38066.cif
_audit_creation_date              2013-03-05T16:03:02-0500
_audit_creation_method            fapswitch 2.2
_symmetry_space_group_name_H-M    P1
_symmetry_Int_Tables_number       1
_space_group_crystal_system       triclinic
_cell_length_a                    6.96562
_cell_length_b                    18.228459
_cell_length_c                    20.23495
_cell_angle_alpha                 68.219316
_cell_angle_beta                  90.262302
_cell_angle_gamma                 90.800735
_cell_volume                      2385.6304787

loop_
_atom_site_label
_atom_site_type_symbol
_atom_site_description
_atom_site_fract_x
_atom_site_fract_y
_atom_site_fract_z
_atom_type_partial_charge
O1    O     O_R   0.488990 0.443920 0.942160 -0.582990
O2    O     O_R   0.823840 0.406530 0.087600 -0.591966
O3    O     O_R   0.999650 0.556080 0.057840 -0.594573
C1    C     C_R   0.654888 0.383943 0.115226 0.974405
O4    O     O_R   0.818390 0.434590 0.944530 -0.571394
O5    O     O_R   0.994160 0.584350 0.913750 -0.583754
C2    C     C_R   0.649221 0.420439 0.924254 0.951667
O6    O     O_R   0.494480 0.415650 0.086250 -0.589018
O7    O     O_3   0.662600 0.549100 0.990070 -0.279149
V1    V     V_3+5 0.935320 0.490890 0.001840 1.199882
O8    O     O_R   0.324240 0.593470 0.912400 -0.597356
C3    C     C_R   0.156297 0.617034 0.885485 0.937877
O9    O     O_R   0.329690 0.565410 0.055470 -0.597666
C4    C     C_R   0.161808 0.579694 0.075686 0.968820
V2    V     V_3+5 0.435990 0.509110 0.998160 1.180532
O10   O     O_3   0.158840 0.450900 0.009930 -0.258464
C5    C     C_3   0.940296 0.708036 0.236040 -0.517167
C6    C     C_3   0.281935 0.673791 0.272343 -0.246251
C7    C     C_3   0.297802 0.730361 0.314957 0.180161
H1    H     H_    0.886988 0.645951 0.260922 0.165021
H2    H     H_    0.214903 0.616508 0.306314 0.182776
H3    H     H_    0.436664 0.763448 0.299746 0.053016
C8    C     C_1   0.112689 0.878693 0.375366 -0.161909
C9    C     C_3   0.146002 0.709947 0.206369 0.308599
C10   C     C_3   0.934878 0.750963 0.290243 -0.123615
C11   C     C_3   0.132418 0.793014 0.291148 0.139284
C12   C     C_3   0.182604 0.848088 0.212732 -0.189365
C13   C     C_3   0.198957 0.798412 0.164295 -0.434374
C14   C     C_1   0.121619 0.840809 0.337130 0.070580
C15   C     C_1   0.150306 0.663944 0.158795 -0.041074
C16   C     C_1   0.155126 0.625860 0.120628 -0.312048
H4    H     H_    0.103555 0.822415 0.117046 0.171419
H5    H     H_    0.346923 0.804228 0.142605 0.150710
H6    H     H_    0.842313 0.738427 0.190914 0.168677
H7    H     H_    0.822181 0.796911 0.272341 0.134378
H8    H     H_    0.325605 0.876204 0.213204 0.128523
H9    H     H_    0.315484 0.528139 0.692804 0.179593
C17   C     C_R   0.091492 0.777185 0.876814 -0.170697
C18   C     C_R   0.063124 0.853695 0.874284 -0.085990
C19   C     C_R   0.054074 0.916387 0.809108 -0.103587
C20   C     C_R   0.070861 0.902999 0.745913 -0.187738
C21   C     C_R   0.098681 0.825891 0.746670 0.123406
C22   C     C_R   0.111389 0.761922 0.813591 0.120825
C23   C     C_R   0.111335 0.811845 0.682269 -0.262411
C24   C     C_R   0.135815 0.732879 0.685490 -0.031624
C25   C     C_R   0.177536 0.672017 0.752232 0.089918
C26   C     C_R   0.150185 0.684899 0.816265 -0.273039
C27   C     C_R   0.120036 0.711256 0.624703 0.276680
C28   C     C_R   0.195094 0.639064 0.627490 -0.076686
C29   C     C_R   0.261267 0.584182 0.691104 -0.084001
C30   C     C_R   0.243231 0.598467 0.753544 -0.164526
H10   H     H_    0.100338 0.730416 0.928766 0.091682
H11   H     H_    0.049569 0.864465 0.923185 0.123335
H12   H     H_    0.033863 0.975764 0.807461 0.123341
H13   H     H_    0.061159 0.953746 0.696648 0.112702
H14   H     H_    0.190176 0.622683 0.581252 0.210715
H15   H     H_    0.284164 0.551647 0.802588 0.140153
H16   H     H_    0.623203 0.475216 0.320765 0.127072
C31   C     C_R   0.657560 0.223944 0.121996 -0.133030
C32   C     C_R   0.659333 0.147109 0.122964 -0.052135
C33   C     C_R   0.649784 0.083110 0.187263 -0.128879
C34   C     C_R   0.637872 0.095509 0.251037 -0.179008
C35   C     C_R   0.635775 0.172904 0.251728 0.118528
C36   C     C_R   0.646296 0.238519 0.185976 0.093165
C37   C     C_R   0.621969 0.185309 0.316538 -0.292044
C38   C     C_R   0.619992 0.263370 0.315897 0.099377
C39   C     C_R   0.633791 0.330051 0.250255 0.105956
C40   C     C_R   0.644913 0.316871 0.184913 -0.305042
C41   C     C_R   0.605806 0.275908 0.380599 -0.161689
C42   C     C_R   0.605651 0.351571 0.381654 -0.096349
C43   C     C_R   0.621426 0.416656 0.318729 -0.150581
C44   C     C_R   0.636787 0.407477 0.253211 -0.015368
H17   H     H_    0.665027 0.271593 0.070495 0.100209
H18   H     H_    0.668062 0.137225 0.073501 0.148101
H19   H     H_    0.651207 0.023508 0.187764 0.116350
H20   H     H_    0.629942 0.043756 0.299662 0.109635
H21   H     H_    0.594875 0.227266 0.431383 0.096921
H22   H     H_    0.594559 0.359778 0.431820 0.137635
O11   O     O_R   0.770890 0.084490 0.414040 -0.599676
O12   O     O_R   0.445980 0.065450 0.555510 -0.596561
O13   O     O_R   0.270670 0.915620 0.586180 -0.591228
C45   C     C_R   0.614828 0.079484 0.576094 0.969162
O14   O     O_R   0.441480 0.093500 0.412450 -0.596806
O15   O     O_R   0.266140 0.943870 0.442100 -0.594623
C46   C     C_R   0.610679 0.116382 0.385112 0.929760
O16   O     O_R   0.775410 0.056240 0.558120 -0.598517
O17   O     O_3   0.602660 0.950990 0.510100 -0.238139
V3    V     V_3+5 0.329740 0.009100 0.498130 1.188898
O18   O     O_R   0.936120 0.934420 0.444240 -0.569466
C47   C     C_R   0.104139 0.922615 0.422171 1.006801
O19   O     O_R   0.940610 0.906370 0.587310 -0.551719
C48   C     C_R   0.108460 0.880480 0.612883 0.974103
V4    V     V_3+5 0.829110 0.990690 0.501470 1.227654
O20   O     O_3   0.106080 0.049010 0.489880 -0.289878
C49   C     C_3   0.826656 0.247114 0.706256 -0.550788
C50   C     C_3   0.474592 0.269296 0.689446 -0.404264
C51   C     C_3   0.472076 0.312946 0.742318 -0.313133
H23   H     H_    0.848721 0.288188 0.650230 0.204304
H24   H     H_    0.330380 0.242622 0.688440 0.176415
H25   H     H_    0.503059 0.312619 0.634698 0.207280
H26   H     H_    0.476544 0.377819 0.712935 0.215687
H27   H     H_    0.333323 0.301243 0.770641 0.257347
C52   C     C_1   0.640358 0.373538 0.880081 -0.176317
C53   C     C_3   0.629692 0.204472 0.711112 0.218445
C54   C     C_3   0.837322 0.294039 0.758198 0.520347
C55   C     C_3   0.637222 0.285235 0.797834 -0.116536
C56   C     C_3   0.604518 0.193872 0.842238 0.181354
C57   C     C_3   0.585106 0.148435 0.789829 -0.219155
C58   C     C_1   0.637684 0.333955 0.843223 0.185193
C59   C     C_1   0.625471 0.160742 0.661702 -0.015944
C60   C     C_1   0.622557 0.124239 0.622204 -0.295523
H28   H     H_    0.432891 0.128302 0.790635 0.196000
H29   H     H_    0.731912 0.171358 0.876595 0.130683
H30   H     H_    0.944377 0.204468 0.714185 0.185069
N1    N     N_3   0.879400 0.696685 0.361795 -0.144980
H31   H     H_    0.732927 0.683534 0.361254 0.160235
H32   H     H_    0.950276 0.643104 0.374576 0.177206
N2    N     N_R   0.995235 0.752276 0.566429 0.216213
O21   O     O_R   0.824472 0.770717 0.580429 -0.365095
O22   O     O_R   0.022612 0.746234 0.505166 -0.384578
N3    N     N_3   0.657787 0.477675 0.190735 -0.199156
H33   H     H_    0.777939 0.509421 0.197197 0.108000
H34   H     H_    0.536596 0.512341 0.186235 0.108540
N4    N     N_R   0.883047 0.378183 0.715897 0.225226
O23   O     O_R   0.033574 0.412527 0.730464 -0.402015
O24   O     O_R   0.785094 0.417449 0.659109 -0.416329
N5    N     N_3   0.474065 0.656344 0.253197 -0.215459
H35   H     H_    0.465511 0.606924 0.238885 0.111315
H36   H     H_    0.524808 0.703472 0.209055 0.105259
N6    N     N_3   0.703015 0.077151 0.814575 -0.194280
H37   H     H_    0.847689 0.092107 0.804054 0.161238
H38   H     H_    0.663593 0.040708 0.787100 0.118009
N7    N     N_R   0.989508 0.261783 0.812501 0.207790
O25   O     O_R   0.072037 0.195030 0.821913 -0.444542
O26   O     O_R   0.028398 0.295700 0.857504 -0.351247
N8    N     N_R   0.439999 0.174280 0.891632 0.268768
O27   O     O_R   0.392963 0.100281 0.924745 -0.380199
O28   O     O_R   0.371169 0.225439 0.915746 -0.342987
N9    N     N_R   0.307385 0.687705 0.392735 0.248175
O29   O     O_R   0.292520 0.611000 0.421220 -0.406313
O30   O     O_R   0.371276 0.724966 0.432331 -0.360122
N10   N     N_3   0.044183 0.912342 0.184041 -0.211511
H39   H     H_    0.917857 0.891388 0.168700 0.117537
H40   H     H_    0.102625 0.954618 0.137812 0.144000

loop_
_geom_bond_atom_site_label_1
_geom_bond_atom_site_label_2
_geom_bond_distance
_ccdc_geom_bond_type
O17   V3    2.157863 S    
C35   C37   1.414936 A    
V4    O20   2.160790 S    
C44   N3    1.432811 S    
C42   H22   1.082810 S    
C6    H2    1.112423 S    
C20   C21   1.415987 A    
C41   H21   1.081946 S    
O11   C46   1.298308 A    
C4    C16   1.451474 S    
C1    O6    1.298786 A    
C12   N10   1.469819 S    
C49   H23   1.112599 S    
C18   H11   1.082644 S    
C24   C25   1.425723 A    
C33   H19   1.082907 S    
C31   C36   1.417584 A    
C56   N8    1.474427 S    
O15   C47   1.298329 A    
C6    C9    1.570356 S    
C36   C40   1.420571 A    
C54   N7    1.484640 S    
O11   V4    1.996452 S    
C10   N1    1.468301 S    
O5    C3    1.300699 A    
C15   C16   1.215830 T    
H16   C43   1.083322 S    
C38   C41   1.414194 A    
C17   H10   1.082363 S    
C55   C56   1.585438 S    
C49   H30   1.107476 S    
V2    O10   2.160773 S    
C50   H24   1.113291 S    
C50   H25   1.112947 S    
C5    H1    1.113222 S    
C6    C7    1.573199 S    
C7    C11   1.576989 S    
C59   C60   1.214951 T    
C20   H13   1.082046 S    
C49   C54   1.583211 S    
N2    O21   1.301169 A    
O13   C48   1.306687 A    
O8    V2    2.005688 S    
C56   H29   1.109943 S    
N1    H32   1.043747 S    
C56   C57   1.573640 S    
C42   C43   1.384722 A    
C30   H15   1.081765 S    
O7    V1    2.157774 S    
C31   H17   1.081963 S    
C57   N6    1.468633 S    
C51   H27   1.103021 S    
C23   C48   1.494604 S    
C38   C39   1.432029 A    
C31   C32   1.393677 A    
C2    C52   1.448711 S    
O9    C4    1.301754 A    
C34   H20   1.082277 S    
C41   C42   1.387309 A    
C21   C23   1.421556 A    
C3    C26   1.486293 S    
C9    C15   1.493603 S    
V3    O20   1.709807 S    
C5    C9    1.551059 S    
C39   C40   1.431477 A    
C9    C13   1.558425 S    
C13   H4    1.113108 S    
C7    H3    1.114785 S    
O12   C45   1.299384 A    
O19   C48   1.298507 A    
O4    C2    1.299631 A    
C27   N2    1.435175 S    
C10   C11   1.569055 S    
C45   O16   1.301655 A    
C1    C40   1.485640 S    
C25   C30   1.413583 A    
C57   H28   1.115329 S    
C54   N4    1.483658 S    
C32   C33   1.389391 A    
N6    H38   1.045635 S    
N5    H36   1.041977 S    
C34   C35   1.416324 A    
O16   V4    1.978520 S    
C6    N5    1.466410 S    
O19   V4    2.005610 S    
N9    O29   1.302446 A    
C50   C51   1.552499 S    
C29   C30   1.387965 A    
C11   C12   1.568726 S    
C8    C47   1.451256 S    
N3    H33   1.045971 S    
O3    C4    1.299835 A    
C10   H7    1.113357 S    
O1    V2    1.961583 S    
C51   C55   1.556820 S    
N8    O28   1.299977 A    
C19   C20   1.393625 A    
O14   C46   1.300011 A    
C13   H5    1.110280 S    
C28   C29   1.386382 A    
O6    V2    2.001204 S    
C19   H12   1.081594 S    
O9    V2    1.964331 S    
N7    O25   1.301507 A    
N10   H40   1.046126 S    
C21   C22   1.425202 A    
N5    H35   1.044469 S    
O2    V1    1.994426 S    
C8    C14   1.215540 T    
C53   C57   1.570098 S    
C39   C44   1.434487 A    
C49   C53   1.552711 S    
N4    O24   1.301672 A    
C24   C27   1.427494 A    
C25   C26   1.414078 A    
C27   C28   1.404316 A    
O1    C2    1.300898 A    
C23   C24   1.429131 A    
O15   V3    1.968912 S    
N8    O27   1.301826 A    
O5    V1    1.995303 S    
O8    C3    1.297772 A    
C37   C46   1.488168 S    
C12   H8    1.115455 S    
C28   H14   1.082819 S    
C54   C55   1.587523 S    
C52   C58   1.214942 T    
C5    C10   1.566762 S    
C45   C60   1.449888 S    
C50   C53   1.550030 S    
N6    H37   1.042308 S    
O7    V2    1.712140 S    
C17   C22   1.414250 A    
O12   V3    1.977876 S    
O3    V1    1.968930 S    
V1    O10   1.709712 S    
C53   C59   1.492105 S    
H9    C29   1.082590 S    
N9    O30   1.301333 A    
C17   C18   1.393339 A    
O2    C1    1.299493 A    
O17   V4    1.708541 S    
C32   H18   1.082863 S    
O14   V3    1.994495 S    
O18   V4    1.964573 S    
C33   C34   1.393267 A    
N2    O22   1.299717 A    
N3    H34   1.044865 S    
O13   V3    1.995341 S    
C35   C36   1.422545 A    
C18   C19   1.389975 A    
O4    V1    1.978035 S    
C43   C44   1.401249 A    
C11   C14   1.494807 S    
C7    N9    1.475920 S    
C37   C38   1.418441 A    
C5    H6    1.111744 S    
C12   C13   1.567204 S    
N7    O26   1.302216 A    
N10   H39   1.045290 S    
O18   C47   1.303299 A    
C22   C26   1.414652 A    
C51   H26   1.109169 S    
N1    H31   1.045733 S    
N4    O23   1.301526 A    
C55   C58   1.495799 S    
