data_mof_unit_67303.cif
_audit_creation_date              2013-03-05T16:02:17-0500
_audit_creation_method            fapswitch 2.2
_symmetry_space_group_name_H-M    P1
_symmetry_Int_Tables_number       1
_space_group_crystal_system       triclinic
_cell_length_a                    8.404923
_cell_length_b                    14.472983
_cell_length_c                    15.059265
_cell_angle_alpha                 95.296023
_cell_angle_beta                  97.429902
_cell_angle_gamma                 92.088181
_cell_volume                      1806.56669713

loop_
_atom_site_label
_atom_site_type_symbol
_atom_site_description
_atom_site_fract_x
_atom_site_fract_y
_atom_site_fract_z
_atom_type_partial_charge
P1    P     P_3+3 0.018600 0.416790 0.295970 0.467791
O1    O     O_2   0.841230 0.444160 0.280430 -0.390957
O2    O     O_3   0.112860 0.447350 0.393710 -0.337557
O3    O     O_3   0.597940 0.615700 0.327690 -0.368534
O4    O     O_2   0.716436 0.556927 0.184093 -0.407880
O5    O     O_3   0.985223 0.296047 0.290834 -0.590925
O6    O     O_3   0.587375 0.715234 0.176686 -0.538022
H1    H     H_    0.695373 0.775771 0.301139 0.102838
C1    C     C_3   0.598821 0.882321 0.219669 -0.384496
H2    H     H_    0.724589 0.910312 0.228083 0.230447
P2    P     P_3+3 0.635660 0.716530 0.560900 0.580975
P3    P     P_3+3 0.045152 0.787066 0.375757 0.538288
O7    O     O_2   0.802240 0.729740 0.532850 -0.315677
O8    O     O_3   0.017180 0.664790 0.371080 -0.313566
O9    O     O_2   0.935952 0.829692 0.441656 -0.352768
O10   O     O_3   0.662703 0.741197 0.677746 -0.513017
O11   O     O_3   0.961710 0.827608 0.274613 -0.634163
C2    C     C_3   0.013363 0.777428 0.200092 0.789292
H3    H     H_    0.977535 0.702242 0.197775 0.032424
C3    C     C_3   0.934166 0.815512 0.113627 -0.435223
H4    H     H_    0.810551 0.784372 0.097257 0.187923
H5    H     H_    0.927340 0.892079 0.125591 0.273557
C4    C     C_3   0.293228 0.756706 0.755832 0.888722
H6    H     H_    0.401437 0.716785 0.764119 -0.009833
C5    C     C_3   0.238919 0.786784 0.846945 -1.134569
H7    H     H_    0.168634 0.730272 0.870471 0.229935
H8    H     H_    0.344759 0.807118 0.898072 0.259276
H9    H     H_    0.161509 0.847139 0.841531 0.302189
Ba1   Ba    Ba6+2 0.833400 0.543310 0.453520 1.689504
C6    C     C_3   0.128415 0.250520 0.286275 0.139739
H10   H     H_    0.126897 0.191080 0.327897 0.127666
H11   H     H_    0.234496 0.295321 0.315795 0.111616
C7    C     C_3   0.141399 0.212786 0.189241 -0.094776
H12   H     H_    0.250538 0.172157 0.188167 0.152021
H13   H     H_    0.153166 0.271491 0.147710 0.082626
C8    C     C_3   0.751911 0.674581 0.720167 0.423629
H14   H     H_    0.855458 0.656088 0.684688 0.078502
H15   H     H_    0.673475 0.611576 0.722335 0.055056
C9    C     C_3   0.816449 0.715833 0.816027 -0.414424
H16   H     H_    0.887141 0.664814 0.852173 0.143415
H17   H     H_    0.895855 0.777874 0.812554 0.261999
P4    P     P_3+3 0.171090 0.583290 0.704030 0.508450
O12   O     O_2   0.348480 0.555870 0.719620 -0.400362
O13   O     O_3   0.076830 0.552730 0.606300 -0.312200
O14   O     O_3   0.591760 0.384380 0.672320 -0.378194
O15   O     O_3   0.168231 0.705068 0.699618 -0.538814
P5    P     P_3+3 0.153835 0.213121 0.626266 0.477841
O16   O     O_3   0.629090 0.386350 0.459240 -0.395218
O17   O     O_3   0.172520 0.335290 0.628920 -0.376657
O18   O     O_2   0.283041 0.170329 0.573152 -0.420992
O19   O     O_3   0.202365 0.177401 0.735139 -0.602608
Ba2   Ba    Ba6+2 0.356420 0.456770 0.546480 1.622544
P6    P     P_3+3 0.565084 0.603174 0.211201 0.478965
C10   C     C_3   0.590652 0.783326 0.250216 0.434998
H18   H     H_    0.483343 0.775139 0.284949 0.093229
H19   H     H_    0.538386 0.929162 0.266013 0.213898
O20   O     O_3   0.560610 0.613730 0.540770 -0.351176
C11   C     C_3   0.534085 0.303150 0.259759 0.139623
H20   H     H_    0.418800 0.329621 0.231585 -0.025566
H21   H     H_    0.606101 0.363623 0.295026 0.141235
C12   C     C_3   0.613279 0.261345 0.180034 0.010511
H22   H     H_    0.587545 0.303723 0.122548 0.025962
H23   H     H_    0.743750 0.263909 0.198721 0.171209
P7    P     P_3+3 0.555320 0.269558 0.430739 0.440239
O21   O     O_2   0.387460 0.270290 0.467210 -0.376017
O22   O     O_3   0.504282 0.233949 0.315725 -0.559378
C13   C     C_3   0.189108 0.250363 0.802530 0.705596
H24   H     H_    0.253244 0.314696 0.788500 0.079835
C14   C     C_3   0.270464 0.223368 0.893914 -0.322367
H25   H     H_    0.205792 0.161750 0.913779 0.264278
H26   H     H_    0.394880 0.204366 0.888430 0.229010
P8    P     P_3+3 0.632488 0.390344 0.789551 0.477091
C15   C     C_3   0.594218 0.213133 0.740919 0.248802
H27   H     H_    0.691689 0.218128 0.698669 0.120612
O23   O     O_2   0.486735 0.435710 0.825191 -0.442522
O24   O     O_3   0.622343 0.275618 0.819604 -0.495497
H28   H     H_    0.481912 0.228905 0.700280 0.129962
H29   H     H_    0.574386 0.065536 0.700160 0.122387
C16   C     C_3   0.578667 0.112396 0.763100 -0.046877
H30   H     H_    0.463948 0.098827 0.789317 0.156366
C17   C     C_R   0.828578 0.454517 0.835504 0.284799
C18   C     C_R   0.901720 0.456752 0.926726 -0.008838
C19   C     C_R   0.050389 0.460604 0.110075 -0.020694
C20   C     C_R   0.899906 0.415495 0.080162 -0.087014
C21   C     C_R   0.828260 0.412428 0.990848 -0.107119
C22   C     C_R   0.122796 0.462102 0.201548 0.178861
H31   H     H_    0.836947 0.379847 0.125187 0.144324
H32   H     H_    0.712844 0.375405 0.973076 0.178394
C23   C     C_R   0.282980 0.496513 0.223062 -0.429266
C24   C     C_R   0.068826 0.534220 0.795889 0.137917
C25   C     C_R   0.139704 0.538712 0.887987 -0.085231
C26   C     C_R   0.057463 0.499887 0.953462 0.020006
C27   C     C_R   0.295257 0.575984 0.915215 -0.149757
C28   C     C_R   0.378533 0.567448 0.999958 0.267737
C29   C     C_R   0.296872 0.536146 0.069516 -0.021105
C30   C     C_R   0.134066 0.500714 0.045074 -0.025792
C31   C     C_R   0.370532 0.536254 0.161166 0.259568
C32   C     C_R   0.915135 0.491809 0.772206 -0.418231
H33   H     H_    0.360375 0.607155 0.868579 0.154905
H34   H     H_    0.342764 0.490530 0.289879 0.198441
H35   H     H_    0.862659 0.485972 0.702307 0.154415
C33   C     C_R   0.703168 0.945808 0.558183 0.389582
C34   C     C_R   0.512871 0.805049 0.503863 0.098242
C35   C     C_R   0.362412 0.772676 0.457493 0.026820
C36   C     C_R   0.253349 0.832304 0.418815 0.198535
C37   C     C_R   0.299008 0.925618 0.418773 -0.197506
C38   C     C_R   0.451806 0.960557 0.460047 0.005210
C39   C     C_R   0.558548 0.902570 0.508356 -0.162899
C40   C     C_R   0.644415 0.093908 0.495360 -0.076819
C41   C     C_R   0.749734 0.038774 0.546801 -0.124636
C42   C     C_R   0.692415 0.187508 0.486354 0.225363
C43   C     C_R   0.853183 0.219347 0.517105 -0.183526
C44   C     C_R   0.953353 0.166341 0.571860 0.296752
C45   C     C_R   0.900047 0.078432 0.588286 -0.210983
C46   C     C_R   0.495052 0.054129 0.454540 -0.066599
H36   H     H_    0.214305 0.971226 0.387023 0.174915
H37   H     H_    0.981055 0.041114 0.631849 0.234219
H38   H     H_    0.411772 0.094752 0.415469 0.166571
N1    N     N_R   0.001715 0.152541 0.151148 0.291103
O25   O     O_R   0.915584 0.170646 0.077197 -0.302070
O26   O     O_R   0.970765 0.076311 0.186533 -0.353202
C47   C     C_3   0.682502 0.744032 0.870381 -0.824680
H39   H     H_    0.591445 0.686753 0.863995 0.218759
H40   H     H_    0.726602 0.757438 0.942622 0.247014
H41   H     H_    0.628952 0.807835 0.847545 0.323652
N2    N     N_R   0.560876 0.164359 0.153134 0.290135
O27   O     O_R   0.490458 0.139243 0.072007 -0.374775
O28   O     O_R   0.610767 0.100850 0.204369 -0.345591
C48   C     C_3   0.524437 0.890149 0.121696 -0.473428
H42   H     H_    0.619072 0.892606 0.076981 0.205893
H43   H     H_    0.438087 0.831665 0.094568 0.258543
H44   H     H_    0.459048 0.955085 0.117417 0.280582
C49   C     C_3   0.022802 0.795340 0.031603 -0.829006
H45   H     H_    0.021336 0.719334 0.012286 0.251162
H46   H     H_    0.965212 0.831005 0.974809 0.275049
H47   H     H_    0.148343 0.824314 0.044125 0.303045
N3    N     N_R   0.019873 0.268099 0.805880 0.219534
O29   O     O_R   0.938063 0.300567 0.737722 -0.488285
O30   O     O_R   0.947977 0.249812 0.874170 -0.345563
C50   C     C_3   0.280536 0.302939 0.968670 -0.916873
H48   H     H_    0.159935 0.319767 0.984818 0.291389
H49   H     H_    0.348386 0.282405 0.030866 0.272705
H50   H     H_    0.342526 0.365399 0.949276 0.268669
N4    N     N_R   0.712617 0.089978 0.827914 0.328889
O31   O     O_R   0.687683 0.071398 0.908029 -0.258424
O32   O     O_R   0.853489 0.078143 0.802909 -0.306059
C51   C     C_3   0.557920 0.571643 0.004180 -0.889166
H51   H     H_    0.598022 0.561142 0.937157 0.226795
H52   H     H_    0.612206 0.639555 0.034458 0.282377
H53   H     H_    0.603299 0.512218 0.038285 0.246529
N5    N     N_R   0.309382 0.679674 0.461040 0.250721
O33   O     O_R   0.320280 0.617758 0.394687 -0.398419
O34   O     O_R   0.228707 0.660273 0.524829 -0.279664
N6    N     N_R   0.185459 0.789965 0.205205 0.189563
O35   O     O_R   0.249510 0.874004 0.218408 -0.459034
O36   O     O_R   0.262441 0.723315 0.169474 -0.495640
C52   C     C_3   0.923501 0.306007 0.486436 -0.549876
H54   H     H_    0.048580 0.296520 0.472820 0.228851
H55   H     H_    0.860989 0.320570 0.421183 0.236379
H56   H     H_    0.917298 0.366178 0.536952 0.238537
N7    N     N_R   0.790216 0.903185 0.630468 0.244224
O37   O     O_R   0.744111 0.915536 0.709540 -0.331391
O38   O     O_R   0.936056 0.878361 0.625162 -0.320173
N8    N     N_R   0.334475 0.840212 0.713965 0.241987
O39   O     O_R   0.436029 0.903438 0.757925 -0.397804
O40   O     O_R   0.262373 0.855502 0.635376 -0.353768

loop_
_geom_bond_atom_site_label_1
_geom_bond_atom_site_label_2
_geom_bond_distance
_ccdc_geom_bond_type
N2    O27   1.300125 A    
O3    P6    1.731717 S    
C15   H27   1.104615 S    
C29   C30   1.433414 A    
C20   H31   1.069309 S    
P8    O24   1.762806 S    
C17   C18   1.427604 A    
P5    O17   1.765703 S    
C5    H9    1.110792 S    
N3    O30   1.300812 A    
C27   C28   1.392168 A    
C9    C47   1.521234 S    
O1    Ba1   2.866829 S    
C35   N5    1.410318 S    
O7    Ba1   2.883301 S    
N8    O39   1.299718 A    
C51   H52   1.101330 S    
C50   H49   1.102916 S    
C2    H3    1.114629 S    
C40   C42   1.422867 A    
P3    C36   1.859004 S    
O2    Ba2   2.864566 S    
O12   Ba2   2.867323 S    
O16   P7    1.773902 S    
C17   C32   1.405308 A    
C11   H21   1.098596 S    
C26   C30   1.443834 A    
C18   C26   1.422356 A    
C14   H26   1.102295 S    
P1    O1    1.550494 D    
P4    O15   1.770784 S    
C12   H23   1.094715 S    
C35   C36   1.391642 A    
C44   C45   1.387760 A    
C11   O22   1.402971 S    
C52   H54   1.107769 S    
C51   H51   1.104009 S    
P3    O11   1.753528 S    
C49   H47   1.107456 S    
P4    C24   1.897655 S    
C4    H6    1.094905 S    
C50   H50   1.108014 S    
C33   C39   1.433219 A    
C12   N2    1.460217 S    
C3    C49   1.534035 S    
C1    H2    1.105552 S    
C41   C45   1.411620 A    
N6    O36   1.295521 A    
P8    C17   1.879534 S    
C2    N6    1.442420 S    
C48   H44   1.108656 S    
C46   H38   1.081267 S    
C14   C50   1.526334 S    
N5    O34   1.290663 A    
C52   H55   1.094930 S    
C4    O15   1.405304 S    
O14   P8    1.747775 S    
C12   H22   1.109801 S    
P4    O13   1.594380 S    
P8    O23   1.543859 D    
C43   C44   1.400568 A    
N7    O38   1.300043 A    
N7    O37   1.298119 A    
P5    O18   1.544312 D    
N1    O26   1.300879 A    
C43   C52   1.503063 S    
C23   H34   1.077476 S    
P1    O5    1.752759 S    
C51   H53   1.097152 S    
C50   H48   1.103054 S    
N4    O32   1.300472 A    
C4    N8    1.464592 S    
H1    C10   1.105741 S    
C9    H16   1.103214 S    
H29   C16   1.109215 S    
P7    C42   1.863619 S    
P5    O19   1.766531 S    
Ba1   O16   2.811913 S    
O14   Ba2   2.854741 S    
P6    C31   1.900227 S    
C11   H20   1.102915 S    
C13   H24   1.109667 S    
C37   H36   1.084258 S    
C13   C14   1.545772 S    
P7    O22   1.753981 S    
C6    C7    1.530918 S    
C25   C27   1.391969 A    
P2    O10   1.746445 S    
C19   C20   1.402519 A    
P3    O9    1.540007 D    
O16   Ba2   2.952739 S    
N5    O33   1.293909 A    
O17   Ba2   2.778981 S    
P1    Ba1   3.430164 S    
O11   C2    1.404935 S    
C15   C16   1.530239 S    
C28   C29   1.422841 A    
C1    H19   1.110915 S    
O19   C13   1.413310 S    
C20   C21   1.396847 A    
C38   C46   1.402033 A    
N6    O35   1.299496 A    
C34   C39   1.442305 A    
O5    C6    1.399344 S    
Ba1   O20   2.953669 S    
C7    N1    1.458275 S    
C52   H56   1.109552 S    
Ba1   O13   2.864007 S    
C49   H45   1.110798 S    
C15   O24   1.411368 S    
C33   C41   1.419315 A    
P4    O12   1.550912 D    
O6    P6    1.759062 S    
C38   C39   1.427321 A    
C47   H40   1.100028 S    
C32   H35   1.081892 S    
C25   C26   1.419849 A    
O2    Ba1   2.968349 S    
C48   H42   1.108264 S    
C36   C37   1.390555 A    
C21   H32   1.080866 S    
O4    P6    1.542332 D    
C28   C51   1.499601 S    
P5    C44   1.851058 S    
C27   H33   1.065938 S    
C10   H18   1.107592 S    
C8    H14   1.106963 S    
N2    O28   1.300514 A    
C42   C43   1.416351 A    
C8    C9    1.532776 S    
O3    Ba1   2.855277 S    
C3    H5    1.110949 S    
N4    O31   1.301146 A    
C22   C23   1.405042 A    
N1    O25   1.300819 A    
C29   C31   1.437612 A    
C1    C48   1.542061 S    
C5    H8    1.110279 S    
C18   C21   1.401734 A    
N3    O29   1.295063 A    
C16   N4    1.458198 S    
P7    O21   1.578825 D    
C47   H41   1.105640 S    
N8    O40   1.299817 A    
P3    O8    1.770440 S    
C40   C41   1.417269 A    
C5    H7    1.102650 S    
P2    Ba1   3.451453 S    
C6    H11   1.102342 S    
P2    O7    1.524335 D    
O13   Ba2   2.969330 S    
C24   C25   1.431625 A    
C6    H10   1.110807 S    
C11   C12   1.533779 S    
C33   N7    1.432374 S    
C19   C30   1.429335 A    
C8    H15   1.111052 S    
C7    H13   1.109411 S    
C7    H12   1.108538 S    
C2    C3    1.541888 S    
C4    C5    1.531900 S    
C14   H25   1.111864 S    
C13   N3    1.460976 S    
C45   H37   1.078134 S    
Ba2   O20   2.811295 S    
C40   C46   1.402759 A    
C16   H30   1.105932 S    
P1    C22   1.916049 S    
C19   C22   1.430065 A    
C3    H4    1.105662 S    
C9    H17   1.108356 S    
C37   C38   1.406970 A    
C23   C31   1.409486 A    
C34   C35   1.405123 A    
C49   H46   1.106741 S    
C15   H28   1.099876 S    
P2    C34   1.874678 S    
C1    C10   1.546536 S    
O8    Ba1   2.778386 S    
O6    C10   1.409521 S    
P1    O2    1.594507 S    
C47   H39   1.096454 S    
P2    O20   1.581865 S    
C24   C32   1.398309 A    
O10   C8    1.393678 S    
Ba2   O21   2.883465 S    
P4    Ba2   3.430777 S    
C48   H43   1.106702 S    
Ba1   Ba2   4.583626 S    
