data_mof_unit_32490.cif
_audit_creation_date              2012-12-11T14:45:28-0500
_audit_creation_method            fapswitch 2.2
_symmetry_space_group_name_H-M    P1
_symmetry_Int_Tables_number       1
_space_group_crystal_system       triclinic
_cell_length_a                    25.046556
_cell_length_b                    7.176226
_cell_length_c                    14.417544
_cell_angle_alpha                 89.869818
_cell_angle_beta                  103.548543
_cell_angle_gamma                 91.093192
_cell_volume                      2518.82653268

loop_
_atom_site_label
_atom_site_type_symbol
_atom_type_description
_atom_site_fract_x
_atom_site_fract_y
_atom_site_fract_z
_atom_type_partial_charge
O1    O     O_R   0.319150 0.364170 0.330530 -0.524926
O2    O     O_R   0.680850 0.635830 0.669470 -0.536434
O3    O     O_R   0.180850 0.864170 0.169470 -0.522691
O4    O     O_R   0.819150 0.135830 0.830530 -0.541099
O5    O     O_R   0.210330 0.696850 0.354180 -0.516574
O6    O     O_R   0.789670 0.303150 0.645820 -0.547037
O7    O     O_R   0.289670 0.196850 0.145820 -0.537849
O8    O     O_R   0.710330 0.803150 0.854180 -0.540203
C1    C     C_R   0.196366 0.523908 0.376371 0.740183
C2    C     C_R   0.802934 0.476289 0.622619 0.675974
C3    C     C_R   0.303510 0.026396 0.123431 0.758310
C4    C     C_R   0.697484 0.973889 0.878058 0.666819
O9    O     O_R   0.320550 0.694110 0.341970 -0.529866
O10   O     O_R   0.679450 0.305890 0.658030 -0.534260
O11   O     O_R   0.179450 0.194110 0.158030 -0.548161
O12   O     O_R   0.820550 0.805890 0.841970 -0.541623
O13   O     O_R   0.291860 0.861000 0.157170 -0.544856
O14   O     O_R   0.708140 0.139000 0.842830 -0.536169
O15   O     O_R   0.208140 0.361000 0.342830 -0.549417
O16   O     O_R   0.791860 0.639000 0.657170 -0.532488
C5    C     C_R   0.341761 0.526563 0.363069 0.682191
C6    C     C_R   0.658393 0.473612 0.636325 0.687838
C7    C     C_R   0.158779 0.023035 0.135204 0.696349
C8    C     C_R   0.841393 0.976591 0.864188 0.678777
O17   O     O_3   0.240460 0.529330 0.189380 -0.388364
O18   O     O_3   0.759540 0.470670 0.810620 -0.380149
O19   O     O_3   0.259540 0.029330 0.310620 -0.368360
O20   O     O_3   0.740460 0.970670 0.689380 -0.371483
V1    V     V_3+5 0.251770 0.805510 0.261240 1.525527
V2    V     V_3+5 0.748230 0.194490 0.738760 1.423826
V3    V     V_3+5 0.248230 0.305510 0.238760 1.475272
V4    V     V_3+5 0.751770 0.694490 0.761240 1.410650
C9    C     C_R   0.103792 0.003185 0.068512 -0.052273
C10   C     C_R   0.896341 0.994769 0.930922 -0.084927
C11   C     C_R   0.396641 0.518193 0.430005 -0.040771
C12   C     C_R   0.603364 0.482140 0.569537 -0.085503
C13   C     C_R   0.961178 0.155634 0.060715 -0.174570
C14   C     C_R   0.038535 0.837933 0.940863 -0.173302
C15   C     C_R   0.543189 0.553296 0.414612 -0.152436
C16   C     C_R   0.456778 0.441177 0.584174 -0.161323
C17   C     C_R   0.906782 0.122749 0.008610 0.093368
C18   C     C_R   0.093132 0.872456 0.991657 0.077912
C19   C     C_R   0.596909 0.528194 0.471672 0.082073
C20   C     C_R   0.403314 0.465975 0.527092 0.056023
C21   C     C_R   0.940477 0.897654 0.910587 -0.247051
C22   C     C_R   0.059550 0.099624 0.089216 -0.205173
C23   C     C_R   0.556515 0.453327 0.606053 -0.231066
C24   C     C_R   0.443523 0.548486 0.393726 -0.185976
C25   C     C_R   0.994681 0.932197 0.962933 0.121643
C26   C     C_R   0.005246 0.064113 0.037490 0.122210
C27   C     C_R   0.503364 0.472822 0.547713 0.117676
C28   C     C_R   0.496686 0.526065 0.451794 0.112938
H1    H     H_    0.067252 0.197322 0.148381 0.120175
H2    H     H_    0.932781 0.800152 0.851343 0.152007
H3    H     H_    0.438420 0.585766 0.319275 0.109207
H4    H     H_    0.561667 0.418764 0.680757 0.159665
H5    H     H_    0.969064 0.252931 0.120033 0.115034
H6    H     H_    0.030154 0.735320 0.883953 0.158148
H7    H     H_    0.536768 0.594205 0.340669 0.105043
H8    H     H_    0.462183 0.396202 0.657520 0.156107
C29   C     C_R   0.664471 0.980954 0.949332 -0.094561
C30   C     C_R   0.338893 0.020252 0.056038 -0.051400
C31   C     C_R   0.837067 0.496255 0.553376 -0.099298
C32   C     C_R   0.162732 0.505023 0.446373 -0.053469
C33   C     C_R   0.662863 0.023646 0.115577 0.028025
C34   C     C_R   0.344036 0.990187 0.891056 0.036536
C35   C     C_R   0.849236 0.679139 0.417603 0.020895
C36   C     C_R   0.152317 0.331218 0.585901 0.036878
C37   C     C_R   0.691621 0.991220 0.045257 -0.259974
C38   C     C_R   0.313848 0.022584 0.959067 -0.308618
C39   C     C_R   0.815425 0.599998 0.471770 -0.252618
C40   C     C_R   0.184980 0.402104 0.527870 -0.303311
C41   C     C_R   0.606930 0.994993 0.921621 -0.073854
C42   C     C_R   0.396393 0.999492 0.087447 -0.057578
C43   C     C_R   0.893752 0.459460 0.579394 -0.076096
C44   C     C_R   0.106265 0.547299 0.423526 -0.051467
C45   C     C_R   0.576001 0.994395 0.993198 0.048863
C46   C     C_R   0.428926 0.995473 0.018330 -0.028430
C47   C     C_R   0.927701 0.515881 0.516909 0.045415
C48   C     C_R   0.073545 0.494851 0.488621 -0.031071
C49   C     C_R   0.604564 0.031103 0.089273 0.093868
C50   C     C_R   0.401481 0.965142 0.921192 0.112192
C51   C     C_R   0.906247 0.645815 0.443387 0.092349
C52   C     C_R   0.095452 0.366527 0.562480 0.107525
C53   C     C_R   0.517605 0.967016 0.972520 0.102847
C54   C     C_R   0.487701 0.015036 0.041369 0.050819
C55   C     C_R   0.983097 0.457612 0.527764 0.098510
C56   C     C_R   0.018475 0.554739 0.479293 0.044296
C57   C     C_R   0.517258 0.092448 0.128197 -0.233830
C58   C     C_R   0.488367 0.885567 0.886601 -0.135725
C59   C     C_R   0.998555 0.714197 0.426709 -0.227799
C60   C     C_R   0.003425 0.299696 0.581469 -0.141640
C61   C     C_R   0.574153 0.088632 0.153997 -0.171143
C62   C     C_R   0.431747 0.896965 0.858662 -0.134954
C63   C     C_R   0.943057 0.751898 0.404130 -0.152477
C64   C     C_R   0.059073 0.262997 0.603948 -0.132275
H9    H     H_    0.593691 0.141147 0.223792 0.179382
H10   H     H_    0.411972 0.844574 0.788822 0.158381
H11   H     H_    0.929945 0.871405 0.359386 0.171289
H12   H     H_    0.072572 0.144876 0.649549 0.164673
H13   H     H_    0.269788 0.041115 0.936586 0.124453
H14   H     H_    0.736096 0.983583 0.064761 0.117034
H15   H     H_    0.227799 0.364498 0.542294 0.123867
H16   H     H_    0.772202 0.632921 0.455281 0.120859
H17   H     H_    0.497121 0.158831 0.177469 0.149027
H18   H     H_    0.508902 0.816698 0.838537 0.123684
H19   H     H_    0.025508 0.811219 0.401565 0.153732
H20   H     H_    0.976776 0.203199 0.607639 0.126821
C65   C     C_3   0.138016 0.764551 0.961631 -0.373452
C66   C     C_3   0.142501 0.816698 0.860436 -0.321424
C67   C     C_3   0.184810 0.698051 0.828241 -0.726038
H21   H     H_    0.226111 0.719773 0.876303 0.211295
H22   H     H_    0.172997 0.548353 0.828746 0.274728
H23   H     H_    0.186690 0.737167 0.754488 0.221152
H24   H     H_    0.102351 0.796794 0.808553 0.218283
H25   H     H_    0.155097 0.965593 0.859934 0.239325
H26   H     H_    0.179023 0.790266 0.009235 0.176521
H27   H     H_    0.128559 0.612968 0.965008 0.195921
C68   C     C_3   0.861140 0.220607 0.040939 -0.372396
C69   C     C_3   0.861396 0.429957 0.018840 -0.291412
C70   C     C_3   0.814377 0.527018 0.048912 -0.654059
H28   H     H_    0.774171 0.467706 0.009600 0.221593
H29   H     H_    0.818128 0.509755 0.126740 0.239922
H30   H     H_    0.815767 0.678217 0.032800 0.215183
H31   H     H_    0.900849 0.495771 0.057499 0.192724
H32   H     H_    0.857368 0.451123 0.941164 0.220537
H33   H     H_    0.820274 0.158276 0.007534 0.163577
H34   H     H_    0.866861 0.200292 0.119142 0.184844
C71   C     C_3   0.354710 0.432753 0.571563 -0.357587
C72   C     C_3   0.357577 0.561181 0.657842 -0.299682
C73   C     C_3   0.306931 0.538590 0.698916 -0.714938
H35   H     H_    0.271350 0.607802 0.652007 0.220577
H36   H     H_    0.296884 0.389160 0.706993 0.253673
H37   H     H_    0.314972 0.604301 0.770535 0.210169
H38   H     H_    0.394152 0.528113 0.715243 0.197750
H39   H     H_    0.361257 0.708734 0.636170 0.221265
H40   H     H_    0.315278 0.456005 0.519305 0.145640
H41   H     H_    0.354644 0.284960 0.594582 0.225814
C74   C     C_3   0.647364 0.547922 0.429953 -0.360518
C75   C     C_3   0.634896 0.549646 0.320054 -0.281943
C76   C     C_3   0.686666 0.531154 0.282629 -0.708594
H42   H     H_    0.713158 0.656887 0.301243 0.242879
H43   H     H_    0.709925 0.406481 0.313203 0.228825
H44   H     H_    0.675254 0.517358 0.203697 0.215687
H45   H     H_    0.606759 0.431471 0.291430 0.187833
H46   H     H_    0.614780 0.681978 0.292561 0.223205
H47   H     H_    0.670349 0.677631 0.458198 0.183615
H48   H     H_    0.674390 0.427963 0.455223 0.169503
C77   C     C_2   0.420509 0.949685 0.188956 0.308805
H49   H     H_    0.454408 0.853797 0.205786 0.054991
O21   O     O_2   0.404057 0.017757 0.254421 -0.525887
C78   C     C_2   0.582094 0.042265 0.820142 0.338139
H50   H     H_    0.597770 0.982057 0.763046 0.046989
O22   O     O_2   0.545490 0.155759 0.799897 -0.537603
C79   C     C_2   0.079382 0.601945 0.323866 0.296230
H51   H     H_    0.039408 0.542619 0.289866 0.066062
O23   O     O_2   0.100369 0.716666 0.280124 -0.524856
C80   C     C_2   0.917441 0.402373 0.679907 0.315244
H52   H     H_    0.896296 0.299659 0.714325 0.063325
O24   O     O_2   0.959574 0.476185 0.726371 -0.532645
C81   C     C_2   0.696391 0.049596 0.214402 0.295022
H53   H     H_    0.738403 0.101547 0.225365 0.067903
O25   O     O_2   0.679080 0.006335 0.284007 -0.555377
C82   C     C_2   0.313462 0.987520 0.789785 0.293579
H54   H     H_    0.270474 0.945979 0.772062 0.065929
O26   O     O_2   0.334869 0.038074 0.725934 -0.554579
C83   C     C_2   0.823018 0.799816 0.336830 0.286509
H55   H     H_    0.787647 0.880099 0.341958 0.082282
O27   O     O_2   0.838835 0.804637 0.262930 -0.550098
C84   C     C_2   0.179896 0.219393 0.669050 0.292641
H56   H     H_    0.216446 0.143962 0.665926 0.073221
O28   O     O_2   0.164206 0.218906 0.742976 -0.561024

loop_
_geom_bond_atom_site_label_1
_geom_bond_atom_site_label_2
_ccdc_geom_bond_type
O17   V3    S    
C24   H3    S    
C55   C56   A    
C35   C51   A    
C16   H8    S    
C61   H9    S    
O19   V1    S    
C1    C32   S    
O13   V1    S    
O3    C7    A    
C72   H38   S    
O1    V3    S    
C48   C52   A    
C73   H37   S    
O15   V3    S    
C2    C31   S    
C47   C55   A    
C81   H53   S    
C38   H13   S    
C65   H26   S    
C82   O26   D    
C83   O27   D    
C14   C25   A    
C53   C54   A    
O1    C5    A    
C74   H47   S    
C84   O28   D    
C50   C62   A    
C9    C18   A    
O9    V1    S    
C82   H54   S    
C18   C65   S    
C14   C18   A    
C77   O21   D    
O4    C8    A    
C63   H11   S    
C79   O23   D    
C84   H56   S    
C62   H10   S    
C35   C83   S    
C60   C64   A    
C30   C38   A    
C12   C23   A    
O2    V4    S    
C52   C64   A    
O3    V1    S    
C66   C67   S    
C70   H30   S    
C14   H6    S    
C36   C84   S    
C60   H20   S    
C71   H41   S    
C67   H21   S    
C2    O16   A    
C7    C9    S    
C39   H16   S    
O2    C6    A    
C42   C77   S    
C19   C74   S    
O14   V2    S    
C45   C49   A    
C16   C20   A    
C13   C26   A    
C36   C40   A    
C68   H34   S    
C46   C54   A    
O11   C7    A    
C15   C28   A    
C45   C53   A    
O12   C8    A    
C55   C60   A    
C80   O24   D    
C9    C22   A    
C10   C17   A    
O10   V2    S    
C11   C24   A    
C81   O25   D    
C1    O15   A    
C65   H27   S    
C58   C62   A    
O5    V1    S    
C74   C75   S    
C74   H48   S    
O7    V3    S    
C34   C82   S    
C27   C28   A    
O8    V4    S    
C59   H19   S    
C75   C76   S    
C58   H18   S    
C65   C66   S    
C76   H44   S    
C75   H46   S    
C83   H55   S    
C69   H31   S    
C23   C27   A    
C29   C41   A    
C20   C71   S    
C37   H14   S    
C57   C61   A    
C8    C10   S    
C36   C52   A    
O7    C3    A    
O5    C1    A    
C34   C50   A    
C49   C61   A    
C46   C50   A    
C33   C49   A    
C56   C59   A    
C21   C25   A    
O8    C4    A    
C15   H7    S    
C32   C44   A    
O9    C5    A    
C67   H22   S    
C10   C21   A    
C51   C63   A    
C17   C68   S    
C68   C69   S    
C11   C20   A    
C70   H28   S    
C69   H32   S    
C43   C80   S    
O6    V2    S    
C31   C39   A    
C21   H2    S    
C41   C78   S    
C80   H52   S    
C33   C81   S    
C73   H35   S    
C66   H25   S    
C69   C70   S    
C71   C72   S    
O16   V4    S    
C29   C37   A    
C3    O13   A    
C44   C79   S    
C72   H39   S    
C44   C48   A    
C78   O22   D    
C73   H36   S    
C54   C57   A    
C75   H45   S    
O6    C2    A    
C15   C19   A    
C53   C58   A    
O11   V3    S    
C5    C11   S    
C40   H15   S    
O12   V4    S    
C16   C27   A    
C6    C12   S    
C22   C26   A    
C3    C30   S    
C57   H17   S    
O10   C6    A    
C76   H43   S    
C72   C73   S    
C48   C56   A    
C76   H42   S    
C47   C51   A    
C4    C29   S    
C34   C38   A    
C31   C43   A    
C33   C37   A    
C64   H12   S    
C22   H1    S    
O20   V2    S    
C67   H23   S    
C35   C39   A    
C32   C40   A    
C13   C17   A    
C13   H5    S    
C70   H29   S    
C59   C63   A    
C24   C28   A    
C71   H40   S    
C78   H50   S    
C25   C26   A    
C42   C46   A    
C4    O14   A    
C79   H51   S    
C41   C45   A    
C30   C42   A    
C12   C19   A    
C77   H49   S    
C43   C47   A    
C66   H24   S    
O18   V4    S    
O4    V2    S    
C23   H4    S    
C68   H33   S    
