data_mof_unit_27459.cif
_audit_creation_date              2012-12-11T16:34:28-0500
_audit_creation_method            fapswitch 2.2
_symmetry_space_group_name_H-M    P1
_symmetry_Int_Tables_number       1
_space_group_crystal_system       triclinic
_cell_length_a                    8.28442
_cell_length_b                    17.397704
_cell_length_c                    27.003684
_cell_angle_alpha                 95.535938
_cell_angle_beta                  92.553508
_cell_angle_gamma                 83.700291
_cell_volume                      3848.22250562

loop_
_atom_site_label
_atom_site_type_symbol
_atom_type_description
_atom_site_fract_x
_atom_site_fract_y
_atom_site_fract_z
_atom_type_partial_charge
Ba1   Ba    Ba6+2 0.856110 0.463800 0.523550 1.641608
Ba2   Ba    Ba6+2 0.333710 0.536130 0.476450 1.640589
C1    C     C_3   0.620654 0.186756 0.646187 -0.364181
C2    C     C_R   0.905238 0.579766 0.177022 0.572341
C3    C     C_2   0.759837 0.552182 0.272172 -0.084007
C4    C     C_3   0.105789 0.267329 0.660166 0.722651
C5    C     C_3   0.739815 0.577708 0.326699 -0.049460
C6    C     C_1   0.984608 0.490278 0.343253 0.034638
C7    C     C_2   0.026440 0.487932 0.295741 -0.109409
C8    C     C_2   0.906152 0.518170 0.256420 0.190202
C9    C     C_R   0.028078 0.511957 0.102210 -0.079842
C10   C     C_R   0.073090 0.447220 0.129318 -0.036009
C11   C     C_R   0.159500 0.381433 0.105194 -0.060162
C12   C     C_3   0.623649 0.269502 0.631593 0.312392
C13   C     C_R   0.942506 0.578270 0.126331 -0.023944
C14   C     C_2   0.849763 0.529859 0.360391 -0.291947
C15   C     C_2   0.353896 0.482392 0.641293 -0.279922
C16   C     C_3   0.006943 0.244480 0.702405 -0.277975
C17   C     C_R   0.207585 0.444669 0.977096 0.019780
C18   C     C_R   0.051071 0.572800 0.972149 0.020465
C19   C     C_R   0.149574 0.508204 0.949325 0.049987
C20   C     C_R   0.311877 0.383690 0.953243 -0.101709
C21   C     C_R   0.353933 0.384188 0.903858 -0.062224
C22   C     C_R   0.293600 0.445230 0.875606 -0.025110
C23   C     C_3   0.502352 0.658618 0.627206 0.302391
C24   C     C_R   0.190806 0.507247 0.898197 -0.078974
C25   C     C_R   0.130031 0.568532 0.869747 -0.035488
C26   C     C_R   0.171515 0.566778 0.819225 0.593064
C27   C     C_R   0.334640 0.445296 0.825226 0.573562
C28   C     C_3   0.200882 0.300415 0.417333 0.313743
C29   C     C_2   0.466035 0.489560 0.729355 -0.107485
C30   C     C_3   0.504261 0.488786 0.674711 -0.048619
C31   C     C_1   0.212859 0.515543 0.657272 0.041100
C32   C     C_2   0.176863 0.516720 0.704942 -0.111261
C33   C     C_2   0.309872 0.503430 0.744337 0.196736
C34   C     C_3   0.484913 0.689022 0.681661 -0.373944
C35   C     C_R   0.161061 0.444421 0.027569 0.019925
C36   C     C_R   0.068622 0.510542 0.050980 0.049982
C37   C     C_R   0.016465 0.575422 0.023759 0.020069
C38   C     C_R   0.202950 0.380026 0.055713 -0.099755
C39   C     C_R   0.896850 0.642709 0.099501 -0.059982
C40   C     C_3   0.214612 0.212916 0.404594 -0.373932
C41   C     C_R   0.989774 0.632654 0.942183 -0.099952
C42   C     C_R   0.028467 0.630460 0.892337 -0.061458
C43   C     C_R   0.932395 0.641394 0.049538 -0.102835
C44   C     C_R   0.414394 0.278908 0.521463 -0.302621
C45   C     C_3   0.051280 0.703252 0.339439 0.341724
C46   C     C_R   0.553728 0.254516 0.494913 0.059085
C47   C     C_R   0.610025 0.175271 0.488470 -0.120001
C48   C     C_R   0.524011 0.120301 0.507801 -0.011569
C49   C     C_R   0.379266 0.145338 0.532846 -0.129027
C50   C     C_R   0.324814 0.224960 0.539517 0.032242
C51   C     C_R   0.586986 0.834953 0.505531 -0.112850
C52   C     C_3   0.992680 0.698120 0.579483 0.307832
C53   C     C_R   0.638749 0.755306 0.500943 0.042097
C54   C     C_R   0.873145 0.778518 0.456530 0.011665
C55   C     C_R   0.822290 0.858719 0.460777 -0.128285
C56   C     C_3   0.062928 0.726499 0.286987 -0.326567
C57   C     C_R   0.677230 0.887088 0.484953 -0.001783
C58   C     C_1   0.625709 0.969656 0.492271 0.000499
C59   C     C_1   0.579686 0.038287 0.499329 0.003957
C60   C     C_R   0.776946 0.727330 0.474633 -0.286957
C61   C     C_3   0.967253 0.785654 0.592001 -0.381437
C62   C     C_3   0.680924 0.371168 0.375500 0.301543
C63   C     C_3   0.682095 0.352255 0.319339 -0.358476
C64   C     C_3   0.323953 0.306423 0.708882 0.122273
C65   C     C_3   0.507848 0.743361 0.360046 0.364252
C66   C     C_3   0.462801 0.821188 0.339054 -0.365173
C67   C     C_R   0.029628 0.449202 0.179826 0.598158
H1    H     H_    0.712730 0.266423 0.601638 0.074971
H2    H     H_    0.802475 0.385825 0.389029 0.009800
H3    H     H_    0.589254 0.421643 0.384036 0.080530
H4    H     H_    0.732061 0.149640 0.633923 0.093061
H5    H     H_    0.777580 0.303869 0.309575 0.132622
H6    H     H_    0.707242 0.403723 0.300998 0.069601
H7    H     H_    0.561877 0.335128 0.305316 0.134635
H8    H     H_    0.500907 0.290490 0.617285 0.010494
H9    H     H_    0.515335 0.160222 0.627737 0.127374
H10   H     H_    0.381319 0.644334 0.612107 0.030742
H11   H     H_    0.590575 0.605641 0.624552 0.036836
H12   H     H_    0.293274 0.196378 0.372204 0.125538
H13   H     H_    0.405157 0.744804 0.684637 0.138854
H14   H     H_    0.429362 0.646967 0.702137 0.078691
H15   H     H_    0.606051 0.698469 0.699033 0.126132
H16   H     H_    0.612370 0.185845 0.687001 0.145824
H17   H     H_    0.080693 0.201857 0.724577 0.103112
H18   H     H_    0.127567 0.647091 0.342503 0.085482
H19   H     H_    0.922386 0.696259 0.345557 -0.054468
H20   H     H_    0.182543 0.747076 0.281868 0.147716
H21   H     H_    0.050299 0.675401 0.259942 0.122224
H22   H     H_    0.965498 0.773501 0.279520 0.116630
H23   H     H_    0.268294 0.182641 0.436577 0.066728
H24   H     H_    0.642711 0.732378 0.360836 -0.066850
H25   H     H_    0.464666 0.747611 0.398697 0.075491
H26   H     H_    0.524501 0.866789 0.361764 0.070955
H27   H     H_    0.329695 0.837507 0.339967 0.150095
H28   H     H_    0.073248 0.330188 0.655491 0.006167
H29   H     H_    0.501998 0.817997 0.300044 0.121871
H30   H     H_    0.149173 0.465998 0.285449 0.137299
H31   H     H_    0.194861 0.330271 0.124668 0.122011
H32   H     H_    0.565965 0.483011 0.756522 0.112925
H33   H     H_    0.434533 0.335857 0.887751 0.120441
H34   H     H_    0.092190 0.193996 0.395366 0.129314
H35   H     H_    0.366300 0.334920 0.972021 0.069396
H36   H     H_    0.267209 0.326525 0.040314 0.069395
H37   H     H_    0.664863 0.571701 0.245866 0.122406
H38   H     H_    0.832414 0.695093 0.117129 0.122499
H39   H     H_    0.908399 0.681905 0.955807 0.069388
H40   H     H_    0.977811 0.678059 0.871409 0.121874
H41   H     H_    0.051057 0.526132 0.715578 0.126113
H42   H     H_    0.894759 0.694193 0.032503 0.069331
H43   H     H_    0.833497 0.542245 0.400120 0.082436
H44   H     H_    0.361912 0.450653 0.604669 0.073303
H45   H     H_    0.875443 0.676536 0.567539 0.006215
H46   H     H_    0.480854 0.856456 0.526806 0.081871
H47   H     H_    0.307581 0.103369 0.545888 0.087585
H48   H     H_    0.897451 0.898605 0.446995 0.079511
H49   H     H_    0.717334 0.156397 0.467168 0.088403
H50   H     H_    0.369371 0.339894 0.525171 0.067581
H51   H     H_    0.965375 0.296457 0.727628 0.077435
H52   H     H_    0.817749 0.665865 0.472294 0.060124
H53   H     H_    0.900027 0.216520 0.687771 0.122038
H54   H     H_    0.323613 0.318463 0.425632 0.002823
H55   H     H_    0.124555 0.315275 0.450371 0.070766
H56   H     H_    0.078850 0.685155 0.548799 0.073099
H57   H     H_    0.438377 0.282703 0.727137 0.152652
H58   H     H_    0.236422 0.323556 0.738994 0.048663
H59   H     H_    0.346746 0.358015 0.690878 0.040009
H60   H     H_    0.874976 0.800336 0.620972 0.136587
H61   H     H_    0.924987 0.815075 0.558540 0.063299
H62   H     H_    0.083493 0.807404 0.606042 0.124752
N1    N     N_R   0.947322 0.515377 0.203689 -0.421379
N2    N     N_R   0.271714 0.505112 0.797034 -0.421520
O1    O     O_2   0.910880 0.540430 0.617910 -0.461762
O2    O     O_2   0.209270 0.773842 0.466313 -0.485436
O3    O     O_3   0.107323 0.760993 0.373718 -0.599940
O4    O     O_3   0.142880 0.540370 0.557740 -0.488864
O5    O     O_3   0.562610 0.408580 0.475460 -0.489082
O6    O     O_2   0.365880 0.685750 0.523280 -0.459111
O7    O     O_3   0.559422 0.716172 0.601839 -0.641374
O8    O     O_2   0.417520 0.534162 0.322403 -0.497278
O9    O     O_3   0.434440 0.684765 0.330340 -0.591627
O10   O     O_2   0.063355 0.391448 0.202178 -0.597086
O11   O     O_2   0.425981 0.391554 0.806489 -0.626421
O12   O     O_3   0.642889 0.305977 0.397304 -0.634256
O13   O     O_2   0.836236 0.639301 0.197469 -0.619819
O14   O     O_2   0.120207 0.620979 0.795266 -0.597304
O15   O     O_3   0.675650 0.402220 0.588450 -0.486611
O16   O     O_2   0.840417 0.436082 0.671852 -0.499857
O17   O     O_3   0.054331 0.664200 0.622187 -0.626110
O18   O     O_3   0.666882 0.320161 0.672843 -0.616156
O19   O     O_2   0.823810 0.314230 0.476690 -0.452139
O20   O     O_3   0.086630 0.363340 0.564170 -0.493495
O21   O     O_2   0.004424 0.227210 0.522920 -0.483517
O22   O     O_3   0.272590 0.250177 0.672142 -0.695357
O23   O     O_3   0.065265 0.222089 0.616273 -0.606699
O24   O     O_2   0.278810 0.459550 0.382060 -0.460384
O25   O     O_3   0.046820 0.459570 0.442260 -0.494480
O26   O     O_3   0.514050 0.597710 0.411540 -0.477088
O27   O     O_3   0.131142 0.336035 0.376170 -0.624054
O28   O     O_3   0.627090 0.591350 0.524530 -0.473503
O29   O     O_3   0.103080 0.636600 0.435820 -0.490913
P1    P     P_3+3 0.078810 0.562990 0.610370 1.003920
P2    P     P_3+3 0.645380 0.325580 0.462150 0.988288
P3    P     P_3+3 0.123109 0.260904 0.562723 0.957886
P4    P     P_3+3 0.110900 0.436950 0.389630 0.995369
P5    P     P_3+3 0.073570 0.737921 0.433687 0.944934
P6    P     P_3+3 0.671391 0.413304 0.653208 0.954150
P7    P     P_3+3 0.550183 0.688672 0.537845 0.953225
P8    P     P_3+3 0.525774 0.595161 0.347069 0.946225

loop_
_geom_bond_atom_site_label_1
_geom_bond_atom_site_label_2
_ccdc_geom_bond_type
C27   N2    Am   
C19   C24   A    
O7    P7    S    
O26   P8    S    
C45   O3    S    
C1    H16   S    
C23   H11   S    
C10   C67   A    
C40   H34   S    
C33   N2    S    
C51   C57   A    
C15   H44   S    
C52   O17   S    
C64   H58   S    
C28   O27   S    
O17   P1    S    
O16   P6    D    
O25   P4    S    
C24   C25   A    
C16   H17   S    
C63   H7    S    
O4    P1    S    
Ba2   O6    S    
C29   H32   S    
Ba1   O25   S    
C17   C19   A    
C22   C24   A    
Ba1   Ba2   S    
C35   C38   A    
C67   N1    Am   
C36   C37   A    
C62   O12   S    
C12   H8    S    
C21   H33   S    
C52   C61   S    
C34   H14   S    
O18   P6    S    
C53   C60   A    
C44   C50   A    
C20   H35   S    
C54   C55   A    
Ba1   O19   S    
C32   C33   S    
C62   H2    S    
C22   C27   A    
C11   C38   A    
C17   C35   A    
C9    C13   A    
C25   C42   A    
C47   H49   S    
Ba1   P2    S    
C34   H13   S    
C6    C7    D    
C12   O18   S    
C65   H25   S    
C21   C22   A    
O21   P3    D    
O27   P4    S    
C7    C8    S    
Ba2   P4    S    
C40   H23   S    
C4    O22   S    
C37   C43   A    
O28   P7    S    
C42   H40   S    
C62   H3    S    
Ba1   O28   S    
C57   C58   S    
C6    C14   D    
C12   H1    S    
Ba2   O29   S    
C40   H12   S    
C15   C31   D    
Ba2   O28   S    
C31   C32   D    
C66   H29   S    
C3    H37   S    
C51   C53   A    
C4    C16   S    
C52   H56   S    
C44   C46   A    
C66   H26   S    
C65   C66   S    
C61   H61   S    
C4    H28   S    
C23   O7    S    
C13   C39   A    
C2    N1    Am   
C3    C5    S    
C18   C37   A    
Ba2   O26   S    
C27   O11   D    
C63   H5    S    
C26   N2    Am   
C58   C59   T    
O1    P1    D    
Ba2   O5    S    
C9    C36   A    
C41   C42   A    
C35   C36   A    
C50   P3    S    
C29   C30   S    
Ba2   O25   S    
C2    O13   D    
C17   C20   A    
C48   C49   A    
C66   H27   S    
C18   C19   A    
Ba1   O20   S    
C28   H54   S    
C56   H21   S    
O19   P2    D    
C1    C12   S    
C6    P4    S    
C16   H53   S    
C46   C47   A    
O3    P5    S    
C28   H55   S    
C61   H62   S    
C30   P6    S    
C2    C13   A    
C32   H41   S    
C29   C33   D    
Ba1   O1    S    
C16   H51   S    
C18   C41   A    
Ba1   O4    S    
C14   H43   S    
C55   H48   S    
C56   H22   S    
C15   C30   S    
C5    C14   S    
C26   O14   D    
C39   C43   A    
C39   H38   S    
O20   P3    S    
C23   H10   S    
Ba2   O4    S    
O24   P4    D    
C9    C10   A    
C43   H42   S    
C46   P2    S    
O12   P2    S    
C67   O10   D    
C49   H47   S    
C63   H6    S    
O9    P8    S    
C62   C63   S    
C11   H31   S    
C49   C50   A    
C45   H19   S    
C45   C56   S    
C1    H9    S    
C64   O22   S    
O23   P3    S    
C34   H15   S    
Ba2   O24   S    
O15   P6    S    
C52   H45   S    
C54   P5    S    
O8    P8    D    
C31   P1    S    
C64   H59   S    
C44   H50   S    
O6    P7    D    
C54   C60   A    
C41   H39   S    
C61   H60   S    
C1    H4    S    
C56   H20   S    
C8    N1    S    
C55   C57   A    
C23   C34   S    
O29   P5    S    
C64   H57   S    
C3    C8    D    
C10   C11   A    
Ba1   P1    S    
C7    H30   S    
C47   C48   A    
C5    P8    S    
C25   C26   A    
C65   H24   S    
C48   C59   S    
O2    P5    D    
C20   C21   A    
C28   C40   S    
Ba1   O15   S    
O5    P2    S    
C65   O9    S    
C53   P7    S    
C60   H52   S    
C4    O23   S    
Ba1   O5    S    
C51   H46   S    
C45   H18   S    
C38   H36   S    
