data_mof_unit_38521.cif
_audit_creation_date              2013-03-05T16:36:15-0500
_audit_creation_method            fapswitch 2.2
_symmetry_space_group_name_H-M    P1
_symmetry_Int_Tables_number       1
_space_group_crystal_system       triclinic
_cell_length_a                    27.899743
_cell_length_b                    9.080074
_cell_length_c                    7.771332
_cell_angle_alpha                 89.976476
_cell_angle_beta                  89.99996
_cell_angle_gamma                 90.000064
_cell_volume                      1968.72482196

loop_
_atom_site_label
_atom_site_type_symbol
_atom_site_description
_atom_site_fract_x
_atom_site_fract_y
_atom_site_fract_z
_atom_type_partial_charge
O1    O     O_R   0.500000 0.288390 0.642760 -0.573420
O2    O     O_R   0.500000 0.711610 0.357240 -0.573419
O3    O     O_R   0.500000 0.711610 0.642760 -0.572163
O4    O     O_R   0.500000 0.288390 0.357240 -0.572163
C1    C     C_R   0.499999 0.219989 0.500016 0.847274
C2    C     C_R   0.499999 0.780011 0.499984 0.847275
O5    O     O_R   0.430260 0.500000 0.642770 -0.573992
O6    O     O_R   0.569740 0.500000 0.357230 -0.573850
O7    O     O_R   0.569740 0.500000 0.642770 -0.573850
O8    O     O_R   0.430260 0.500000 0.357230 -0.573991
C3    C     C_R   0.407162 0.500000 0.500000 0.787719
C4    C     C_R   0.592848 0.500000 0.500000 0.787530
Cu1   Cu    Cu3+1 0.500000 0.500000 0.669080 1.049563
Cu2   Cu    Cu3+1 0.500000 0.500000 0.330920 1.049564
C5    C     C_R   0.177581 0.370452 0.524811 0.541852
C6    C     C_R   0.822446 0.629626 0.475748 0.541860
C7    C     C_R   0.177581 0.629548 0.475180 0.541852
C8    C     C_R   0.822446 0.370374 0.524247 0.541860
O9    O     O_2   0.202318 0.244600 0.550598 -0.517101
O10   O     O_2   0.797703 0.755562 0.450601 -0.516812
O11   O     O_2   0.202318 0.755401 0.449394 -0.517100
O12   O     O_2   0.797703 0.244438 0.549395 -0.516812
N1    N     N_R   0.201615 0.500000 0.499996 -0.464225
N2    N     N_R   0.798416 0.500000 0.499998 -0.464357
C9    C     C_R   0.278043 0.569220 0.632880 -0.131775
C10   C     C_R   0.722001 0.432078 0.366225 -0.132147
C11   C     C_R   0.278043 0.430779 0.367115 -0.131774
C12   C     C_R   0.722001 0.567922 0.633773 -0.132148
C13   C     C_R   0.328093 0.570199 0.634234 -0.072905
C14   C     C_R   0.671950 0.431125 0.364829 -0.072611
C15   C     C_R   0.328094 0.429799 0.365765 -0.072902
C16   C     C_R   0.671950 0.568875 0.635170 -0.072612
C17   C     C_R   0.253024 0.500000 0.499997 0.323259
C18   C     C_R   0.747014 0.500000 0.499999 0.323900
C19   C     C_R   0.101682 0.500000 0.499995 -0.043623
C20   C     C_R   0.898345 0.500000 0.499997 -0.043649
C21   C     C_R   0.127272 0.368023 0.524932 -0.022077
C22   C     C_R   0.872755 0.632046 0.475566 -0.022145
C23   C     C_R   0.127272 0.631977 0.475059 -0.022077
C24   C     C_R   0.872755 0.367954 0.524429 -0.022145
C25   C     C_R   0.102288 0.236714 0.549935 -0.144346
C26   C     C_R   0.897738 0.763418 0.451052 -0.144241
C27   C     C_R   0.102289 0.763286 0.450055 -0.144346
C28   C     C_R   0.897738 0.236582 0.548943 -0.144241
C29   C     C_R   0.353995 0.499999 0.500000 -0.123839
C30   C     C_R   0.646033 0.500000 0.499999 -0.124138
C31   C     C_R   0.974516 0.365463 0.525199 0.045149
C32   C     C_R   0.025511 0.634511 0.474592 0.045146
C33   C     C_R   0.974516 0.634536 0.474794 0.045149
C34   C     C_R   0.025511 0.365489 0.525399 0.045146
C35   C     C_R   0.949358 0.500000 0.499997 0.067612
C36   C     C_R   0.050669 0.500000 0.499996 0.067641
C37   C     C_R   0.947472 0.234990 0.549436 -0.206846
C38   C     C_R   0.052555 0.764898 0.449697 -0.207014
C39   C     C_R   0.947472 0.765010 0.450558 -0.206846
C40   C     C_R   0.052555 0.235102 0.550294 -0.207014
C41   C     C_1   0.499998 0.065388 0.500023 -0.147830
C42   C     C_1   0.499998 0.934612 0.499977 -0.147830
N3    N     N_1   0.500000 0.500000 0.076820 -0.025669
N4    N     N_1   0.500000 0.500000 0.923180 -0.025669
C43   C     C_1   0.351587 0.351953 0.227181 0.295301
N5    N     N_1   0.370320 0.289606 0.116039 -0.245824
C44   C     C_1   0.648488 0.645275 0.774905 0.296020
N6    N     N_1   0.629779 0.706443 0.886979 -0.246106
C45   C     C_1   0.351586 0.648038 0.772823 0.295301
N7    N     N_1   0.370319 0.710379 0.883971 -0.245824
C46   C     C_1   0.648487 0.354725 0.225094 0.296020
N8    N     N_1   0.629778 0.293557 0.113020 -0.246106
H1    H     H_    0.258197 0.377225 0.264742 0.152540
H2    H     H_    0.741856 0.620465 0.736829 0.152024
H3    H     H_    0.258196 0.622774 0.735253 0.152540
H4    H     H_    0.741856 0.379535 0.263169 0.152024
H5    H     H_    0.121132 0.133735 0.569681 0.186276
H6    H     H_    0.878894 0.866457 0.431789 0.186124
H7    H     H_    0.121132 0.866265 0.430309 0.186276
H8    H     H_    0.878893 0.133543 0.568206 0.186124
H9    H     H_    0.963361 0.128528 0.569509 0.131286
H10   H     H_    0.036666 0.871285 0.429021 0.131541
H11   H     H_    0.963361 0.871472 0.430485 0.131286
H12   H     H_    0.036666 0.128714 0.570968 0.131541

loop_
_geom_bond_atom_site_label_1
_geom_bond_atom_site_label_2
_geom_bond_distance
_ccdc_geom_bond_type
O5    Cu1   1.956442 S    
C10   H4    1.084528 S    
C15   C43   1.445600 S    
C37   H9    1.074814 S    
O3    C2    1.271338 A    
Cu1   N4    1.974695 S    
C11   C17   1.396153 A    
C32   C38   1.417115 A    
Cu2   N3    1.974695 S    
C7    N1    1.367604 A    
O1    C1    1.271566 A    
C19   C21   1.408243 A    
C22   C26   1.394590 A    
C9    C13   1.396470 A    
C7    C23   1.403787 A    
C28   H8    1.083540 S    
C2    C42   1.403795 S    
C5    C21   1.403787 A    
C20   C24   1.408245 A    
O7    Cu1   1.956439 S    
C5    O9    1.349881 S    
C28   C37   1.387632 A    
C10   C18   1.395948 A    
N1    C17   1.434273 S    
C34   C36   1.422386 A    
C9    H3    1.084582 S    
C14   C46   1.445549 S    
C11   H1    1.084582 S    
C6    O10   1.349878 S    
C31   C37   1.417083 A    
C5    N1    1.367606 A    
C12   C18   1.395948 A    
N3    N4    1.193988 T    
C6    N2    1.367533 A    
Cu1   Cu2   2.627954 S    
O4    Cu2   1.932208 S    
O2    C2    1.271566 A    
O5    C3    1.283083 A    
C31   C34   1.422757 A    
C27   H7    1.083582 S    
C26   H6    1.083542 S    
C11   C15   1.396470 A    
C46   N8    1.157543 T    
C12   C16   1.396473 A    
C4    C30   1.483845 S    
O8    Cu2   1.956441 S    
C31   C35   1.422372 A    
C33   C35   1.422371 A    
C33   C39   1.417082 A    
C34   C40   1.417116 A    
C13   C29   1.420316 A    
C19   C23   1.408245 A    
C25   C40   1.387635 A    
C26   C39   1.387632 A    
C39   H11   1.074814 S    
C27   C38   1.387632 A    
C32   C36   1.422386 A    
O6    C4    1.283227 A    
C20   C35   1.423247 A    
C13   C45   1.445601 S    
C32   C33   1.422757 A    
C10   C14   1.396471 A    
C8    N2    1.367533 A    
C3    C29   1.483340 S    
O1    Cu1   1.932375 S    
O6    Cu2   1.956439 S    
C8    O12   1.349879 S    
C16   C30   1.420546 A    
C14   C30   1.420546 A    
C12   H2    1.084526 S    
C16   C44   1.445548 S    
O4    C1    1.271338 A    
O3    Cu1   1.932207 S    
C23   C27   1.394631 A    
C40   H12   1.074876 S    
C1    C41   1.403795 S    
C20   C22   1.408244 A    
C41   C42   1.187448 T    
C21   C25   1.394631 A    
C43   N5    1.157616 T    
O2    Cu2   1.932374 S    
O7    C4    1.283227 A    
N2    C18   1.434119 S    
O8    C3    1.283082 A    
C25   H5    1.083582 S    
C44   N6    1.157543 T    
C24   C28   1.394590 A    
C8    C24   1.403784 A    
C45   N7    1.157615 T    
C15   C29   1.420316 A    
C9    C17   1.396153 A    
C19   C36   1.423247 A    
C6    C22   1.403784 A    
C38   H10   1.074876 S    
C7    O11   1.349880 S    
