data_mof_unit_67437.cif
_audit_creation_date              2012-10-26T19:57:52-0400
_audit_creation_method            fapswitch 2.2
_symmetry_space_group_name_H-M    P1
_symmetry_Int_Tables_number       1
_space_group_crystal_system       triclinic
_cell_length_a                    7.647454
_cell_length_b                    8.75534
_cell_length_c                    13.193852
_cell_angle_alpha                 84.255696
_cell_angle_beta                  80.064403
_cell_angle_gamma                 100.195243
_cell_volume                      848.609319033

loop_
_atom_site_label
_atom_site_type_symbol
_atom_type_description
_atom_site_fract_x
_atom_site_fract_y
_atom_site_fract_z
_atom_type_partial_charge
C1    C     C_R   0.457397 0.201769 0.506284 0.607655
C2    C     C_R   0.691063 0.594227 0.127322 -0.124514
C3    C     C_R   0.598904 0.577794 0.859537 0.022973
C4    C     C_R   0.403838 0.414335 0.140933 0.020195
C5    C     C_R   0.573328 0.556539 0.970548 0.035685
C6    C     C_R   0.429007 0.436200 0.029832 0.037595
C7    C     C_2   0.448258 0.036665 0.530871 0.154012
C8    C     C_2   0.547422 0.962576 0.464041 0.152101
C9    C     C_3   0.216432 0.346619 0.208061 -0.225451
C10   C     C_3   0.099463 0.470843 0.209884 -0.379881
C11   C     C_3   0.788416 0.638419 0.793448 -0.225787
C12   C     C_R   0.542312 0.798174 0.490482 0.615447
C13   C     C_3   0.896137 0.508022 0.794070 -0.408183
C14   C     C_3   0.213158 0.180949 0.010708 -0.289351
C15   C     C_3   0.007017 0.168661 0.030013 -0.434609
C16   C     C_3   0.795532 0.809727 0.987625 -0.290208
C17   C     C_3   0.000976 0.816150 0.969696 -0.438465
C18   C     C_3   0.928115 0.310037 0.589219 -0.064083
C19   C     C_3   0.938403 0.167476 0.532025 -0.314389
C20   C     C_3   0.057561 0.709013 0.456874 -0.034626
C21   C     C_3   0.165674 0.774941 0.348543 -0.382437
C22   C     C_R   0.470089 0.505181 0.699341 0.588407
C23   C     C_R   0.529907 0.493261 0.300897 0.595862
C24   C     C_R   0.543246 0.491620 0.188099 0.039503
C25   C     C_R   0.457570 0.503919 0.812360 0.028515
C26   C     C_R   0.310870 0.348002 0.975353 -0.000016
C27   C     C_R   0.692119 0.644753 0.024673 0.001911
C28   C     C_R   0.310027 0.400562 0.873092 -0.145298
Cu1   Cu    Cu3+1 0.686350 0.517570 0.488220 0.957655
Cu2   Cu    Cu3+1 0.313650 0.482430 0.511780 0.976708
H1    H     H_    0.791561 0.658477 0.164349 0.140978
H2    H     H_    0.937703 0.487927 0.870017 0.140916
H3    H     H_    0.787142 0.692358 0.714517 0.202874
H4    H     H_    0.870647 0.738482 0.815435 0.176231
H5    H     H_    0.967153 0.279807 0.048178 0.174798
H6    H     H_    0.953877 0.139770 0.959658 0.145751
H7    H     H_    0.942461 0.077702 0.096870 0.190850
H8    H     H_    0.252601 0.109985 0.948654 0.178845
H9    H     H_    0.261504 0.124790 0.076841 0.155442
H10   H     H_    0.053533 0.840714 0.040978 0.135545
H11   H     H_    0.069853 0.908291 0.904277 0.210146
H12   H     H_    0.209767 0.336421 0.835803 0.162137
H13   H     H_    0.036442 0.704022 0.949480 0.175837
H14   H     H_    0.750463 0.865882 0.920196 0.154523
H15   H     H_    0.757956 0.883398 0.048287 0.184510
H16   H     H_    0.994830 0.202454 0.448172 0.199141
H17   H     H_    0.020183 0.090774 0.566207 0.166314
H18   H     H_    0.803589 0.092298 0.544280 0.135077
H19   H     H_    0.987382 0.288701 0.659114 0.123518
H20   H     H_    0.788109 0.316472 0.620103 0.161751
H21   H     H_    0.211722 0.903128 0.345113 0.159362
H22   H     H_    0.287623 0.726430 0.327503 0.215122
H23   H     H_    0.002906 0.452317 0.284825 0.220457
H24   H     H_    0.076173 0.758213 0.291150 0.101265
H25   H     H_    0.970822 0.791191 0.466931 0.137219
H26   H     H_    0.106898 0.739586 0.526364 0.185268
H27   H     H_    0.466523 0.157550 0.739819 0.326164
H28   H     H_    0.796149 0.878193 0.274899 0.335548
H29   H     H_    0.185331 0.589273 0.197549 0.137905
H30   H     H_    0.022240 0.466038 0.146324 0.143420
H31   H     H_    0.139123 0.242449 0.187133 0.168115
H32   H     H_    0.224302 0.296041 0.286671 0.192427
H33   H     H_    0.812547 0.396679 0.782358 0.127823
H34   H     H_    0.018555 0.541746 0.732184 0.208439
N1    N     N_2   0.033570 0.455950 0.529530 -0.163408
N2    N     N_2   0.966430 0.544050 0.470470 -0.155187
O1    O     O_R   0.621060 0.286250 0.492350 -0.503661
O2    O     O_2   0.498118 0.872709 0.704763 -0.343850
O3    O     O_3   0.341989 0.108750 0.734240 -0.557815
O4    O     O_2   0.493542 0.115571 0.287979 -0.325576
O5    O     O_2   0.801415 0.161912 0.319581 -0.343486
O6    O     O_3   0.677250 0.896294 0.261886 -0.566314
O7    O     O_R   0.378940 0.713750 0.507650 -0.508268
O8    O     O_R   0.306310 0.256580 0.512240 -0.509141
O9    O     O_R   0.693690 0.743420 0.487760 -0.539993
O10   O     O_R   0.631800 0.512400 0.642670 -0.553443
O11   O     O_R   0.368200 0.487600 0.357330 -0.535193
O12   O     O_R   0.317060 0.482730 0.662570 -0.498244
O13   O     O_R   0.682940 0.517270 0.337430 -0.498573
O14   O     O_2   0.186818 0.853021 0.678282 -0.326630
S1    S     S_3+6 0.367230 0.961031 0.664396 -0.058933
S2    S     S_3+6 0.631876 0.040465 0.331103 -0.062929

loop_
_geom_bond_atom_site_label_1
_geom_bond_atom_site_label_2
_ccdc_geom_bond_type
C13   H2    S    
C22   O10   A    
C20   H26   S    
C19   H16   S    
C7    C8    D    
Cu1   O10   S    
C18   N1    S    
C5    C6    A    
C9    H31   S    
C1    O8    A    
C20   N2    S    
C21   H24   S    
C4    C24   A    
C19   H17   S    
C18   C19   S    
C10   H23   S    
C15   H7    S    
C14   H9    S    
Cu1   O1    S    
Cu2   O11   S    
C16   C17   S    
C22   C25   S    
C13   H33   S    
C23   C24   S    
C2    C27   A    
C9    C10   S    
C16   H14   S    
O5    S2    D    
C16   C27   S    
C5    C27   A    
C12   O7    A    
C20   H25   S    
C15   H5    S    
C9    H32   S    
C11   H3    S    
C3    C11   S    
C22   O12   A    
C4    C6    A    
Cu2   O7    S    
C19   H18   S    
C23   O11   A    
C2    H1    S    
C25   C28   A    
C17   H10   S    
C10   H30   S    
C17   H13   S    
Cu1   Cu2   S    
C14   H8    S    
Cu1   O13   S    
C3    C25   A    
C8    C12   S    
C14   C26   S    
C7    S1    S    
C2    C24   A    
C8    S2    S    
O2    S1    D    
C15   H6    S    
C21   H21   S    
C18   H20   S    
C1    C7    S    
C11   H4    S    
O14   S1    D    
C3    C5    A    
C16   H15   S    
Cu1   O9    S    
C26   C28   A    
H27   O3    S    
C10   H29   S    
C11   C13   S    
H28   O6    S    
C6    C26   A    
C13   H34   S    
Cu2   O8    S    
C28   H12   S    
C1    O1    A    
O4    S2    D    
C17   H11   S    
Cu2   N1    S    
O3    S1    S    
Cu1   N2    S    
Cu2   O12   S    
C20   C21   S    
N1    N2    D    
C12   O9    A    
C14   C15   S    
C23   O13   A    
C4    C9    S    
C21   H22   S    
O6    S2    S    
C18   H19   S    
