data_mof_unit_6576.cif
_audit_creation_date              2013-03-05T15:56:44-0500
_audit_creation_method            fapswitch 2.2
_symmetry_space_group_name_H-M    P1
_symmetry_Int_Tables_number       1
_space_group_crystal_system       triclinic
_cell_length_a                    21.069967
_cell_length_b                    21.71732
_cell_length_c                    13.847064
_cell_angle_alpha                 91.642051
_cell_angle_beta                  93.787452
_cell_angle_gamma                 90.417848
_cell_volume                      6319.48132611

loop_
_atom_site_label
_atom_site_type_symbol
_atom_site_description
_atom_site_fract_x
_atom_site_fract_y
_atom_site_fract_z
_atom_type_partial_charge
O1    O     O_R   0.064880 0.435140 0.582280 -0.561972
O2    O     O_R   0.935120 0.564860 0.417720 -0.534619
O3    O     O_R   0.935120 0.564860 0.582280 -0.515254
O4    O     O_R   0.064880 0.435140 0.417720 -0.604412
O5    O     O_R   0.935120 0.435140 0.417720 -0.516511
O6    O     O_R   0.064880 0.564860 0.582280 -0.630248
O7    O     O_R   0.064880 0.564860 0.417720 -0.520409
O8    O     O_R   0.935120 0.435140 0.582280 -0.510295
O9    O     O_R   0.564880 0.935140 0.582280 -0.516719
O10   O     O_R   0.435120 0.064860 0.417720 -0.598873
O11   O     O_R   0.435120 0.064860 0.582280 -0.509703
O12   O     O_R   0.564880 0.935140 0.417720 -0.508712
O13   O     O_R   0.435120 0.935140 0.417720 -0.600273
O14   O     O_R   0.564880 0.064860 0.582280 -0.510325
O15   O     O_R   0.564880 0.064860 0.417720 -0.521990
O16   O     O_R   0.435120 0.935140 0.582280 -0.526852
C1    C     C_R   0.085752 0.414593 0.500422 0.863270
C2    C     C_R   0.914404 0.586294 0.499061 0.832732
C3    C     C_R   0.913717 0.414863 0.497117 0.912579
C4    C     C_R   0.084464 0.587548 0.503073 0.832174
C5    C     C_R   0.585256 0.914095 0.501149 0.885885
C6    C     C_R   0.414945 0.086258 0.500225 0.826224
C7    C     C_R   0.417627 0.910709 0.497005 0.827776
C8    C     C_R   0.587182 0.084921 0.503035 0.868344
Cu1   Cu    Cu3+1 0.000000 0.500000 0.597420 1.084257
Cu2   Cu    Cu3+1 0.000000 0.500000 0.402580 1.090578
Cu3   Cu    Cu3+1 0.500000 0.000000 0.597420 1.133752
Cu4   Cu    Cu3+1 0.500000 1.000000 0.402580 1.086227
C9    C     C_R   0.138182 0.676149 0.429421 -0.037718
C10   C     C_R   0.879398 0.304699 0.484466 -0.033432
C11   C     C_R   0.857039 0.671725 0.581629 -0.036140
C12   C     C_R   0.123260 0.310947 0.445085 -0.053558
C13   C     C_R   0.629173 0.192036 0.539641 -0.091038
C14   C     C_R   0.385183 0.808927 0.566106 -0.031099
C15   C     C_R   0.372218 0.183508 0.572217 -0.045756
C16   C     C_R   0.618178 0.811396 0.437916 -0.053205
C17   C     C_R   0.133449 0.637577 0.508752 -0.182388
C18   C     C_R   0.863289 0.367384 0.489555 -0.178812
C19   C     C_R   0.862795 0.633339 0.498569 -0.214294
C20   C     C_R   0.134352 0.365846 0.500695 -0.156420
C21   C     C_R   0.639890 0.131112 0.508027 -0.172225
C22   C     C_R   0.380204 0.851367 0.489581 -0.197371
C23   C     C_R   0.364046 0.132901 0.505602 -0.199089
C24   C     C_R   0.629694 0.861934 0.503612 -0.165795
C25   C     C_R   0.179079 0.643601 0.588551 -0.102161
C26   C     C_R   0.798573 0.384611 0.481882 -0.065029
C27   C     C_R   0.817507 0.637777 0.418639 -0.095584
C28   C     C_R   0.193151 0.375878 0.553229 -0.058450
C29   C     C_R   0.699476 0.116330 0.471803 -0.043166
C30   C     C_R   0.340946 0.835464 0.405178 -0.042031
C31   C     C_R   0.304143 0.122449 0.456441 -0.035166
C32   C     C_R   0.681057 0.859357 0.574881 -0.050279
C33   C     C_R   0.237488 0.675675 0.578309 -0.029126
C34   C     C_R   0.750025 0.338057 0.481510 -0.012805
C35   C     C_R   0.762717 0.675242 0.425035 -0.015907
C36   C     C_R   0.236377 0.326203 0.567167 -0.017324
C37   C     C_R   0.743417 0.164583 0.453073 -0.024597
C38   C     C_R   0.302153 0.782001 0.401537 0.003677
C39   C     C_R   0.253608 0.164364 0.469035 -0.003869
C40   C     C_R   0.712157 0.802571 0.587855 0.003768
C41   C     C_R   0.244564 0.708176 0.492566 0.066212
C42   C     C_R   0.768298 0.275763 0.465894 0.053628
C43   C     C_R   0.758383 0.713885 0.508343 0.081129
C44   C     C_R   0.221429 0.268583 0.518366 0.073253
C45   C     C_R   0.724491 0.226695 0.469729 0.054428
C46   C     C_R   0.296520 0.749102 0.486619 0.065988
C47   C     C_R   0.266168 0.220150 0.522350 0.056180
C48   C     C_R   0.711576 0.760073 0.509077 0.054319
C49   C     C_R   0.197487 0.703643 0.414736 -0.000124
C50   C     C_R   0.831850 0.261765 0.452197 0.019968
C51   C     C_R   0.802413 0.708684 0.589837 -0.015748
C52   C     C_R   0.163591 0.260035 0.461079 -0.020106
C53   C     C_R   0.663591 0.239623 0.499493 0.020572
C54   C     C_R   0.342398 0.757460 0.565232 0.001713
C55   C     C_R   0.322657 0.226672 0.582013 0.004319
C56   C     C_R   0.665475 0.765440 0.430747 -0.010550
C57   C     C_R   0.290550 0.674230 0.647781 -0.111214
C58   C     C_R   0.684408 0.350312 0.494059 -0.095195
C59   C     C_R   0.712927 0.676930 0.349776 -0.115894
C60   C     C_R   0.291710 0.329812 0.632630 -0.106380
C61   C     C_R   0.804053 0.154467 0.413984 -0.091426
C62   C     C_R   0.266902 0.761353 0.315437 -0.108706
C63   C     C_R   0.190017 0.151300 0.434082 -0.072798
C64   C     C_R   0.743872 0.787336 0.677041 -0.060730
C65   C     C_R   0.846479 0.204964 0.407715 -0.086196
C66   C     C_R   0.212197 0.724472 0.322650 -0.058025
C67   C     C_R   0.145788 0.199535 0.427021 -0.071116
C68   C     C_R   0.789659 0.740141 0.678067 -0.106992
C69   C     C_R   0.344067 0.713064 0.638726 -0.075877
C70   C     C_R   0.640969 0.300645 0.498214 -0.064868
C71   C     C_R   0.666849 0.723716 0.350276 -0.087659
C72   C     C_R   0.328236 0.276858 0.649628 -0.084115
C73   C     C_R   0.055621 0.492439 0.799703 0.464295
C74   C     C_R   0.944552 0.487443 0.201506 0.491729
C75   C     C_R   0.943577 0.502825 0.787238 0.562749
C76   C     C_R   0.055586 0.506442 0.211069 0.494507
C77   C     C_R   0.556070 0.006972 0.798156 0.508018
C78   C     C_R   0.443583 0.000531 0.198603 0.502417
C79   C     C_R   0.443799 0.998244 0.786145 0.536400
C80   C     C_R   0.556200 0.999889 0.212146 0.566673
N1    N     N_R   0.000000 0.500000 0.743810 -0.257501
N2    N     N_R   0.000000 0.500000 0.256190 -0.233114
N3    N     N_R   0.500000 1.000000 0.743810 -0.213440
N4    N     N_R   0.500000 0.000000 0.256190 -0.248971
C81   C     C_R   0.941257 0.495316 0.889994 -0.163192
C82   C     C_R   0.057005 0.498479 0.108988 -0.095840
C83   C     C_R   0.057231 0.493109 0.902803 -0.070435
C84   C     C_R   0.941331 0.490872 0.097597 -0.170877
C85   C     C_R   0.442363 0.994381 0.888784 -0.170369
C86   C     C_R   0.557443 0.006790 0.109121 -0.161549
C87   C     C_R   0.558312 0.007000 0.901912 -0.152612
C88   C     C_R   0.442489 0.994843 0.095521 -0.070658
C89   C     C_R   0.999118 0.495282 0.948186 0.022856
C90   C     C_R   0.999023 0.495352 0.051455 0.029497
C91   C     C_R   0.500321 0.000327 0.947097 0.041442
C92   C     C_R   0.500178 0.000048 0.050426 0.020357
C93   C     C_R   0.883366 0.487028 0.935877 -0.094951
C94   C     C_R   0.115115 0.492392 0.063676 -0.106973
C95   C     C_R   0.115319 0.490011 0.961758 -0.094595
C96   C     C_R   0.883163 0.487496 0.038513 -0.079821
C97   C     C_R   0.385132 0.983683 0.934133 -0.106860
C98   C     C_R   0.614095 0.020625 0.063907 -0.111364
C99   C     C_R   0.615776 0.015491 0.961660 -0.073975
C100  C     C_R   0.385077 0.984533 0.036211 -0.019891
C101  C     C_2   0.079060 0.702083 0.379783 0.876722
O17   O     O_2   0.028932 0.673190 0.372390 -0.551810
O18   O     O_R   0.080202 0.762372 0.346766 -0.710885
H1    H     H_    0.037612 0.775523 0.316042 0.373437
C102  C     C_2   0.939111 0.281488 0.534486 0.887497
O19   O     O_2   0.986572 0.314030 0.547260 -0.579739
O20   O     O_R   0.938644 0.223331 0.575296 -0.724937
H2    H     H_    0.979107 0.214822 0.616292 0.381301
C103  C     C_2   0.915067 0.685623 0.645899 0.877429
O21   O     O_2   0.929524 0.653363 0.714740 -0.567436
O22   O     O_R   0.952685 0.736593 0.627212 -0.706760
H3    H     H_    0.990843 0.741814 0.675386 0.373904
C104  C     C_2   0.078542 0.311047 0.357386 0.874569
O23   O     O_2   0.022665 0.323989 0.363490 -0.556203
O24   O     O_R   0.101317 0.296488 0.267020 -0.690396
H4    H     H_    0.066978 0.298476 0.212373 0.354240
C105  C     C_2   0.606777 0.204193 0.638787 0.853820
O25   O     O_2   0.583501 0.163169 0.683612 -0.551912
O26   O     O_R   0.618531 0.261564 0.685631 -0.733152
H5    H     H_    0.604023 0.263324 0.754031 0.362099
C106  C     C_2   0.432672 0.821082 0.648675 0.893013
O27   O     O_2   0.489432 0.821453 0.634982 -0.556270
O28   O     O_R   0.412403 0.832765 0.741391 -0.684345
H6    H     H_    0.449139 0.841242 0.791160 0.350711
C107  C     C_2   0.435103 0.196811 0.622636 0.823359
O29   O     O_2   0.456049 0.163660 0.686819 -0.518659
O30   O     O_R   0.464939 0.252750 0.606683 -0.744916
H7    H     H_    0.498323 0.264453 0.659894 0.371859
C108  C     C_2   0.553231 0.801429 0.390836 0.843019
O31   O     O_2   0.519173 0.761131 0.420100 -0.517595
O32   O     O_R   0.531769 0.836419 0.312219 -0.705317
H8    H     H_    0.487144 0.824367 0.286356 0.367096
C109  C     C_2   0.156275 0.634681 0.686126 0.899633
O33   O     O_2   0.174497 0.591478 0.734501 -0.538819
O34   O     O_R   0.111163 0.675126 0.720714 -0.725768
H9    H     H_    0.097693 0.663934 0.786995 0.354967
C110  C     C_2   0.783803 0.450740 0.474170 0.852784
O35   O     O_2   0.757506 0.469375 0.399508 -0.505217
O36   O     O_R   0.799188 0.491267 0.552490 -0.693804
H10   H     H_    0.783115 0.534407 0.540561 0.342579
C111  C     C_2   0.833463 0.611652 0.324142 0.932460
O37   O     O_2   0.822249 0.557489 0.304429 -0.482227
O38   O     O_R   0.861610 0.649093 0.258263 -0.695339
H11   H     H_    0.871652 0.625730 0.196799 0.360680
C112  C     C_2   0.212263 0.441054 0.573123 0.838747
O39   O     O_2   0.211825 0.463543 0.654729 -0.516541
O40   O     O_R   0.227744 0.477403 0.496235 -0.733298
H12   H     H_    0.238066 0.521610 0.517409 0.364429
C113  C     C_2   0.719953 0.051403 0.476261 0.878534
O41   O     O_2   0.690895 0.011095 0.428204 -0.538869
O42   O     O_R   0.773574 0.036695 0.535682 -0.714526
H13   H     H_    0.787905 0.992857 0.523893 0.356547
C114  C     C_2   0.330721 0.879114 0.326554 0.905508
O43   O     O_2   0.370918 0.884763 0.267754 -0.562080
O44   O     O_R   0.271856 0.907973 0.314136 -0.694526
H14   H     H_    0.267965 0.933518 0.254307 0.356736
C115  C     C_2   0.295332 0.069270 0.388394 0.868892
O45   O     O_2   0.303932 0.017123 0.417177 -0.578485
O46   O     O_R   0.273218 0.079062 0.292919 -0.680463
H15   H     H_    0.261232 0.039222 0.256894 0.368639
C116  C     C_2   0.710380 0.915868 0.624711 0.875259
O47   O     O_2   0.681655 0.964221 0.627941 -0.521124
O48   O     O_R   0.773480 0.914500 0.663289 -0.740102
H16   H     H_    0.788549 0.955385 0.694100 0.365622
C117  C     C_2   0.296847 0.624614 0.718455 0.927323
O49   O     O_2   0.296066 0.636841 0.805140 -0.483236
O50   O     O_R   0.305752 0.564183 0.685437 -0.699867
H17   H     H_    0.312321 0.534676 0.740403 0.359329
C118  C     C_2   0.660211 0.413328 0.509922 0.930018
O51   O     O_2   0.669995 0.439432 0.588983 -0.516247
O52   O     O_R   0.624609 0.441821 0.435320 -0.689932
H18   H     H_    0.610493 0.484658 0.454917 0.373845
C119  C     C_2   0.704153 0.627256 0.274062 0.919985
O53   O     O_2   0.710833 0.638382 0.189210 -0.507234
O54   O     O_R   0.687023 0.568089 0.300357 -0.671793
H19   H     H_    0.682150 0.538115 0.242802 0.379536
C120  C     C_2   0.312098 0.386230 0.688389 0.952776
O55   O     O_2   0.346434 0.423697 0.652459 -0.513863
O56   O     O_R   0.295753 0.394282 0.783980 -0.665544
H20   H     H_    0.315919 0.432624 0.816631 0.342769
C121  C     C_2   0.823439 0.093269 0.376371 0.925010
O57   O     O_2   0.870952 0.068704 0.412772 -0.493878
O58   O     O_R   0.787768 0.063791 0.299902 -0.734704
H21   H     H_    0.805665 0.022129 0.281843 0.379717
C122  C     C_2   0.293864 0.769264 0.219746 0.911131
O59   O     O_2   0.261608 0.790126 0.151940 -0.468191
O60   O     O_R   0.357469 0.754236 0.208883 -0.714093
H22   H     H_    0.371102 0.762412 0.141533 0.370368
C123  C     C_2   0.166491 0.086393 0.421363 0.887603
O61   O     O_2   0.136458 0.069371 0.346627 -0.502303
O62   O     O_R   0.178920 0.045071 0.495735 -0.703840
H23   H     H_    0.161046 0.002363 0.478803 0.371393
C124  C     C_2   0.721534 0.814999 0.768800 0.910186
O63   O     O_2   0.759411 0.830312 0.835986 -0.485764
O64   O     O_R   0.656512 0.824945 0.776600 -0.725454
H24   H     H_    0.646885 0.844584 0.841252 0.367721
C125  C     C_2   0.897396 0.204726 0.336882 0.865639
O65   O     O_2   0.921737 0.156932 0.309840 -0.514546
O66   O     O_R   0.914083 0.259967 0.295283 -0.716757
H25   H     H_    0.946081 0.253954 0.244330 0.370160
C126  C     C_2   0.175530 0.700534 0.233728 0.893472
O67   O     O_2   0.151194 0.736136 0.175632 -0.485516
O68   O     O_R   0.167453 0.637083 0.218352 -0.689254
H26   H     H_    0.141244 0.626394 0.155992 0.358888
C127  C     C_2   0.078236 0.182624 0.404277 0.890611
O69   O     O_2   0.057022 0.177398 0.320112 -0.484697
O70   O     O_R   0.041403 0.166402 0.479774 -0.736008
H27   H     H_    0.998534 0.148467 0.456193 0.386901
C128  C     C_2   0.816315 0.717107 0.771958 0.902517
O71   O     O_2   0.852726 0.749362 0.824357 -0.484716
O72   O     O_R   0.801171 0.657401 0.798373 -0.724094
H28   H     H_    0.822830 0.646255 0.863014 0.361163
C129  C     C_2   0.404977 0.699053 0.694256 0.872668
O73   O     O_2   0.408087 0.699757 0.782779 -0.507157
O74   O     O_R   0.458846 0.685328 0.644174 -0.694691
H29   H     H_    0.497570 0.677066 0.689190 0.364720
C130  C     C_2   0.570921 0.310803 0.493032 0.924583
O75   O     O_2   0.547869 0.352375 0.540398 -0.502306
O76   O     O_R   0.531454 0.272268 0.432271 -0.736656
H30   H     H_    0.485174 0.284876 0.430576 0.371146
C131  C     C_2   0.624740 0.731754 0.261307 0.902543
O77   O     O_2   0.631484 0.776931 0.212141 -0.526256
O78   O     O_R   0.578144 0.687393 0.233645 -0.698391
H31   H     H_    0.552526 0.698100 0.171943 0.363265
C132  C     C_2   0.364212 0.270198 0.745384 0.908932
O79   O     O_2   0.402306 0.309751 0.777075 -0.537049
O80   O     O_R   0.354597 0.217434 0.798304 -0.709878
H32   H     H_    0.381833 0.217362 0.861457 0.360860
O81   O     O_3   0.110772 0.481795 0.756175 -0.647798
H33   H     H_    0.107878 0.503214 0.695240 0.394511
O82   O     O_3   0.893587 0.467456 0.248765 -0.635273
H34   H     H_    0.880205 0.427361 0.217612 0.336434
O83   O     O_3   0.889688 0.513796 0.729264 -0.618489
H35   H     H_    0.865835 0.546393 0.762448 0.340106
O84   O     O_3   0.110536 0.523759 0.263773 -0.668395
H36   H     H_    0.118648 0.492746 0.313428 0.369515
O85   O     O_3   0.609107 0.018388 0.749749 -0.625783
H37   H     H_    0.621955 0.061422 0.767731 0.348210
O86   O     O_3   0.386657 0.010559 0.238392 -0.713008
H38   H     H_    0.390772 0.997764 0.305200 0.392749
O87   O     O_3   0.389394 0.004161 0.727008 -0.646576
H39   H     H_    0.365806 0.039329 0.754027 0.333305
O88   O     O_3   0.610949 0.990975 0.269232 -0.615193
H40   H     H_    0.638890 0.963844 0.232303 0.331199
C133  C     C_2   0.823097 0.471299 0.877949 0.900861
O89   O     O_2   0.820666 0.426036 0.823149 -0.496717
O90   O     O_R   0.769513 0.508219 0.886069 -0.715112
H41   H     H_    0.731703 0.492846 0.842727 0.377096
C134  C     C_2   0.175504 0.479821 0.121684 0.939550
O91   O     O_2   0.220758 0.515311 0.120608 -0.508424
O92   O     O_R   0.179967 0.427179 0.177478 -0.723966
H42   H     H_    0.222913 0.423692 0.214376 0.363057
C135  C     C_2   0.177614 0.481716 0.919892 1.009872
O93   O     O_2   0.194089 0.430198 0.894723 -0.498038
O94   O     O_R   0.218082 0.532424 0.913455 -0.653791
H43   H     H_    0.260357 0.520625 0.887848 0.348141
C136  C     C_2   0.820695 0.486610 0.081563 0.941369
O95   O     O_2   0.797328 0.534890 0.108552 -0.506595
O96   O     O_R   0.787301 0.431035 0.086091 -0.734126
H44   H     H_    0.744931 0.436505 0.115823 0.362371
C137  C     C_2   0.325361 0.965712 0.876219 0.902933
O97   O     O_2   0.278549 0.998577 0.878132 -0.522354
O98   O     O_R   0.323016 0.911244 0.819945 -0.662628
H45   H     H_    0.280127 0.904127 0.783557 0.364331
C138  C     C_2   0.668556 0.050157 0.121828 0.933728
O99   O     O_2   0.722378 0.030106 0.117286 -0.526034
O100  O     O_R   0.657386 0.101570 0.181311 -0.702921
H46   H     H_    0.697758 0.120260 0.213795 0.370861
C139  C     C_2   0.678536 0.018196 0.919480 0.930577
O101  O     O_2   0.707849 0.067041 0.919520 -0.542061
O102  O     O_R   0.703866 0.964581 0.879942 -0.691183
H47   H     H_    0.747299 0.971867 0.854819 0.366629
C140  C     C_2   0.324735 0.966824 0.077002 0.945142
O103  O     O_2   0.314409 0.912727 0.092535 -0.533011
O104  O     O_R   0.276998 0.010552 0.085144 -0.681993
H48   H     H_    0.235471 0.991623 0.103346 0.347306

loop_
_geom_bond_atom_site_label_1
_geom_bond_atom_site_label_2
_geom_bond_distance
_ccdc_geom_bond_type
C79   N3    1.356346 A    
O56   H20   1.013029 S    
C71   C131  1.485115 S    
C80   C86   1.440645 A    
C111  O37   1.217774 D    
C59   C119  1.484513 S    
C9    C101  1.503582 S    
O5    Cu2   1.980785 S    
O2    C2    1.309082 A    
C112  O40   1.397627 S    
C120  O55   1.222762 D    
C84   C96   1.428148 A    
C63   C67   1.408323 A    
O36   H10   1.012834 S    
C14   C22   1.423397 A    
C88   C92   1.407995 A    
C2    C19   1.497322 S    
C85   C97   1.416562 A    
C82   C90   1.413839 A    
C29   C113  1.479373 S    
C110  O35   1.221146 D    
O15   Cu4   1.952928 S    
O72   H28   1.013954 S    
C29   C37   1.433776 A    
O22   H3    1.013756 S    
C12   C52   1.412997 A    
C72   C132  1.494458 S    
C113  O41   1.220220 D    
O10   C6    1.318513 A    
C102  O20   1.398598 S    
C68   C128  1.483536 S    
C104  O24   1.398168 S    
C74   C84   1.440039 A    
C132  O79   1.223303 D    
C109  O33   1.218090 D    
C7    C22   1.503343 S    
O12   Cu4   1.975843 S    
C107  O29   1.221665 D    
C54   C69   1.420752 A    
C81   C89   1.416277 A    
O74   H29   1.013797 S    
C39   C63   1.418048 A    
C53   C70   1.411810 A    
C88   C100  1.429043 A    
C76   N2    1.371468 A    
C105  O26   1.400861 S    
O34   H9    1.013989 S    
O81   H33   0.973739 S    
C77   C87   1.434352 A    
C14   C106  1.485202 S    
C73   O81   1.362191 S    
C116  O48   1.400529 S    
O6    Cu1   1.980782 S    
C41   C49   1.416437 A    
O26   H5    1.014067 S    
C46   C54   1.414010 A    
C112  O39   1.218742 D    
O82   H34   0.991277 S    
C80   N4    1.367294 A    
C45   C53   1.401320 A    
O13   C7    1.306391 A    
C137  O97   1.222952 D    
C20   C28   1.406923 A    
C130  O75   1.223010 D    
C140  O103  1.220977 D    
O14   C8    1.306612 A    
C119  O54   1.396924 S    
C94   C95   1.411029 A    
C83   C89   1.413238 A    
C97   C100  1.413162 A    
C76   C82   1.421447 A    
C32   C40   1.411189 A    
O28   H6    1.013947 S    
C10   C50   1.405748 A    
C33   C41   1.414203 A    
C41   C46   1.413161 A    
C38   C46   1.406425 A    
C100  C140  1.477695 S    
O66   H25   1.014022 S    
C11   C19   1.413305 A    
C114  O44   1.396442 S    
C26   C110  1.477058 S    
C35   C43   1.415246 A    
O102  H47   1.013226 S    
C5    C24   1.474619 S    
O30   H7    1.010186 S    
C36   C44   1.428073 A    
O13   Cu4   1.980785 S    
C134  O92   1.398316 S    
O11   Cu3   1.975842 S    
O14   Cu3   1.980782 S    
C108  O32   1.397995 S    
C16   C56   1.421589 A    
C128  O71   1.222780 D    
C124  O64   1.399220 S    
C59   C71   1.410633 A    
C77   O85   1.365269 S    
C140  O104  1.396070 S    
C62   C122  1.489648 S    
C39   C47   1.414600 A    
C24   C32   1.418164 A    
O16   Cu3   1.952931 S    
C123  O62   1.398299 S    
O90   H41   1.013792 S    
C27   C35   1.423235 A    
C25   C33   1.426928 A    
O54   H19   1.013866 S    
C111  O38   1.397146 S    
C107  O30   1.393716 S    
C133  O89   1.223149 D    
C82   C94   1.417506 A    
C57   C117  1.477066 S    
O1    Cu1   1.986411 S    
O8    Cu1   1.952931 S    
C120  O56   1.396093 S    
C42   C50   1.399140 A    
C81   C93   1.424635 A    
C119  O53   1.223242 D    
C98   C138  1.486449 S    
C8    C21   1.487961 S    
Cu1   N1    2.027072 S    
C78   O86   1.368889 S    
C83   C95   1.428727 A    
O3    C2    1.304738 A    
C110  O36   1.396631 S    
C127  O69   1.222195 D    
C16   C108  1.488023 S    
C106  O27   1.223173 D    
O32   H8    1.013588 S    
C9    C49   1.410298 A    
C121  O58   1.394598 S    
C87   C91   1.417417 A    
C129  O74   1.398255 S    
C126  O68   1.395759 S    
C132  O80   1.398389 S    
O8    C3    1.298082 A    
C78   C88   1.427837 A    
C106  O28   1.396564 S    
C87   C99   1.428317 A    
O58   H21   1.013834 S    
C30   C38   1.412832 A    
C44   C47   1.417370 A    
C69   C129  1.489835 S    
O86   H38   0.972107 S    
C30   C114  1.470199 S    
C25   C109  1.480981 S    
C38   C62   1.421847 A    
O80   H32   1.013822 S    
C73   C83   1.425440 A    
C93   C96   1.421233 A    
C73   N1    1.374643 A    
O38   H11   1.013501 S    
C133  O90   1.398220 S    
C34   C42   1.423747 A    
C13   C105  1.497930 S    
C136  O95   1.220994 D    
C115  O45   1.222102 D    
C19   C27   1.418709 A    
O12   C5    1.302079 A    
O7    C4    1.307337 A    
C58   C70   1.414408 A    
O50   H17   1.012137 S    
C130  O76   1.398868 S    
C1    C20   1.478132 S    
C64   C68   1.412395 A    
C60   C72   1.405246 A    
C33   C57   1.427065 A    
O104  H48   1.013855 S    
O60   H22   1.013866 S    
C139  O101  1.223561 D    
C3    C18   1.471829 S    
C6    C23   1.484526 S    
C125  O65   1.221255 D    
C35   C59   1.430463 A    
Cu4   N4    2.027072 S    
C93   C133  1.488651 S    
O68   H26   1.013959 S    
C123  O61   1.223195 D    
O94   H43   1.012230 S    
C78   N4    1.387259 A    
C57   C69   1.417514 A    
C26   C34   1.432632 A    
O83   H35   0.990927 S    
C118  O52   1.397779 S    
C122  O59   1.222012 D    
C63   C123  1.492572 S    
O46   H15   1.008284 S    
O2    Cu2   1.986411 S    
Cu1   Cu2   2.697961 S    
C97   C137  1.490957 S    
C48   C56   1.415371 A    
C67   C127  1.478659 S    
C51   C68   1.424703 A    
C128  O72   1.397666 S    
O40   H12   1.013592 S    
C40   C48   1.407949 A    
C77   N3    1.363206 A    
C113  O42   1.397485 S    
C55   C72   1.415431 A    
C22   C30   1.419304 A    
O4    C1    1.292119 A    
C13   C53   1.406512 A    
C96   C136  1.480568 S    
O70   H27   1.011328 S    
O92   H42   1.013769 S    
C14   C54   1.430095 A    
C114  O43   1.220903 D    
O16   C7    1.309740 A    
C12   C20   1.410173 A    
C131  O78   1.397897 S    
O98   H45   1.013771 S    
C101  O17   1.221524 D    
C127  O70   1.394136 S    
C135  O93   1.221902 D    
C37   C61   1.436006 A    
C16   C24   1.414488 A    
C109  O34   1.397352 S    
C47   C55   1.407181 A    
C32   C116  1.499375 S    
C17   C25   1.418421 A    
O84   H36   0.984014 S    
C99   C139  1.481921 S    
C86   C92   1.413817 A    
O64   H24   1.013843 S    
C52   C67   1.422455 A    
C15   C23   1.416544 A    
O9    Cu3   1.986411 S    
C61   C121  1.483531 S    
C89   C90   1.430055 A    
O87   H39   0.991979 S    
O10   Cu4   1.986411 S    
C28   C36   1.426040 A    
C60   C120  1.475201 S    
C121  O57   1.223687 D    
C43   C48   1.412108 A    
C79   O87   1.373047 S    
C42   C45   1.409158 A    
C126  O67   1.222626 D    
C10   C102  1.493620 S    
C15   C55   1.418892 A    
C131  O77   1.222829 D    
C31   C115  1.472250 S    
O20   H2    1.013726 S    
C95   C135  1.479631 S    
O4    Cu2   1.975843 S    
O24   H4    1.013882 S    
O100  H46   1.012229 S    
C98   C99   1.419809 A    
O18   H1    1.013959 S    
O5    C3    1.302434 A    
C80   O88   1.372809 S    
O44   H14   1.009379 S    
C136  O96   1.397654 S    
C21   C29   1.418004 A    
O6    C4    1.305281 A    
C104  O23   1.220172 D    
O11   C6    1.287231 A    
O1    C1    1.310361 A    
C36   C60   1.429009 A    
C91   C92   1.431195 A    
C125  O66   1.398176 S    
O88   H40   0.991360 S    
C84   C90   1.414119 A    
O96   H44   1.013846 S    
C79   C85   1.428412 A    
C135  O94   1.396300 S    
C11   C103  1.487761 S    
C102  O19   1.220620 D    
C13   C21   1.406227 A    
C12   C104  1.487109 S    
C139  O102  1.396940 S    
O42   H13   1.012925 S    
C62   C66   1.409397 A    
C74   O82   1.368256 S    
C86   C98   1.418220 A    
O15   C8    1.304008 A    
C4    C17   1.489966 S    
C40   C64   1.413770 A    
O9    C5    1.300936 A    
C116  O47   1.217028 D    
C103  O21   1.222835 D    
O7    Cu2   1.952928 S    
C23   C31   1.407626 A    
C76   O84   1.371430 S    
C27   C111  1.471556 S    
C129  O73   1.222857 D    
C124  O63   1.222013 D    
Cu3   N3    2.027072 S    
C122  O60   1.398341 S    
C34   C58   1.430710 A    
C75   C81   1.440805 A    
C44   C52   1.417519 A    
O62   H23   1.013819 S    
C117  O49   1.223094 D    
C75   O83   1.372927 S    
C61   C65   1.417991 A    
C18   C26   1.414609 A    
C64   C124  1.495400 S    
C85   C91   1.421763 A    
C56   C71   1.417869 A    
O52   H18   1.013801 S    
C66   C126  1.488294 S    
C75   N1    1.368245 A    
C115  O46   1.395097 S    
O3    Cu1   1.975842 S    
C31   C39   1.422106 A    
C74   N2    1.370861 A    
C137  O98   1.396472 S    
C118  O51   1.222839 D    
C70   C130  1.491221 S    
C9    C17   1.408666 A    
Cu3   Cu4   2.697961 S    
C101  O18   1.399711 S    
C103  O22   1.396861 S    
O85   H37   0.991362 S    
C138  O99   1.222565 D    
C138  O100  1.399009 S    
O48   H16   1.013658 S    
C28   C112  1.481965 S    
C15   C107  1.478886 S    
C10   C18   1.406352 A    
C117  O50   1.395424 S    
C108  O31   1.222570 D    
C105  O25   1.218641 D    
C50   C65   1.408235 A    
C65   C125  1.500599 S    
C43   C51   1.420327 A    
C58   C118  1.479459 S    
C94   C134  1.490414 S    
Cu2   N2    2.027072 S    
C49   C66   1.417694 A    
O76   H30   1.013712 S    
O78   H31   1.013757 S    
C11   C51   1.416842 A    
C37   C45   1.426146 A    
C134  O91   1.222804 D    
