data_mof_unit_12537.cif
_audit_creation_date              2013-03-05T16:18:41-0500
_audit_creation_method            fapswitch 2.2
_symmetry_space_group_name_H-M    P1
_symmetry_Int_Tables_number       1
_space_group_crystal_system       triclinic
_cell_length_a                    15.643159
_cell_length_b                    10.807043
_cell_length_c                    10.018342
_cell_angle_alpha                 92.993769
_cell_angle_beta                  93.596346
_cell_angle_gamma                 89.981302
_cell_volume                      1688.01415188

loop_
_atom_site_label
_atom_site_type_symbol
_atom_site_description
_atom_site_fract_x
_atom_site_fract_y
_atom_site_fract_z
_atom_type_partial_charge
O1    O     O_R   0.499980 0.314910 0.616040 -0.607067
O2    O     O_R   0.500040 0.314680 0.383960 -0.670767
C1    C     C_R   0.505311 0.259108 0.497778 0.910177
O3    O     O_R   0.376750 0.500100 0.616020 -0.534130
O4    O     O_R   0.376810 0.499870 0.383940 -0.626438
C2    C     C_R   0.338543 0.498242 0.496294 0.980213
Zn1   Zn    Zn3+2 0.499960 0.500150 0.654960 0.967091
Zn2   Zn    Zn3+2 0.500040 0.499850 0.345040 0.919779
O5    O     O_R   0.499960 0.685320 0.616040 -0.625878
O6    O     O_R   0.500020 0.685090 0.383960 -0.622106
O7    O     O_R   0.623190 0.500130 0.616060 -0.637296
O8    O     O_R   0.623250 0.499900 0.383980 -0.652910
C3    C     C_R   0.509380 0.741289 0.504194 0.873646
C4    C     C_R   0.661440 0.502043 0.503797 0.949998
C5    C     C_3   0.969310 0.388110 0.529266 -0.249844
C6    C     C_3   0.017662 0.415824 0.404272 -0.051121
H1    H     H_    0.942265 0.297113 0.551937 0.179099
C7    C     C_1   0.249298 0.493760 0.488888 -0.092955
C8    C     C_1   0.750625 0.507061 0.511997 -0.144635
C9    C     C_3   0.036170 0.465124 0.619790 -0.151940
C10   C     C_3   0.082926 0.492417 0.493855 0.060711
C11   C     C_3   0.982498 0.583178 0.598578 0.222847
C12   C     C_3   0.917051 0.507140 0.509154 0.070475
C13   C     C_3   0.030826 0.611698 0.473957 -0.219948
C14   C     C_3   0.964508 0.533899 0.384654 -0.066493
C15   C     C_1   0.173769 0.491158 0.488491 0.043037
C16   C     C_1   0.826172 0.509396 0.513890 -0.040532
H2    H     H_    0.057643 0.702803 0.451139 0.178331
H3    H     H_    0.067410 0.436797 0.715974 0.161235
C17   C     C_3   0.549960 0.085365 0.635141 -0.386324
H4    H     H_    0.500773 0.114324 0.704383 0.217846
H5    H     H_    0.606476 0.141493 0.672822 0.235045
C18   C     C_3   0.564901 0.943990 0.643259 0.073482
H6    H     H_    0.377515 0.116179 0.540788 0.181835
H7    H     H_    0.391874 0.916976 0.588014 0.139494
C19   C     C_3   0.421747 0.069833 0.471103 -0.500403
C20   C     C_3   0.570387 0.068242 0.385055 -0.180970
C21   C     C_3   0.513215 0.122803 0.495757 -0.010048
H8    H     H_    0.538698 0.093159 0.288133 0.120241
C22   C     C_3   0.517331 0.880117 0.508558 -0.110803
C23   C     C_3   0.422087 0.930137 0.492535 -0.203567
C24   C     C_3   0.567715 0.922496 0.384356 -0.126270
H9    H     H_    0.527363 0.892092 0.293664 0.233847
H10   H     H_    0.396662 0.090693 0.368197 0.215889
C25   C     C_3   0.512156 0.372311 0.073713 0.051581
H11   H     H_    0.460061 0.315503 0.107446 0.162714
C26   C     C_3   0.505425 0.368874 0.913733 -0.073399
H12   H     H_    0.562621 0.326906 0.871971 0.126706
H13   H     H_    0.362774 0.490977 0.875150 0.200385
C27   C     C_3   0.417875 0.555960 0.073110 -0.025648
C28   C     C_3   0.569168 0.574250 0.095538 -0.249110
N1    N     N_3   0.498170 0.499750 0.138610 -0.098709
H14   H     H_    0.563241 0.669830 0.139339 0.164988
H15   H     H_    0.629974 0.542394 0.142571 0.207037
N2    N     N_3   0.498850 0.496730 0.861320 -0.148267
C29   C     C_3   0.416910 0.550184 0.913539 -0.176208
C30   C     C_3   0.568887 0.577019 0.937022 0.003896
H16   H     H_    0.553641 0.674065 0.921589 0.161323
H17   H     H_    0.420294 0.654762 0.110019 0.190035
C31   C     C_2   0.036082 0.316963 0.299582 0.960528
O9    O     O_2   0.976764 0.265498 0.233500 -0.577644
O10   O     O_R   0.120455 0.281571 0.280659 -0.835012
H18   H     H_    0.124415 0.212813 0.208511 0.346314
C32   C     C_3   0.529743 0.909060 0.778255 -0.382106
C33   C     C_3   0.575420 0.972239 0.904652 -0.784986
H19   H     H_    0.640454 0.933105 0.922909 0.246535
H20   H     H_    0.581748 0.073526 0.897535 0.264667
H21   H     H_    0.537928 0.955954 0.992557 0.286852
H22   H     H_    0.460629 0.930353 0.780320 0.264477
H23   H     H_    0.539357 0.811199 0.789905 0.251843
C34   C     C_2   0.659671 0.126569 0.390861 0.920557
O11   O     O_2   0.704375 0.108849 0.296359 -0.643657
O12   O     O_R   0.690143 0.204484 0.499147 -0.815633
H24   H     H_    0.750476 0.235339 0.489092 0.350698
C35   C     C_3   0.656080 0.855986 0.366195 -0.323604
C36   C     C_3   0.682240 0.842239 0.221771 -0.825923
H25   H     H_    0.628157 0.857144 0.148089 0.241034
H26   H     H_    0.735036 0.906289 0.203309 0.311508
H27   H     H_    0.707578 0.747565 0.204956 0.247274
H28   H     H_    0.709838 0.903087 0.425062 0.252997
H29   H     H_    0.654148 0.761238 0.402943 0.220998
C37   C     C_2   0.363211 0.863117 0.385223 0.932072
O13   O     O_2   0.304893 0.798393 0.418606 -0.656271
O14   O     O_R   0.373951 0.877044 0.249271 -0.804512
H30   H     H_    0.329360 0.829786 0.188962 0.348253
C38   C     C_3   0.592752 0.299221 0.129541 -0.399946
C39   C     C_3   0.678315 0.301866 0.061787 -0.808760
H31   H     H_    0.675367 0.252507 0.961947 0.241858
H32   H     H_    0.703866 0.395329 0.056882 0.264273
H33   H     H_    0.727598 0.252609 0.122642 0.309939
H34   H     H_    0.607495 0.325534 0.235352 0.275356
H35   H     H_    0.574635 0.199935 0.123242 0.216618
C40   C     C_2   0.433759 0.277158 0.863514 0.813709
O15   O     O_2   0.431785 0.175730 0.912174 -0.671003
O16   O     O_R   0.371040 0.304166 0.763868 -0.776948
H36   H     H_    0.328036 0.234481 0.743763 0.330899
C41   C     C_3   0.326734 0.520958 0.115788 -0.379693
C42   C     C_3   0.304303 0.384280 0.124894 -0.766809
H37   H     H_    0.312458 0.332391 0.028588 0.249565
H38   H     H_    0.341575 0.340883 0.207474 0.274741
H39   H     H_    0.235775 0.377339 0.145521 0.272177
H40   H     H_    0.309092 0.576881 0.205226 0.246627
H41   H     H_    0.278883 0.557064 0.040683 0.181872
C43   C     C_3   0.658431 0.565850 0.880516 -0.349724
C44   C     C_3   0.733000 0.631392 0.961144 -0.952074
H42   H     H_    0.718360 0.731194 0.977368 0.269542
H43   H     H_    0.749929 0.589178 0.057226 0.274288
H44   H     H_    0.790754 0.624649 0.902261 0.275108
H45   H     H_    0.675297 0.468641 0.853338 0.238266
H46   H     H_    0.654513 0.620436 0.791588 0.294620
C45   C     C_2   0.924294 0.580445 0.257204 0.910245
O17   O     O_2   0.927357 0.518584 0.152008 -0.613093
O18   O     O_R   0.885212 0.696678 0.259671 -0.806790
H47   H     H_    0.864928 0.722133 0.167090 0.341817
C46   C     C_2   0.389834 0.675975 0.862254 0.883017
O19   O     O_2   0.414974 0.771435 0.922674 -0.690501
O20   O     O_R   0.325340 0.683316 0.759976 -0.773053
H48   H     H_    0.310270 0.771832 0.739290 0.342712
C47   C     C_3   0.959610 0.677925 0.708910 -0.419648
C48   C     C_3   0.039687 0.737518 0.779511 -0.784661
H49   H     H_    0.080925 0.666040 0.826490 0.261592
H50   H     H_    0.076697 0.786503 0.707164 0.262433
H51   H     H_    0.020824 0.805687 0.859044 0.259225
H52   H     H_    0.918547 0.750852 0.664324 0.220806
H53   H     H_    0.923045 0.630806 0.783092 0.216815
C49   C     C_2   0.660450 0.912023 0.655976 0.899734
O21   O     O_2   0.715507 0.992931 0.669759 -0.609683
O22   O     O_R   0.685371 0.788055 0.656040 -0.878649
H54   H     H_    0.749824 0.777646 0.666206 0.336727

loop_
_geom_bond_atom_site_label_1
_geom_bond_atom_site_label_2
_geom_bond_distance
_ccdc_geom_bond_type
C43   H46   1.092474 S    
C10   C15   1.425486 S    
C49   O21   1.224064 D    
O12   H24   1.013775 S    
O16   H36   1.013784 S    
C7    C15   1.181613 T    
C36   H27   1.105632 S    
Zn1   N2    2.070804 S    
N2    C29   1.517398 S    
O22   H54   1.013829 S    
C41   C42   1.526985 S    
C47   H52   1.110741 S    
Zn1   O7    1.990520 S    
C44   H43   1.103923 S    
C24   C35   1.574091 S    
C40   O15   1.223868 D    
C27   H17   1.111432 S    
C20   C21   1.559905 S    
C36   H26   1.108300 S    
C38   H34   1.093456 S    
O4    C2    1.308519 A    
O7    C4    1.307756 A    
C5    C6    1.545339 S    
C42   H37   1.104763 S    
C17   C21   1.549907 S    
C31   O10   1.395613 S    
C6    C31   1.498398 S    
C20   C24   1.575290 S    
O5    C3    1.317072 A    
C3    C22   1.503639 S    
C39   H33   1.106385 S    
O14   H30   1.013703 S    
C45   O17   1.221739 D    
C1    C21   1.477390 S    
C46   O20   1.397430 S    
C27   N1    1.521535 S    
C28   C30   1.589640 S    
C32   H23   1.079501 S    
C8    C16   1.181020 T    
C35   H28   1.104893 S    
Zn2   N1    2.066401 S    
C41   H40   1.103904 S    
C48   H51   1.110273 S    
C5    C12   1.539267 S    
C40   O16   1.397033 S    
C19   C23   1.535922 S    
C5    C9    1.553007 S    
O3    Zn1   1.942342 S    
C43   C44   1.528873 S    
C48   H50   1.110726 S    
C9    H3    1.110265 S    
C25   C26   1.598071 S    
C11   C47   1.526303 S    
C2    C7    1.394108 S    
C44   H44   1.109894 S    
C18   C22   1.621228 S    
C28   N1    1.471374 S    
C36   H25   1.104806 S    
O3    C2    1.305329 A    
C34   O12   1.397531 S    
C38   C39   1.539188 S    
C35   H29   1.107110 S    
C25   N1    1.513762 S    
C33   H20   1.105527 S    
C25   H11   1.100812 S    
C27   C29   1.595723 S    
C31   O9    1.222082 D    
O1    C1    1.308464 A    
C35   C36   1.528016 S    
O10   H18   1.013866 S    
C26   H12   1.099174 S    
C37   O14   1.398607 S    
C17   H4    1.102418 S    
Zn2   O8    1.942342 S    
C33   H21   1.109768 S    
C26   C40   1.539567 S    
C45   O18   1.396569 S    
C32   H22   1.106547 S    
C13   C14   1.545683 S    
C41   H41   1.112890 S    
C47   H53   1.109887 S    
C22   C23   1.586307 S    
C9    C11   1.543709 S    
C37   O13   1.223311 D    
C12   C16   1.425548 S    
C20   C34   1.529050 S    
C11   C13   1.544026 S    
C19   H10   1.114058 S    
C24   H9    1.108575 S    
H13   C29   1.099206 S    
C48   H49   1.110822 S    
C26   N2    1.504805 S    
O18   H47   1.013063 S    
C6    C14   1.537307 S    
Zn1   O5    2.058664 S    
C30   C43   1.545744 S    
C27   C41   1.565984 S    
C49   O22   1.395193 S    
C17   C18   1.551093 S    
O1    Zn1   2.019432 S    
C4    C8    1.393306 S    
O2    Zn2   2.058665 S    
C13   H2    1.110609 S    
O8    C4    1.305935 A    
C22   C24   1.600636 S    
O6    C3    1.320135 A    
O4    Zn2   1.990520 S    
C47   C48   1.525114 S    
C6    C10   1.529999 S    
C5    H1    1.110548 S    
C42   H39   1.107674 S    
C44   H42   1.108319 S    
C42   H38   1.106430 S    
C28   H15   1.098093 S    
C32   C33   1.541654 S    
N2    C30   1.534942 S    
C25   C38   1.575862 S    
C34   O11   1.219055 D    
C20   H8    1.108119 S    
C38   H35   1.107471 S    
O20   H48   1.013915 S    
C17   H5    1.107530 S    
C30   H16   1.092192 S    
C43   H45   1.107395 S    
C18   C32   1.555906 S    
C23   C37   1.524313 S    
C19   C21   1.541896 S    
C18   C49   1.532983 S    
C29   C46   1.528628 S    
O2    C1    1.314304 A    
H6    C19   1.113947 S    
C12   C14   1.531163 S    
H7    C23   1.108850 S    
C14   C45   1.498399 S    
C9    C10   1.539006 S    
C39   H31   1.107072 S    
Zn2   O6    2.019432 S    
C33   H19   1.109832 S    
C10   C13   1.539952 S    
C39   H32   1.091019 S    
C11   C12   1.527951 S    
C28   H14   1.107165 S    
C46   O19   1.220873 D    
