data_mof_unit_37007.cif
_audit_creation_date              2012-12-11T15:07:06-0500
_audit_creation_method            fapswitch 2.2
_symmetry_space_group_name_H-M    P1
_symmetry_Int_Tables_number       1
_space_group_crystal_system       triclinic
_cell_length_a                    19.628696
_cell_length_b                    11.428838
_cell_length_c                    18.693235
_cell_angle_alpha                 90.000018
_cell_angle_beta                  90.233081
_cell_angle_gamma                 90.000038
_cell_volume                      4193.47827903

loop_
_atom_site_label
_atom_site_type_symbol
_atom_type_description
_atom_site_fract_x
_atom_site_fract_y
_atom_site_fract_z
_atom_type_partial_charge
C1    C     C_R   0.761257 0.527113 0.640575 0.555508
C2    C     C_R   0.238743 0.527114 0.359424 0.555454
C3    C     C_R   0.261257 0.027113 0.640575 0.555486
C4    C     C_R   0.738743 0.027114 0.359424 0.555423
C5    C     C_3   0.803901 0.147869 0.447523 -0.276780
C6    C     C_3   0.196098 0.147868 0.552477 -0.276772
C7    C     C_3   0.303902 0.647869 0.447523 -0.276779
C8    C     C_3   0.696098 0.647868 0.552477 -0.276771
C9    C     C_3   0.743732 0.066205 0.434615 0.033868
C10   C     C_3   0.256268 0.066204 0.565384 0.033887
C11   C     C_3   0.243732 0.566205 0.434615 0.033870
C12   C     C_3   0.756268 0.566204 0.565384 0.033884
C13   C     C_3   0.758188 0.099487 0.572632 0.000972
C14   C     C_3   0.241812 0.099487 0.427368 0.000999
C15   C     C_3   0.258188 0.599487 0.572632 0.000965
C16   C     C_3   0.741811 0.599487 0.427368 0.000989
C17   C     C_3   0.749024 0.970143 0.558767 -0.275822
C18   C     C_3   0.250975 0.970143 0.441233 -0.275823
C19   C     C_3   0.249024 0.470143 0.558767 -0.275820
C20   C     C_3   0.750975 0.470143 0.441233 -0.275821
C21   C     C_3   0.820030 0.143000 0.527926 -0.245252
C22   C     C_3   0.179970 0.143000 0.472075 -0.245257
C23   C     C_3   0.320030 0.643000 0.527926 -0.245253
C24   C     C_3   0.679970 0.643000 0.472075 -0.245258
C25   C     C_3   0.003845 0.201247 0.458686 -0.216923
C26   C     C_3   0.996155 0.201248 0.541314 -0.216919
C27   C     C_3   0.503845 0.701247 0.458686 -0.216929
C28   C     C_3   0.496155 0.701248 0.541314 -0.216923
C29   C     C_3   0.063330 0.399398 0.473354 -0.218487
C30   C     C_3   0.936670 0.399398 0.526646 -0.218491
C31   C     C_3   0.563330 0.899398 0.473354 -0.218485
C32   C     C_3   0.436670 0.899398 0.526646 -0.218491
C33   C     C_3   0.940172 0.383966 0.445362 -0.281158
C34   C     C_3   0.059828 0.383966 0.554638 -0.281154
C35   C     C_3   0.440172 0.883966 0.445362 -0.281158
C36   C     C_3   0.559828 0.883966 0.554638 -0.281152
C37   C     C_3   0.009109 0.328888 0.430367 0.051529
C38   C     C_3   0.990891 0.328888 0.569633 0.051535
C39   C     C_3   0.509109 0.828888 0.430367 0.051533
C40   C     C_3   0.490891 0.828888 0.569633 0.051540
C41   C     C_3   0.814608 0.023077 0.046839 -0.208907
C42   C     C_3   0.185392 0.023078 0.953161 -0.208912
C43   C     C_3   0.314608 0.523078 0.046839 -0.208907
C44   C     C_3   0.685392 0.523079 0.953161 -0.208911
C45   C     C_R   0.774237 0.123784 0.648630 0.544166
C46   C     C_R   0.225763 0.123784 0.351369 0.544167
C47   C     C_R   0.274237 0.623784 0.648630 0.544162
C48   C     C_R   0.725763 0.623784 0.351369 0.544163
C49   C     C_3   0.819541 0.036844 0.967798 -0.240521
C50   C     C_3   0.180458 0.036845 0.032202 -0.240519
C51   C     C_3   0.319542 0.536845 0.967798 -0.240520
C52   C     C_3   0.680458 0.536846 0.032202 -0.240519
C53   C     C_3   0.683113 0.032845 0.030681 -0.263665
C54   C     C_3   0.316886 0.032843 0.969320 -0.263665
C55   C     C_3   0.183114 0.532844 0.030680 -0.263664
C56   C     C_3   0.816886 0.532843 0.969320 -0.263664
C57   C     C_3   0.747338 0.205372 0.068252 0.142019
C58   C     C_3   0.252663 0.205371 0.931747 0.142020
C59   C     C_3   0.247338 0.705372 0.068253 0.142019
C60   C     C_3   0.752664 0.705371 0.931747 0.142019
C61   C     C_3   0.746090 0.072142 0.076155 0.091587
C62   C     C_3   0.253910 0.072141 0.923845 0.091593
C63   C     C_3   0.246090 0.572141 0.076155 0.091588
C64   C     C_3   0.753910 0.572141 0.923845 0.091595
C65   C     C_3   0.760985 0.113651 0.938667 0.029060
C66   C     C_3   0.239014 0.113652 0.061333 0.029058
C67   C     C_3   0.260985 0.613652 0.938667 0.029060
C68   C     C_3   0.739014 0.613653 0.061333 0.029058
C69   C     C_3   0.695796 0.042526 0.949487 -0.288325
C70   C     C_3   0.304203 0.042525 0.050514 -0.288327
C71   C     C_3   0.195798 0.542525 0.949486 -0.288326
C72   C     C_3   0.804202 0.542525 0.050514 -0.288328
C73   C     C_3   0.751214 0.228322 0.985353 -0.170139
C74   C     C_3   0.248786 0.228322 0.014646 -0.170144
C75   C     C_3   0.251214 0.728323 0.985354 -0.170142
C76   C     C_3   0.748786 0.728323 0.014645 -0.170145
C77   C     C_3   0.004179 0.478239 0.040195 -0.234069
C78   C     C_3   0.995822 0.478239 0.959805 -0.234074
C79   C     C_3   0.504178 0.978239 0.040195 -0.234068
C80   C     C_3   0.495822 0.978239 0.959805 -0.234073
C81   C     C_3   0.063300 0.276500 0.027684 -0.210532
C82   C     C_3   0.936700 0.276501 0.972316 -0.210529
C83   C     C_3   0.563300 0.776501 0.027684 -0.210534
C84   C     C_3   0.436701 0.776501 0.972315 -0.210532
C85   C     C_3   0.941032 0.295758 0.054072 -0.244918
C86   C     C_3   0.058968 0.295757 0.945928 -0.244917
C87   C     C_3   0.441032 0.795757 0.054071 -0.244915
C88   C     C_3   0.558968 0.795757 0.945928 -0.244914
C89   C     C_R   0.970102 0.341460 0.645729 0.520744
C90   C     C_R   0.029898 0.341460 0.354271 0.520701
C91   C     C_R   0.470102 0.841460 0.645729 0.520730
C92   C     C_R   0.529898 0.841460 0.354271 0.520677
C93   C     C_3   0.010114 0.351380 0.069547 0.039528
C94   C     C_3   0.989887 0.351380 0.930453 0.039536
C95   C     C_3   0.510114 0.851380 0.069547 0.039524
C96   C     C_3   0.489887 0.851380 0.930453 0.039533
C97   C     C_R   0.761794 0.530225 0.849535 0.534354
C98   C     C_R   0.238206 0.530225 0.150465 0.534314
C99   C     C_R   0.261794 0.030225 0.849535 0.534335
C100  C     C_R   0.738206 0.030226 0.150465 0.534294
C101  C     C_R   0.776182 0.139442 0.861120 0.528115
C102  C     C_R   0.223817 0.139443 0.138880 0.528119
C103  C     C_R   0.276182 0.639444 0.861120 0.528118
C104  C     C_R   0.723817 0.639444 0.138879 0.528117
C105  C     C_R   0.968908 0.353237 0.853600 0.518157
C106  C     C_R   0.031092 0.353237 0.146399 0.518121
C107  C     C_R   0.468909 0.853237 0.853600 0.518151
C108  C     C_R   0.531092 0.853237 0.146399 0.518111
C109  C     C_3   0.678613 0.126120 0.466930 0.151466
C110  C     C_3   0.321387 0.126121 0.533070 0.151474
C111  C     C_3   0.178613 0.626121 0.466930 0.151466
C112  C     C_3   0.821387 0.626121 0.533070 0.151469
C113  C     C_3   0.691353 0.159146 0.545795 -0.201729
C114  C     C_3   0.308647 0.159147 0.454205 -0.201749
C115  C     C_3   0.191353 0.659147 0.545795 -0.201719
C116  C     C_3   0.808647 0.659146 0.454205 -0.201735
C117  C     C_3   0.756160 0.951364 0.478043 -0.268655
C118  C     C_3   0.243840 0.951364 0.521957 -0.268661
C119  C     C_3   0.256160 0.451364 0.478043 -0.268655
C120  C     C_3   0.743840 0.451364 0.521957 -0.268660
Cr1   Cr    Cr6+3 0.885690 0.492860 0.745310 1.059485
Cr2   Cr    Cr6+3 0.114310 0.492860 0.254690 1.059841
Cr3   Cr    Cr6+3 0.385690 0.992860 0.745310 1.059612
Cr4   Cr    Cr6+3 0.614310 0.992860 0.254690 1.060042
Cr5   Cr    Cr6+3 0.729880 0.332270 0.748190 0.999296
Cr6   Cr    Cr6+3 0.270120 0.332270 0.251810 0.999265
Cr7   Cr    Cr6+3 0.229880 0.832270 0.748190 0.999295
Cr8   Cr    Cr6+3 0.770120 0.832270 0.251810 0.999270
Cr9   Cr    Cr6+3 0.888120 0.178590 0.753010 1.014818
Cr10  Cr    Cr6+3 0.111880 0.178590 0.246990 1.014835
Cr11  Cr    Cr6+3 0.388120 0.678590 0.753010 1.014824
Cr12  Cr    Cr6+3 0.611880 0.678590 0.246990 1.014840
H1    H     H_    0.643983 0.056416 0.471519 0.118833
H2    H     H_    0.356017 0.056418 0.528482 0.118839
H3    H     H_    0.143983 0.556417 0.471519 0.118837
H4    H     H_    0.856018 0.556418 0.528482 0.118838
H5    H     H_    0.860707 0.076993 0.534835 0.176925
H6    H     H_    0.139292 0.076992 0.465165 0.176928
H7    H     H_    0.360707 0.576992 0.534835 0.176925
H8    H     H_    0.639292 0.576992 0.465165 0.176928
H9    H     H_    0.809484 0.926878 0.467290 0.203126
H10   H     H_    0.190517 0.926877 0.532710 0.203159
H11   H     H_    0.309484 0.426878 0.467290 0.203125
H12   H     H_    0.690517 0.426877 0.532711 0.203166
H13   H     H_    0.788207 0.922276 0.587388 0.249431
H14   H     H_    0.211793 0.922273 0.412613 0.249413
H15   H     H_    0.288207 0.422276 0.587388 0.249434
H16   H     H_    0.711792 0.422272 0.412613 0.249412
H17   H     H_    0.047301 0.149180 0.441941 0.150468
H18   H     H_    0.952699 0.149180 0.558059 0.150476
H19   H     H_    0.547301 0.649180 0.441941 0.150458
H20   H     H_    0.452699 0.649180 0.558059 0.150469
H21   H     H_    0.959695 0.156104 0.434034 0.121495
H22   H     H_    0.040306 0.156105 0.565966 0.121510
H23   H     H_    0.459694 0.656104 0.434034 0.121480
H24   H     H_    0.540306 0.656104 0.565966 0.121501
H25   H     H_    0.614406 0.883900 0.453027 0.096867
H26   H     H_    0.385594 0.883901 0.546973 0.096875
H27   H     H_    0.114405 0.383901 0.453027 0.096866
H28   H     H_    0.885594 0.383901 0.546973 0.096873
H29   H     H_    0.601670 0.827488 0.574409 0.103788
H30   H     H_    0.398330 0.827487 0.425592 0.103801
H31   H     H_    0.101670 0.327488 0.574409 0.103786
H32   H     H_    0.898330 0.327487 0.425592 0.103795
H33   H     H_    0.934712 0.470325 0.418427 0.140935
H34   H     H_    0.065288 0.470325 0.581573 0.140975
H35   H     H_    0.434712 0.970325 0.418427 0.140905
H36   H     H_    0.565288 0.970325 0.581573 0.140953
H37   H     H_    0.950291 0.492101 0.536436 0.203628
H38   H     H_    0.049709 0.492100 0.463564 0.203605
H39   H     H_    0.450291 0.992100 0.536436 0.203599
H40   H     H_    0.549710 0.992100 0.463565 0.203567
H41   H     H_    0.822347 0.930346 0.059223 0.122428
H42   H     H_    0.177653 0.930346 0.940777 0.122423
H43   H     H_    0.322347 0.430346 0.059223 0.122429
H44   H     H_    0.677653 0.430347 0.940777 0.122423
H45   H     H_    0.858298 0.067412 0.073122 0.164322
H46   H     H_    0.141703 0.067413 0.926878 0.164320
H47   H     H_    0.358298 0.567413 0.073123 0.164323
H48   H     H_    0.641703 0.567414 0.926877 0.164321
H49   H     H_    0.869832 0.071605 0.955136 0.133166
H50   H     H_    0.130167 0.071606 0.044863 0.133166
H51   H     H_    0.369833 0.571607 0.955137 0.133166
H52   H     H_    0.630167 0.571607 0.044863 0.133168
H53   H     H_    0.818227 0.949039 0.942020 0.117472
H54   H     H_    0.181772 0.949040 0.057980 0.117481
H55   H     H_    0.318229 0.449040 0.942020 0.117474
H56   H     H_    0.681771 0.449041 0.057980 0.117483
H57   H     H_    0.662712 0.948874 0.046967 0.114317
H58   H     H_    0.337287 0.948873 0.953034 0.114325
H59   H     H_    0.162713 0.448873 0.046966 0.114321
H60   H     H_    0.837287 0.448872 0.953035 0.114328
H61   H     H_    0.701353 0.954870 0.926942 0.174720
H62   H     H_    0.298643 0.954870 0.073059 0.174732
H63   H     H_    0.201358 0.454869 0.926941 0.174732
H64   H     H_    0.798641 0.454870 0.073060 0.174736
H65   H     H_    0.698174 0.243517 0.087432 0.087242
H66   H     H_    0.301829 0.243515 0.912569 0.087222
H67   H     H_    0.198173 0.743517 0.087432 0.087235
H68   H     H_    0.801829 0.743516 0.912569 0.087218
H69   H     H_    0.786215 0.297177 0.973191 0.117052
H70   H     H_    0.213785 0.297178 0.026807 0.117049
H71   H     H_    0.286215 0.797177 0.973193 0.117052
H72   H     H_    0.713785 0.797179 0.026806 0.117048
H73   H     H_    0.700898 0.262632 0.969655 0.078174
H74   H     H_    0.299102 0.262632 0.030345 0.078179
H75   H     H_    0.200898 0.762632 0.969655 0.078174
H76   H     H_    0.799102 0.762632 0.030345 0.078178
H77   H     H_    0.642051 0.095666 0.042223 0.103375
H78   H     H_    0.357950 0.095663 0.957778 0.103371
H79   H     H_    0.142051 0.595665 0.042221 0.103372
H80   H     H_    0.857949 0.595663 0.957779 0.103368
H81   H     H_    0.694763 0.252375 0.552762 0.166976
H82   H     H_    0.305238 0.252376 0.447238 0.166943
H83   H     H_    0.194763 0.752375 0.552762 0.166970
H84   H     H_    0.805238 0.752376 0.447238 0.166942
H85   H     H_    0.651991 0.085318 0.922189 0.114346
H86   H     H_    0.348007 0.085316 0.077812 0.114349
H87   H     H_    0.151993 0.585315 0.922188 0.114335
H88   H     H_    0.848007 0.585315 0.077813 0.114339
H89   H     H_    0.047577 0.532073 0.054787 0.140893
H90   H     H_    0.952424 0.532073 0.945213 0.140890
H91   H     H_    0.547576 0.032073 0.054787 0.140894
H92   H     H_    0.452424 0.032073 0.945213 0.140892
H93   H     H_    0.960234 0.523875 0.065043 0.111445
H94   H     H_    0.039767 0.523874 0.934956 0.111435
H95   H     H_    0.460233 0.023875 0.065043 0.111450
H96   H     H_    0.539767 0.023874 0.934956 0.111440
H97   H     H_    0.614041 0.786396 0.049569 0.119863
H98   H     H_    0.385959 0.786396 0.950431 0.119868
H99   H     H_    0.114041 0.286396 0.049569 0.119867
H100  H     H_    0.885959 0.286397 0.950431 0.119871
H101  H     H_    0.599750 0.855748 0.929168 0.179636
H102  H     H_    0.400251 0.855750 0.070831 0.179643
H103  H     H_    0.099750 0.355749 0.929169 0.179643
H104  H     H_    0.900251 0.355751 0.070831 0.179650
H105  H     H_    0.935792 0.211774 0.083304 0.144328
H106  H     H_    0.064208 0.211773 0.916696 0.144328
H107  H     H_    0.435792 0.711773 0.083304 0.144333
H108  H     H_    0.564208 0.711773 0.916696 0.144329
H109  H     H_    0.950419 0.184040 0.962435 0.118048
H110  H     H_    0.049580 0.184040 0.037565 0.118052
H111  H     H_    0.450420 0.684040 0.962435 0.118050
H112  H     H_    0.549580 0.684041 0.037565 0.118055
H113  H     H_    0.647337 0.131422 0.579214 0.115297
H114  H     H_    0.352662 0.131422 0.420787 0.115206
H115  H     H_    0.147337 0.631422 0.579213 0.115332
H116  H     H_    0.852662 0.631422 0.420787 0.115256
H117  H     H_    0.722604 0.880273 0.460658 0.099119
H118  H     H_    0.277396 0.880273 0.539341 0.099115
H119  H     H_    0.222604 0.380273 0.460658 0.099123
H120  H     H_    0.777396 0.380273 0.539341 0.099117
H121  H     H_    0.698968 0.939564 0.578538 0.091309
H122  H     H_    0.301031 0.939565 0.421462 0.091310
H123  H     H_    0.198968 0.439564 0.578538 0.091304
H124  H     H_    0.801031 0.439565 0.421461 0.091305
H125  H     H_    0.848878 0.119721 0.416141 0.126322
H126  H     H_    0.151122 0.119720 0.583860 0.126330
H127  H     H_    0.348878 0.619721 0.416141 0.126312
H128  H     H_    0.651122 0.619719 0.583859 0.126323
H129  H     H_    0.790447 0.237808 0.430852 0.145064
H130  H     H_    0.209552 0.237807 0.569149 0.145087
H131  H     H_    0.290447 0.737807 0.430852 0.145073
H132  H     H_    0.709552 0.737806 0.569149 0.145092
H133  H     H_    0.839121 0.225779 0.547912 0.112284
H134  H     H_    0.160879 0.225779 0.452090 0.112278
H135  H     H_    0.339121 0.725779 0.547912 0.112283
H136  H     H_    0.660878 0.725779 0.452090 0.112277
O1    O     O_R   0.957210 0.449410 0.665480 -0.478656
O2    O     O_R   0.042790 0.449410 0.334520 -0.478492
O3    O     O_R   0.457210 0.949410 0.665480 -0.478598
O4    O     O_R   0.542790 0.949410 0.334520 -0.478396
O5    O     O_R   0.736260 0.212010 0.826560 -0.511172
O6    O     O_R   0.263740 0.212010 0.173440 -0.511169
O7    O     O_R   0.236260 0.712010 0.826560 -0.511177
O8    O     O_R   0.763740 0.712010 0.173440 -0.511176
O9    O     O_R   0.832520 0.095300 0.836000 -0.531239
O10   O     O_R   0.167480 0.095300 0.164000 -0.531223
O11   O     O_R   0.332520 0.595300 0.836000 -0.531232
O12   O     O_R   0.667480 0.595300 0.164000 -0.531214
O13   O     O_R   0.946380 0.253940 0.826940 -0.517190
O14   O     O_R   0.053620 0.253940 0.173060 -0.517204
O15   O     O_R   0.446380 0.753940 0.826940 -0.517193
O16   O     O_R   0.553620 0.753940 0.173060 -0.517207
O17   O     O_3   0.834560 0.334570 0.748840 -0.294722
O18   O     O_3   0.165440 0.334570 0.251160 -0.294758
O19   O     O_3   0.334560 0.834570 0.748840 -0.294737
O20   O     O_3   0.665440 0.834570 0.251160 -0.294781
O21   O     O_R   0.820730 0.541240 0.668250 -0.428684
O22   O     O_R   0.179270 0.541240 0.331750 -0.428564
O23   O     O_R   0.320730 0.041240 0.668250 -0.428638
O24   O     O_R   0.679270 0.041240 0.331750 -0.428497
O25   O     O_R   0.714240 0.455060 0.663710 -0.538725
O26   O     O_R   0.285760 0.455060 0.336290 -0.538766
O27   O     O_R   0.214240 0.955060 0.663710 -0.538722
O28   O     O_R   0.785760 0.955060 0.336290 -0.538759
O29   O     O_R   0.736780 0.204870 0.675910 -0.517562
O30   O     O_R   0.263220 0.204870 0.324090 -0.517575
O31   O     O_R   0.236780 0.704870 0.675910 -0.517561
O32   O     O_R   0.763220 0.704870 0.324090 -0.517572
O33   O     O_R   0.833070 0.087590 0.673490 -0.489592
O34   O     O_R   0.166930 0.087590 0.326510 -0.489587
O35   O     O_R   0.333070 0.587590 0.673490 -0.489586
O36   O     O_R   0.666930 0.587590 0.326510 -0.489584
O37   O     O_R   0.946890 0.246800 0.676300 -0.517312
O38   O     O_R   0.053110 0.246800 0.323700 -0.517334
O39   O     O_R   0.446890 0.746800 0.676300 -0.517321
O40   O     O_R   0.553110 0.746800 0.323700 -0.517348
O41   O     O_R   0.956650 0.457120 0.827980 -0.531911
O42   O     O_R   0.043350 0.457120 0.172020 -0.531854
O43   O     O_R   0.456650 0.957120 0.827980 -0.531893
O44   O     O_R   0.543350 0.957120 0.172020 -0.531826
O45   O     O_R   0.820220 0.548390 0.818890 -0.522285
O46   O     O_R   0.179780 0.548390 0.181110 -0.522241
O47   O     O_R   0.320220 0.048390 0.818890 -0.522264
O48   O     O_R   0.679780 0.048390 0.181110 -0.522217
O49   O     O_R   0.713680 0.462770 0.826210 -0.532763
O50   O     O_R   0.286320 0.462770 0.173790 -0.532772
O51   O     O_R   0.213680 0.962770 0.826210 -0.532771
O52   O     O_R   0.786320 0.962770 0.173790 -0.532780
S1    S     S_3+6 0.629256 0.230757 0.414859 -0.036328
O53   O     O_2   0.608257 0.333761 0.459390 -0.338792
O54   O     O_2   0.667942 0.270375 0.349941 -0.332509
O55   O     O_3   0.557178 0.166808 0.386225 -0.500057
H137  H     H_    0.533317 0.227586 0.357857 0.364547
S2    S     S_3+6 0.370740 0.230759 0.585143 -0.036368
O56   O     O_2   0.391742 0.333772 0.540622 -0.338469
O57   O     O_2   0.332043 0.270365 0.650058 -0.332899
O58   O     O_3   0.442821 0.166818 0.613775 -0.500047
H138  H     H_    0.466388 0.227251 0.642670 0.364517
S3    S     S_3+6 0.129258 0.730758 0.414858 -0.036289
O59   O     O_2   0.108257 0.833766 0.459385 -0.338546
O60   O     O_2   0.167949 0.770371 0.349942 -0.332710
O61   O     O_3   0.057178 0.666812 0.386225 -0.500030
H139  H     H_    0.033453 0.727431 0.357614 0.364536
S4    S     S_3+6 0.870739 0.730760 0.585144 -0.036316
O62   O     O_2   0.891743 0.833775 0.540625 -0.338287
O63   O     O_2   0.832039 0.770361 0.650057 -0.333045
O64   O     O_3   0.942820 0.666820 0.613776 -0.499866
H140  H     H_    0.966307 0.727193 0.642836 0.364407
O65   O     O_3   0.803267 0.253725 0.106364 -0.620582
C121  C     C_3   0.783545 0.296327 0.174728 -0.028754
H141  H     H_    0.760912 0.226711 0.208255 0.180273
H142  H     H_    0.745792 0.368472 0.169622 0.145169
C122  C     C_3   0.845618 0.342864 0.214745 -0.369936
H143  H     H_    0.866744 0.420560 0.186976 0.137919
H144  H     H_    0.830808 0.369159 0.269755 0.115077
H145  H     H_    0.885418 0.273995 0.218338 0.163944
O66   O     O_3   0.196736 0.253724 0.893633 -0.620574
C123  C     C_3   0.216462 0.296333 0.825271 -0.028762
H146  H     H_    0.239111 0.226727 0.791749 0.180279
H147  H     H_    0.254203 0.368492 0.830384 0.145156
C124  C     C_3   0.154389 0.342841 0.785243 -0.369935
H148  H     H_    0.133231 0.420495 0.813021 0.137930
H149  H     H_    0.169206 0.369183 0.730245 0.115084
H150  H     H_    0.114614 0.273940 0.781620 0.163938
O67   O     O_3   0.303265 0.753725 0.106366 -0.620578
C125  C     C_3   0.283541 0.796326 0.174730 -0.028773
H151  H     H_    0.260889 0.726721 0.208248 0.180279
H152  H     H_    0.245806 0.868492 0.169623 0.145167
C126  C     C_3   0.345617 0.842811 0.214762 -0.369945
H153  H     H_    0.366779 0.920467 0.186992 0.137949
H154  H     H_    0.330802 0.869142 0.269763 0.115074
H155  H     H_    0.385385 0.773902 0.218377 0.163943
O68   O     O_3   0.696737 0.753723 0.893631 -0.620570
C127  C     C_3   0.716465 0.796334 0.825271 -0.028784
H156  H     H_    0.739154 0.726754 0.791762 0.180283
H157  H     H_    0.754174 0.868538 0.830387 0.145148
C128  C     C_3   0.654385 0.842752 0.785219 -0.369932
H158  H     H_    0.633185 0.920377 0.812985 0.137955
H159  H     H_    0.669207 0.869106 0.730225 0.115075
H160  H     H_    0.614646 0.773799 0.781589 0.163950

loop_
_geom_bond_atom_site_label_1
_geom_bond_atom_site_label_2
_ccdc_geom_bond_type
C78   H94   S    
O67   C125  S    
C82   C94   S    
C119  H11   S    
C10   C110  S    
C7    H127  S    
C120  H12   S    
C41   C61   S    
C116  H84   S    
C53   C69   S    
C104  O12   A    
C56   H60   S    
C120  H120  S    
C43   C63   S    
Cr5   O5    S    
C44   C64   S    
C70   H86   S    
C63   C98   S    
C51   H51   S    
C35   C39   S    
C31   H40   S    
C28   C40   S    
C36   H36   S    
C30   C38   S    
C125  C126  S    
C79   H95   S    
C75   H75   S    
O55   H137  S    
C56   C72   S    
C105  O13   A    
S2    O56   D    
C21   H5    S    
C110  S2    S    
C84   H98   S    
C18   C118  S    
C81   C86   S    
C108  O16   A    
C128  H160  S    
C83   C88   S    
C83   H97   S    
C48   O36   A    
C5    H129  S    
C90   O2    A    
C72   H88   S    
C41   C49   S    
C124  H149  S    
Cr8   O32   S    
C126  H155  S    
Cr5   O17   S    
Cr2   O46   S    
C109  H1    S    
Cr7   O19   S    
Cr8   O20   S    
C118  H118  S    
C121  H141  S    
C26   C38   S    
Cr10  O38   S    
C14   C114  S    
C73   H69   S    
C83   H112  S    
C60   C76   S    
C24   H8    S    
C55   H59   S    
C81   H110  S    
C30   H37   S    
C47   O31   A    
C22   H134  S    
C54   C70   S    
C68   C72   S    
Cr9   O33   S    
S2    O58   S    
C69   H61   S    
C115  H83   S    
C98   O46   A    
C102  O6    A    
C122  H145  S    
C99   O51   A    
C31   H25   S    
C19   H123  S    
C64   C97   S    
C36   H29   S    
C15   C115  S    
C20   C120  S    
Cr7   O27   S    
Cr8   O28   S    
C57   H65   S    
C52   H52   S    
Cr7   O7    S    
S4    O62   D    
Cr4   O24   S    
C121  C122  S    
C72   H64   S    
C57   C61   S    
C82   C85   S    
C59   C63   S    
C60   C64   S    
Cr9   O17   S    
O68   C127  S    
C13   C45   S    
C66   C70   S    
C42   H46   S    
C113  H113  S    
C23   H135  S    
C86   H106  S    
C123  H146  S    
C95   C108  S    
C60   H68   S    
C62   C99   S    
C5    C21   S    
S1    O53   D    
C81   H99   S    
C31   C36   S    
C54   C62   S    
C15   C47   S    
C48   O32   A    
C55   C71   S    
C76   H76   S    
Cr6   O26   S    
C6    C22   S    
O66   C123  S    
C114  H82   S    
Cr2   O22   S    
C65   C101  S    
Cr10  O18   S    
C43   C51   S    
Cr11  O15   S    
C67   C103  S    
C18   H122  S    
C88   H101  S    
C37   C90   S    
Cr11  O35   S    
C78   C94   S    
C66   C74   S    
C25   H17   S    
C111  S3    S    
C105  O41   A    
C85   C93   S    
C111  H3    S    
C107  O43   A    
C87   C95   S    
Cr5   O49   S    
C56   C64   S    
C7    H131  S    
C45   O33   A    
C104  O8    A    
C85   H105  S    
C44   C52   S    
Cr6   O6    S    
C50   H50   S    
C1    C12   S    
Cr9   O37   S    
C112  H4    S    
S4    O64   S    
C2    C11   S    
Cr12  O12   S    
C87   H107  S    
C42   H42   S    
C75   H71   S    
O61   H139  S    
C25   C26   S    
C106  O14   A    
C8    H128  S    
C5    C9    S    
C119  H119  S    
C93   C106  S    
S3    O60   D    
C71   H63   S    
C8    C12   S    
S1    O55   S    
C5    H125  S    
C6    H130  S    
C51   C67   S    
C125  H152  S    
C127  C128  S    
C78   H90   S    
C49   H49   S    
C42   C50   S    
Cr6   O18   S    
Cr3   O47   S    
C110  H2    S    
C61   C100  S    
C67   C75   S    
C50   H54   S    
Cr1   O1    S    
C112  C116  S    
C58   C74   S    
Cr3   O3    S    
C41   H41   S    
Cr4   O4    S    
C54   H58   S    
C33   H33   S    
C44   H44   S    
C79   H91   S    
C68   C76   S    
C13   C17   S    
C98   O50   A    
C14   C22   S    
C99   O47   A    
C103  O7    A    
C13   C21   S    
C7    C23   S    
C8    C24   S    
C40   C91   S    
S3    O61   S    
C8    H132  S    
Cr7   O31   S    
C54   H78   S    
C49   H53   S    
Cr1   O41   S    
Cr3   O43   S    
C52   H56   S    
C4    C9    S    
C53   H57   S    
C24   H136  S    
C91   O39   A    
C128  H159  S    
C58   C62   S    
C88   C96   S    
C94   C105  S    
C77   H93   S    
C12   C112  S    
C44   H48   S    
C124  H148  S    
C14   C46   S    
C77   C78   S    
C15   C19   S    
C126  H154  S    
C43   H47   S    
C69   H85   S    
C101  O9    A    
C92   O4    A    
C121  H142  S    
C108  O44   A    
C88   H108  S    
C71   H87   S    
C2    O26   A    
C127  H156  S    
Cr11  O39   S    
C21   H133  S    
Cr7   O51   S    
C116  H116  S    
Cr8   O52   S    
C113  H81   S    
C122  H144  S    
Cr3   O23   S    
Cr11  O11   S    
C17   C117  S    
C42   C62   S    
C19   C119  S    
Cr10  O34   S    
C9    C109  S    
Cr12  O40   S    
C16   C116  S    
C100  O48   A    
C20   H124  S    
C115  H115  S    
C27   H23   S    
C25   H21   S    
C26   H18   S    
S4    O63   D    
C117  H117  S    
C106  O42   A    
C74   H70   S    
C123  C124  S    
C18   H14   S    
C11   C111  S    
C29   C34   S    
C33   C37   S    
C82   H109  S    
C45   O29   A    
C30   H28   S    
S3    O59   D    
C4    O24   A    
C79   C95   S    
C89   O37   A    
C80   H92   S    
Cr5   O29   S    
Cr5   O25   S    
O64   H140  S    
C70   H62   S    
C76   H72   S    
Cr1   O17   S    
C80   H96   S    
C123  H147  S    
Cr3   O19   S    
Cr4   O20   S    
Cr12  O16   S    
C32   H39   S    
C39   C92   S    
C124  H150  S    
C112  S4    S    
C41   H45   S    
C27   H19   S    
C60   O68   S    
C14   C18   S    
C107  O15   A    
C68   C104  S    
C17   H13   S    
C6    C10   S    
C1    O25   A    
C92   O40   A    
C22   H6    S    
C6    H126  S    
C103  O11   A    
C2    O22   A    
C114  H114  S    
C65   C69   S    
C77   C93   S    
Cr4   O44   S    
C84   H111  S    
C67   C71   S    
C19   H15   S    
C51   H55   S    
Cr2   O2    S    
C3    O27   A    
C53   H77   S    
Cr12  O36   S    
C29   C37   S    
C34   H34   S    
C46   O30   A    
C43   H43   S    
C85   H104  S    
C9    C117  S    
O58   H138  S    
C66   C102  S    
C117  H9    S    
C84   C87   S    
C3    O23   A    
C11   C119  S    
C16   C48   S    
C29   H27   S    
O65   C121  S    
C7    C11   S    
C38   C89   S    
C17   H121  S    
C87   H102  S    
C49   C65   S    
C89   O1    A    
C23   H7    S    
C56   H80   S    
C91   O3    A    
Cr1   O45   S    
Cr2   O42   S    
C65   C73   S    
C84   C96   S    
Cr4   O48   S    
Cr8   O8    S    
C86   C94   S    
C25   C37   S    
C12   C120  S    
C27   C39   S    
S1    O54   D    
C35   H35   S    
Cr9   O9    S    
C29   H38   S    
C80   C96   S    
C52   C68   S    
C16   C20   S    
C15   C23   S    
C16   C24   S    
C97   O45   A    
C101  O5    A    
C53   C61   S    
C102  O10   A    
C97   O49   A    
C57   O65   S    
C32   H26   S    
C35   H30   S    
C1    O21   A    
C32   C35   S    
C36   C40   S    
C33   H32   S    
C34   H31   S    
C59   H67   S    
Cr6   O50   S    
C73   H73   S    
C55   C63   S    
Cr10  O10   S    
C46   O34   A    
C109  S1    S    
C10   C118  S    
C81   C93   S    
C83   C95   S    
C20   H16   S    
C82   H100  S    
Cr9   O13   S    
C50   C66   S    
C100  O52   A    
C77   H89   S    
C58   O66   S    
C28   H20   S    
C26   H22   S    
C59   C75   S    
C128  H158  S    
C74   H74   S    
C110  C114  S    
C58   H66   S    
C30   C33   S    
C34   C38   S    
C57   C73   S    
C96   C107  S    
C47   O35   A    
C4    O28   A    
C118  H10   S    
S2    O57   D    
C90   O38   A    
Cr6   O30   S    
C109  C113  S    
C126  H153  S    
C86   H103  S    
Cr1   O21   S    
Cr2   O18   S    
Cr10  O14   S    
C3    C10   S    
Cr11  O19   S    
Cr12  O20   S    
C31   C39   S    
C32   C40   S    
C125  H151  S    
C127  H157  S    
C55   H79   S    
C79   C80   S    
C59   O67   S    
C27   C28   S    
C28   H24   S    
C111  C115  S    
C122  H143  S    
C13   C113  S    
