data_mof_unit_52099.cif
_audit_creation_date              2012-12-10T17:29:20-0500
_audit_creation_method            fapswitch 2.2
_symmetry_space_group_name_H-M    P1
_symmetry_Int_Tables_number       1
_space_group_crystal_system       triclinic
_cell_length_a                    12.066848
_cell_length_b                    12.80025
_cell_length_c                    13.070115
_cell_angle_alpha                 86.289346
_cell_angle_beta                  113.232781
_cell_angle_gamma                 94.457318
_cell_volume                      1848.19887331

loop_
_atom_site_label
_atom_site_type_symbol
_atom_type_description
_atom_site_fract_x
_atom_site_fract_y
_atom_site_fract_z
_atom_type_partial_charge
C1    C     C_R   0.476737 0.299618 0.499162 0.882136
C2    C     C_R   0.611477 0.496215 0.829378 -0.097331
C3    C     C_R   0.545513 0.811708 0.517036 -0.166872
C4    C     C_R   0.566887 0.498072 0.708481 0.854987
C5    C     C_R   0.460854 0.188016 0.498345 -0.086788
C6    C     C_R   0.348526 0.032232 0.412480 -0.161872
C7    C     C_R   0.353603 0.139099 0.425934 -0.168656
C8    C     C_R   0.559979 0.131051 0.562593 -0.179923
C9    C     C_R   0.556737 0.024327 0.549832 0.085892
C10   C     C_R   0.450527 0.975396 0.472129 0.103040
C11   C     C_R   0.447477 0.870558 0.454269 -0.262329
C12   C     C_R   0.571466 0.517382 0.994330 -0.014324
C13   C     C_R   0.651827 0.857956 0.597998 -0.140506
C14   C     C_R   0.658767 0.967144 0.610789 0.449791
C15   C     C_R   0.021199 0.613650 0.414347 -0.272500
C16   C     C_R   0.525168 0.700248 0.505615 0.905831
C17   C     C_R   0.137243 0.600622 0.419412 0.034223
C18   C     C_R   0.153332 0.448330 0.535663 0.036632
C19   C     C_R   0.033804 0.455722 0.530805 0.031431
C20   C     C_R   0.968139 0.541934 0.471233 0.012887
C21   C     C_R   0.851193 0.554525 0.469514 -0.024758
C22   C     C_R   0.861337 0.397722 0.580795 0.521174
C23   C     C_R   0.551404 0.547179 0.882893 0.088133
C24   C     C_R   0.980300 0.382879 0.587144 -0.198983
C25   C     C_R   0.433912 0.505171 0.291441 0.885706
C26   C     C_R   0.315658 0.649024 0.016733 -0.187055
C27   C     C_R   0.398260 0.527319 0.173061 -0.043301
C28   C     C_R   0.706708 0.432906 0.890851 -0.226999
C29   C     C_R   0.742013 0.419230 0.005061 -0.100661
C30   C     C_R   0.677129 0.461874 0.059148 -0.012282
C31   C     C_2   0.749198 0.792573 0.675708 0.354610
C32   C     C_2   0.792823 0.653925 0.423096 0.436802
C33   C     C_2   0.047648 0.293348 0.654941 0.357138
C34   C     C_R   0.482912 0.543056 0.033227 0.086253
C35   C     C_2   0.732266 0.460144 0.182751 0.359319
C36   C     C_R   0.398429 0.619215 0.974410 0.179820
C37   C     C_R   0.397189 0.663522 0.873936 -0.235723
C38   C     C_R   0.470785 0.626181 0.827178 -0.162429
C39   C     C_R   0.470344 0.489883 0.124625 -0.250622
C40   C     C_R   0.318149 0.605331 0.118041 -0.176414
H1    H     H_    0.262450 0.635814 0.155731 0.151529
H2    H     H_    0.520849 0.421849 0.163340 0.143482
H3    H     H_    0.754370 0.394081 0.850451 0.191121
H4    H     H_    0.821045 0.375423 0.051316 0.190297
H5    H     H_    0.464738 0.660412 0.747369 0.167367
H6    H     H_    0.366306 0.833333 0.393429 0.158261
H7    H     H_    0.782212 0.729750 0.645822 0.087460
H8    H     H_    0.833545 0.980292 0.691596 0.361478
H9    H     H_    0.840057 0.727514 0.456712 0.025716
H10   H     H_    0.845418 0.264229 0.657127 0.324730
H11   H     H_    0.052143 0.277466 0.739026 0.082077
H12   H     H_    0.266505 0.994632 0.353717 0.144987
H13   H     H_    0.707784 0.516063 0.227372 0.142425
H14   H     H_    0.276753 0.184111 0.376100 0.166729
H15   H     H_    0.640638 0.171307 0.620175 0.221206
H16   H     H_    0.973690 0.679660 0.365092 0.143007
H17   H     H_    0.176558 0.656270 0.375547 0.126070
H18   H     H_    0.335318 0.723388 0.828914 0.154672
H19   H     H_    0.209758 0.387032 0.584733 0.174406
H20   H     H_    0.252631 0.708672 0.973786 0.148167
N1    N     N_R   0.798200 0.480260 0.519790 -0.120305
N2    N     N_R   0.201820 0.519740 0.480210 -0.116134
O1    O     O_R   0.579910 0.341070 0.505280 -0.557395
O2    O     O_3   0.762522 0.019903 0.681686 -0.760221
O3    O     O_2   0.696093 0.655782 0.343823 -0.559538
O4    O     O_3   0.806891 0.332069 0.637491 -0.756020
O5    O     O_2   0.093937 0.234057 0.615839 -0.547261
O6    O     O_2   0.807133 0.397295 0.236025 -0.556982
O7    O     O_R   0.388440 0.353740 0.492580 -0.615719
O8    O     O_R   0.643280 0.490550 0.663120 -0.584524
O9    O     O_R   0.451810 0.503220 0.650420 -0.624361
O10   O     O_R   0.611560 0.646260 0.507420 -0.616377
O11   O     O_R   0.420090 0.658930 0.494720 -0.632766
O12   O     O_R   0.548190 0.496780 0.349580 -0.562159
O13   O     O_R   0.356720 0.509450 0.336880 -0.625533
O14   O     O_2   0.793100 0.808173 0.775412 -0.540066
Zn1   Zn    Zn3+2 0.627850 0.491540 0.508480 1.022590
Zn2   Zn    Zn3+2 0.372150 0.508460 0.491520 0.952107

loop_
_geom_bond_atom_site_label_1
_geom_bond_atom_site_label_2
_ccdc_geom_bond_type
C35   H13   S    
C19   C20   A    
C16   O10   A    
C4    O8    A    
C12   C23   A    
C29   C30   A    
C30   C35   S    
C1    C5    S    
C28   C29   A    
C37   C38   A    
C25   O12   A    
H8    O2    S    
C18   C19   A    
C22   O4    S    
C38   H5    S    
N1    Zn1   S    
C8    C9    A    
O12   Zn1   S    
O11   Zn2   S    
C9    C10   A    
C21   N1    A    
C37   H18   S    
C3    C13   A    
C31   H7    S    
C13   C14   A    
O8    Zn1   S    
O7    Zn2   S    
C1    O1    A    
C8    H15   S    
N2    Zn2   S    
C39   H2    S    
C15   C20   A    
C21   C32   S    
C16   O11   A    
C27   C39   A    
C5    C7    A    
C18   N2    A    
C1    O7    A    
C34   C39   A    
C25   O13   A    
C2    C4    S    
C9    C14   A    
O10   Zn1   S    
C17   N2    A    
C27   C40   A    
C14   O2    S    
H10   O4    S    
C26   C36   A    
C40   H1    S    
C29   H4    S    
C22   C24   A    
C33   H11   S    
C12   C34   A    
C33   O5    D    
O1    Zn1   S    
C15   C17   A    
C36   C37   A    
C12   C30   A    
C13   C31   S    
C6    C10   A    
C5    C8    A    
C6    C7    A    
C25   C27   S    
C23   C38   A    
C28   H3    S    
C24   C33   S    
C15   H16   S    
C19   C24   A    
C22   N1    A    
C26   C40   A    
C31   O14   D    
C35   O6    D    
C34   C36   A    
O9    Zn2   S    
O13   Zn2   S    
C32   H9    S    
C3    C11   A    
C10   C11   A    
C18   H19   S    
C20   C21   A    
C2    C23   A    
C11   H6    S    
C2    C28   A    
C7    H14   S    
C6    H12   S    
C26   H20   S    
C4    O9    A    
C3    C16   S    
C17   H17   S    
C32   O3    D    
