data_mof_unit_63366.cif
_audit_creation_date              2012-12-10T19:50:44-0500
_audit_creation_method            fapswitch 2.2
_symmetry_space_group_name_H-M    P1
_symmetry_Int_Tables_number       1
_space_group_crystal_system       triclinic
_cell_length_a                    14.989799
_cell_length_b                    14.16046
_cell_length_c                    11.547342
_cell_angle_alpha                 90.08557
_cell_angle_beta                  90.027996
_cell_angle_gamma                 89.930945
_cell_volume                      2451.06228989

loop_
_atom_site_label
_atom_site_type_symbol
_atom_type_description
_atom_site_fract_x
_atom_site_fract_y
_atom_site_fract_z
_atom_type_partial_charge
C1    C     C_R   0.327833 0.500019 0.500359 1.065873
C2    C     C_R   0.499983 0.500053 0.718262 0.894175
C3    C     C_R   0.566615 0.104276 0.440702 0.490431
C4    C     C_R   0.561098 0.895740 0.567648 0.469762
C5    C     C_R   0.434136 0.104004 0.558139 0.454880
C6    C     C_R   0.440393 0.895791 0.430181 0.461431
C7    C     C_1   0.500144 0.499783 0.161374 -0.123594
C8    C     C_1   0.500058 0.500113 0.838605 -0.155041
C9    C     C_1   0.500175 0.499813 0.059267 0.037103
C10   C     C_1   0.500131 0.499993 0.940705 0.024814
C11   C     C_R   0.563397 0.204369 0.438004 0.411507
C12   C     C_R   0.672375 0.499956 0.500120 1.049355
C13   C     C_R   0.558497 0.795617 0.569456 0.422616
C14   C     C_R   0.436819 0.204092 0.561573 0.419982
C15   C     C_R   0.440054 0.795450 0.432464 0.388411
C16   C     C_R   0.094272 0.567671 0.568191 0.628330
C17   C     C_R   0.906693 0.425079 0.554592 0.623957
C18   C     C_R   0.907174 0.575169 0.451764 0.612745
C19   C     C_R   0.093639 0.431621 0.438599 0.619128
C20   C     C_R   0.186451 0.567807 0.567257 0.434481
C21   C     C_R   0.814524 0.424747 0.553289 0.509439
C22   C     C_R   0.815010 0.575259 0.450457 0.513785
C23   C     C_R   0.232125 0.499916 0.501594 -0.548745
C24   C     C_R   0.185798 0.431503 0.437666 0.509269
C25   C     C_3   0.612680 0.244920 0.258358 -0.104347
C26   C     C_3   0.597858 0.755974 0.753859 -0.099866
C27   C     C_3   0.387455 0.244485 0.741364 -0.103662
C28   C     C_3   0.294187 0.761164 0.390005 -0.017286
C29   C     C_R   0.768471 0.499910 0.501136 -0.557016
C30   C     C_R   0.048325 0.499721 0.503721 -0.243657
C31   C     C_R   0.952537 0.500146 0.503741 -0.251832
C32   C     C_R   0.500518 0.053035 0.499242 -0.104383
C33   C     C_R   0.500615 0.946787 0.499165 -0.087273
C34   C     C_R   0.500056 0.499929 0.281732 0.891795
F1    F     F_    0.633540 0.057443 0.385971 -0.565305
F2    F     F_    0.770576 0.352426 0.605198 -0.545772
F3    F     F_    0.771573 0.647481 0.397341 -0.543918
F4    F     F_    0.229644 0.366454 0.372362 -0.556348
F5    F     F_    0.623016 0.942875 0.631108 -0.578459
F6    F     F_    0.367426 0.056872 0.612544 -0.591536
F7    F     F_    0.384993 0.943337 0.357718 -0.597921
F8    F     F_    0.049652 0.632541 0.632843 -0.541984
F9    F     F_    0.951432 0.353116 0.606389 -0.532413
F10   F     F_    0.952392 0.647076 0.400845 -0.547576
F11   F     F_    0.048401 0.366690 0.374878 -0.538055
F12   F     F_    0.230983 0.632076 0.632786 -0.593182
H1    H     H_    0.651614 0.300052 0.212689 0.176290
H2    H     H_    0.253775 0.700276 0.359975 0.162795
H3    H     H_    0.268556 0.824625 0.344610 0.225948
H4    H     H_    0.283461 0.767951 0.485184 0.182930
H5    H     H_    0.541276 0.255075 0.234320 0.129040
H6    H     H_    0.636694 0.175272 0.226872 0.216905
H7    H     H_    0.632747 0.699840 0.803264 0.178147
H8    H     H_    0.525096 0.748201 0.771391 0.130836
H9    H     H_    0.622078 0.824886 0.787202 0.218615
H10   H     H_    0.347898 0.299177 0.787307 0.180705
H11   H     H_    0.458754 0.255436 0.765300 0.128658
H12   H     H_    0.364344 0.174560 0.772623 0.214924
N1    N     N_R   0.500000 0.252470 0.500000 -0.222751
N2    N     N_R   0.500000 0.747530 0.500000 -0.211742
O1    O     O_R   0.369060 0.579480 0.500010 -0.580043
O2    O     O_3   0.618784 0.744991 0.635395 -0.520381
O3    O     O_3   0.372477 0.254231 0.621292 -0.519653
O4    O     O_3   0.384259 0.744203 0.360512 -0.565044
O5    O     O_R   0.630940 0.420520 0.499990 -0.530985
O6    O     O_R   0.630940 0.579480 0.499990 -0.531272
O7    O     O_R   0.369060 0.420520 0.500010 -0.528305
O8    O     O_R   0.500010 0.579480 0.334450 -0.562567
O9    O     O_R   0.499990 0.420520 0.665550 -0.612844
O10   O     O_R   0.499990 0.579480 0.665550 -0.607676
O11   O     O_R   0.500010 0.420520 0.334450 -0.620211
O12   O     O_3   0.627430 0.254819 0.378499 -0.514066
Zn1   Zn    Zn3+2 0.500000 0.606140 0.500000 1.091711
Zn2   Zn    Zn3+2 0.500000 0.393860 0.500000 1.085939

loop_
_geom_bond_atom_site_label_1
_geom_bond_atom_site_label_2
_ccdc_geom_bond_type
O11   Zn2   S    
C24   F4    S    
C23   C24   A    
C17   F9    S    
C21   C29   A    
C22   C29   A    
C18   F10   S    
C12   C29   S    
C2    O9    A    
C9    C10   S    
C25   H1    S    
C12   O5    A    
C25   H5    S    
C4    F5    S    
C3    F1    S    
C15   O4    S    
C5    C32   A    
C26   H9    S    
O10   Zn1   S    
C19   F11   S    
C19   C24   A    
C26   O2    S    
C25   H6    S    
O9    Zn2   S    
O7    Zn2   S    
C18   C22   A    
C32   C33   S    
O6    Zn1   S    
C14   N1    A    
C19   C30   A    
N1    Zn2   S    
C28   H2    S    
C5    C14   A    
C3    C32   A    
C27   O3    S    
C11   N1    A    
C14   O3    S    
C28   O4    S    
C16   C20   A    
C1    O7    A    
C1    C23   S    
C13   O2    S    
C7    C9    T    
C27   H11   S    
C30   C31   S    
C17   C31   A    
C7    C34   S    
C20   F12   S    
C20   C23   A    
C11   O12   S    
C3    C11   A    
C4    C33   A    
C16   C30   A    
C26   H7    S    
C16   F8    S    
N2    Zn1   S    
C1    O1    A    
C6    C33   A    
C8    C10   T    
C28   H3    S    
C5    F6    S    
C34   O8    A    
C4    C13   A    
C21   F2    S    
C28   H4    S    
C27   H10   S    
C25   O12   S    
C26   H8    S    
C18   C31   A    
O1    Zn1   S    
O8    Zn1   S    
C2    O10   A    
C22   F3    S    
C12   O6    A    
C34   O11   A    
C27   H12   S    
C15   N2    A    
C2    C8    S    
O5    Zn2   S    
C13   N2    A    
C6    C15   A    
C6    F7    S    
C17   C21   A    
