data_mof_unit_18540.cif
_audit_creation_date              2012-12-10T16:52:07-0500
_audit_creation_method            fapswitch 2.2
_symmetry_space_group_name_H-M    P1
_symmetry_Int_Tables_number       1
_space_group_crystal_system       triclinic
_cell_length_a                    7.820074
_cell_length_b                    8.670517
_cell_length_c                    14.888757
_cell_angle_alpha                 92.019796
_cell_angle_beta                  85.701313
_cell_angle_gamma                 92.904378
_cell_volume                      1004.88418767

loop_
_atom_site_label
_atom_site_type_symbol
_atom_type_description
_atom_site_fract_x
_atom_site_fract_y
_atom_site_fract_z
_atom_type_partial_charge
C1    C     C_R   0.544252 0.794041 0.498100 0.941065
C2    C     C_R   0.529729 0.640299 0.814484 0.388298
C3    C     C_R   0.493045 0.499871 0.232320 -0.258058
C4    C     C_R   0.506955 0.500129 0.767680 -0.258054
C5    C     C_R   0.512826 0.639928 0.189523 0.367937
C6    C     C_R   0.487176 0.360073 0.810477 0.367937
C7    C     C_R   0.540126 0.638791 0.095659 -0.084830
C8    C     C_R   0.459879 0.361210 0.904340 -0.084826
C9    C     C_R   0.497644 0.499871 0.047013 -0.086236
C10   C     C_R   0.502364 0.500127 0.952987 -0.086238
C11   C     C_R   0.450246 0.360835 0.092751 -0.090866
C12   C     C_R   0.455748 0.205959 0.501899 0.941071
C13   C     C_R   0.549754 0.639164 0.907249 -0.090865
C14   C     C_R   0.613726 0.768328 0.049339 0.381889
C15   C     C_R   0.386271 0.231674 0.950661 0.381886
C16   C     C_R   0.618300 0.768799 0.955341 0.373087
C17   C     C_R   0.381696 0.231201 0.044658 0.373084
C18   C     C_2   0.563694 0.953944 0.484279 0.154672
C19   C     C_2   0.436305 0.046056 0.515720 0.154676
C20   C     C_R   0.501940 0.499816 0.672438 0.981160
C21   C     C_R   0.498060 0.500185 0.327562 0.981161
C22   C     C_R   0.470265 0.359700 0.185517 0.388304
Cl1   Cl    Cl    0.485923 0.188302 0.245004 -0.370480
Cl2   Cl    Cl    0.256458 0.989893 0.590001 -0.343428
Cl3   Cl    Cl    0.041788 0.331346 0.396407 -0.315320
Cl4   Cl    Cl    0.958211 0.668654 0.603593 -0.315322
Cl5   Cl    Cl    0.514043 0.811695 0.755002 -0.370481
Cl6   Cl    Cl    0.479164 0.811005 0.255462 -0.402513
Cl7   Cl    Cl    0.520832 0.188995 0.744538 -0.402514
Cl8   Cl    Cl    0.730750 0.919216 0.105110 -0.318914
Cl9   Cl    Cl    0.269231 0.080798 0.894888 -0.318907
Cl10  Cl    Cl    0.738330 0.922286 0.900452 -0.330608
Cl11  Cl    Cl    0.261660 0.077713 0.099546 -0.330601
Cl12  Cl    Cl    0.743539 0.010107 0.409996 -0.343431
N1    N     N_2   0.950330 0.457950 0.475660 0.129444
N2    N     N_2   0.049670 0.542050 0.524340 0.129445
O1    O     O_R   0.389250 0.738570 0.505970 -0.583646
O2    O     O_R   0.610750 0.261430 0.494030 -0.583648
O3    O     O_R   0.678390 0.711620 0.490370 -0.567740
O4    O     O_R   0.321610 0.288380 0.509630 -0.567739
O5    O     O_R   0.355420 0.513510 0.639950 -0.578791
O6    O     O_R   0.644580 0.486490 0.360050 -0.578794
O7    O     O_R   0.644560 0.486560 0.624350 -0.584097
O8    O     O_R   0.355440 0.513440 0.375650 -0.584096
Zn1   Zn    Zn3+2 0.306940 0.517990 0.510420 1.197964
Zn2   Zn    Zn3+2 0.693060 0.482010 0.489580 1.197962

loop_
_geom_bond_atom_site_label_1
_geom_bond_atom_site_label_2
_ccdc_geom_bond_type
C12   O4    A    
C2    C4    A    
C15   Cl9   S    
C2    Cl5   S    
C16   Cl10  S    
C21   O8    A    
C18   Cl12  S    
C9    C10   A    
C11   C22   A    
N1    N2    D    
C1    O1    A    
C6    Cl7   S    
C19   Cl2   S    
N2    Zn1   S    
C9    C11   A    
C1    C18   S    
C17   Cl11  S    
Cl3   N1    S    
O3    Zn2   S    
C12   C19   S    
C4    C6    A    
C14   Cl8   S    
C20   O5    A    
C8    C15   A    
C12   O2    A    
O4    Zn1   S    
O7    Zn2   S    
C14   C16   A    
O2    Zn2   S    
C3    C21   S    
C1    O3    A    
O1    Zn1   S    
C21   O6    A    
C5    Cl6   S    
C7    C9    A    
C20   O7    A    
O8    Zn1   S    
C8    C10   A    
C18   C19   D    
O6    Zn2   S    
C13   C16   A    
Cl4   N2    S    
C5    C7    A    
C2    C13   A    
O5    Zn1   S    
C22   Cl1   S    
C11   C17   A    
C3    C22   A    
C6    C8    A    
C15   C17   A    
N1    Zn2   S    
C7    C14   A    
C3    C5    A    
C10   C13   A    
C4    C20   S    
