data_mof_unit_36706.cif
_audit_creation_date              2012-10-26T18:54:57-0400
_audit_creation_method            fapswitch 2.2
_symmetry_space_group_name_H-M    P1
_symmetry_Int_Tables_number       1
_space_group_crystal_system       triclinic
_cell_length_a                    10.946023
_cell_length_b                    9.533986
_cell_length_c                    10.822289
_cell_angle_alpha                 90.745839
_cell_angle_beta                  91.810229
_cell_angle_gamma                 91.239149
_cell_volume                      1128.47203841

loop_
_atom_site_label
_atom_site_type_symbol
_atom_type_description
_atom_site_fract_x
_atom_site_fract_y
_atom_site_fract_z
_atom_type_partial_charge
C1    C     C_R   0.261743 0.498690 0.501152 0.563737
C2    C     C_R   0.507821 0.619913 0.940177 0.005117
C3    C     C_R   0.470745 0.499265 0.129043 -0.023787
C4    C     C_R   0.471589 0.502021 0.870012 -0.002604
C5    C     C_R   0.408812 0.388831 0.061549 -0.033717
C6    C     C_R   0.408686 0.390581 0.929650 -0.009153
C7    C     C_3   0.622519 0.707730 0.941584 -0.250621
C8    C     C_3   0.621323 0.705614 0.081473 -0.249863
C9    C     C_R   0.058240 0.373779 0.462355 -0.044101
C10   C     C_R   0.930916 0.378318 0.447873 -0.053680
C11   C     C_R   0.870084 0.503823 0.473176 -0.039525
C12   C     C_R   0.736786 0.501309 0.488841 0.549786
C13   C     C_R   0.126655 0.497518 0.496290 -0.017077
C14   C     C_R   0.938837 0.629690 0.489366 -0.045533
C15   C     C_R   0.064384 0.625026 0.513685 -0.043424
C16   C     C_2   0.338390 0.280907 0.129391 0.235722
C17   C     C_2   0.338838 0.281983 0.855458 0.291613
C18   C     C_1   0.114159 0.238718 0.445233 0.264115
C19   C     C_1   0.864256 0.256847 0.395227 0.249069
C20   C     C_1   0.885613 0.765095 0.465860 0.262679
C21   C     C_1   0.125513 0.751936 0.562693 0.268637
C22   C     C_1   0.343923 0.850271 0.332451 0.286681
C23   C     C_R   0.427946 0.072064 0.417897 0.053268
C24   C     C_1   0.668025 0.863879 0.654464 0.248832
C25   C     C_R   0.574942 0.078290 0.579728 0.030119
C26   C     C_R   0.425562 0.923665 0.419048 0.106089
C27   C     C_R   0.576723 0.929889 0.578623 0.103158
C28   C     C_R   0.491405 0.499026 0.262454 0.526501
C29   C     C_R   0.493332 0.500523 0.737579 0.577880
C30   C     C_R   0.507375 0.618098 0.066412 0.027084
Cu1   Cu    Cu3+1 0.500000 0.640660 0.500000 1.015707
Cu2   Cu    Cu3+1 0.500000 0.359340 0.500000 1.008629
H1    H     H_    0.700880 0.650976 0.903349 0.166297
H2    H     H_    0.604179 0.809905 0.123909 0.171714
H3    H     H_    0.606089 0.814142 0.904862 0.169198
H4    H     H_    0.698606 0.647638 0.124240 0.144689
H5    H     H_    0.372121 0.126948 0.351255 0.150513
H6    H     H_    0.635843 0.138102 0.642294 0.123066
H7    H     H_    0.292322 0.310808 0.212774 0.118612
H8    H     H_    0.348489 0.171562 0.874870 0.167690
N1    N     N_R   0.500000 0.852070 0.500000 -0.259733
N2    N     N_R   0.500000 0.147940 0.500000 -0.245045
N3    N     N_1   0.155283 0.129100 0.431899 -0.268491
N4    N     N_1   0.810945 0.161071 0.352306 -0.240980
N5    N     N_1   0.844815 0.873447 0.445019 -0.248748
N6    N     N_1   0.173538 0.852947 0.602245 -0.236858
N7    N     N_1   0.277814 0.792183 0.262536 -0.268893
N8    N     N_1   0.744322 0.812737 0.713677 -0.314871
O1    O     O_R   0.319640 0.618740 0.499990 -0.502167
O2    O     O_2   0.268610 0.315937 0.771755 -0.481133
O3    O     O_R   0.680360 0.618740 0.500010 -0.491536
O4    O     O_R   0.319620 0.381170 0.499990 -0.480133
O5    O     O_R   0.680380 0.381170 0.500010 -0.498403
O6    O     O_R   0.499990 0.618810 0.319660 -0.503644
O7    O     O_R   0.500010 0.618810 0.680340 -0.494579
O8    O     O_R   0.499960 0.381240 0.319650 -0.516394
O9    O     O_R   0.500040 0.381240 0.680350 -0.492623
O10   O     O_2   0.333791 0.158134 0.096033 -0.528884

loop_
_geom_bond_atom_site_label_1
_geom_bond_atom_site_label_2
_ccdc_geom_bond_type
C17   O2    D    
C25   N2    A    
C3    C30   A    
C2    C4    A    
C11   C12   S    
C25   H6    S    
C25   C27   A    
Cu2   O5    S    
Cu1   N1    S    
C9    C10   A    
C27   N1    A    
C4    C29   S    
C24   C27   S    
C10   C19   S    
C2    C30   A    
C8    C30   S    
C28   O6    A    
C22   N7    T    
C28   O8    A    
C7    C8    S    
C16   O10   D    
C18   N3    T    
C12   O5    A    
C7    H1    S    
C23   N2    A    
C1    O1    A    
Cu2   O9    S    
Cu1   O1    S    
C3    C28   S    
C1    O4    A    
C29   O9    A    
C13   C15   A    
Cu1   O6    S    
C8    H4    S    
C5    C6    A    
C11   C14   A    
C1    C13   S    
C10   C11   A    
C16   H7    S    
C24   N8    T    
C14   C20   S    
C9    C18   S    
C15   C21   S    
C12   O3    A    
C19   N4    T    
C4    C6    A    
C21   N6    T    
C22   C26   S    
C23   C26   A    
C8    H2    S    
C6    C17   S    
C9    C13   A    
C14   C15   A    
Cu2   O4    S    
C5    C16   S    
Cu2   N2    S    
C29   O7    A    
C2    C7    S    
Cu1   O7    S    
C23   H5    S    
C7    H3    S    
Cu2   O8    S    
Cu1   Cu2   S    
C20   N5    T    
C26   N1    A    
Cu1   O3    S    
C3    C5    A    
C17   H8    S    
