data_mof_unit_62042.cif
_audit_creation_date              2012-10-26T20:09:02-0400
_audit_creation_method            fapswitch 2.2
_symmetry_space_group_name_H-M    P1
_symmetry_Int_Tables_number       1
_space_group_crystal_system       triclinic
_cell_length_a                    12.752915
_cell_length_b                    13.903889
_cell_length_c                    15.898341
_cell_angle_alpha                 90.224444
_cell_angle_beta                  92.72255
_cell_angle_gamma                 97.945539
_cell_volume                      2788.64536339

loop_
_atom_site_label
_atom_site_type_symbol
_atom_type_description
_atom_site_fract_x
_atom_site_fract_y
_atom_site_fract_z
_atom_type_partial_charge
C1    C     C_R   0.483573 0.315826 0.499111 0.551111
C2    C     C_2   0.543501 0.978392 0.502408 -0.116653
C3    C     C_2   0.456495 0.021610 0.497488 -0.113584
C4    C     C_R   0.500647 0.500017 0.339906 0.552112
C5    C     C_1   0.465654 0.125428 0.498039 -0.036626
C6    C     C_1   0.534342 0.874573 0.501882 -0.043438
C7    C     C_1   0.474186 0.212484 0.498551 -0.001038
C8    C     C_2   0.028363 0.473158 0.476351 -0.157793
C9    C     C_2   0.971637 0.526841 0.523629 -0.161025
C10   C     C_1   0.854576 0.519282 0.516948 0.145851
C11   C     C_1   0.145423 0.480717 0.483036 0.149772
C12   C     C_3   0.395447 0.438666 0.947082 -0.174007
C13   C     C_R   0.516427 0.684174 0.500875 0.543224
C14   C     C_R   0.499345 0.499966 0.660097 0.546495
C15   C     C_3   0.395342 0.439027 0.044840 0.132371
C16   C     C_3   0.596292 0.453538 0.051289 -0.199405
C17   C     C_3   0.594502 0.452967 0.953783 -0.216930
C18   C     C_1   0.497953 0.499613 0.749636 -0.023272
C19   C     C_3   0.499924 0.497974 0.082667 0.070354
C20   C     C_3   0.498215 0.498720 0.917185 0.029753
C21   C     C_3   0.505496 0.603738 0.952119 -0.231032
C22   C     C_3   0.506732 0.603359 0.049616 -0.261101
C23   C     C_1   0.497702 0.499247 0.825105 -0.070036
C24   C     C_1   0.501574 0.499038 0.174876 -0.017585
C25   C     C_1   0.501873 0.499655 0.250365 0.003926
C26   C     C_1   0.525812 0.787517 0.501400 -0.009851
Cl1   Cl    Cl    0.374541 0.316973 0.083451 -0.625887
Cu1   Cu    Cu3+1 0.395330 0.493960 0.494700 1.010778
Cu2   Cu    Cu3+1 0.604670 0.506040 0.505300 1.000302
H1    H     H_    0.388776 0.363155 0.921894 0.174735
H2    H     H_    0.595686 0.378220 0.074748 0.179026
H3    H     H_    0.590384 0.376960 0.930262 0.138889
H4    H     H_    0.669509 0.494211 0.932487 0.123374
H5    H     H_    0.438848 0.637862 0.071211 0.116970
H6    H     H_    0.580671 0.647761 0.075464 0.129179
H7    H     H_    0.436797 0.638054 0.926954 0.125914
H8    H     H_    0.327021 0.474240 0.064519 0.134765
H9    H     H_    0.325043 0.469948 0.921168 0.099109
H10   H     H_    0.578767 0.648388 0.931267 0.132295
H11   H     H_    0.378079 0.979331 0.493038 0.141351
H12   H     H_    0.621916 0.020671 0.506860 0.140250
H13   H     H_    0.013557 0.578508 0.569155 0.128654
H14   H     H_    0.986444 0.421490 0.430825 0.133845
H15   H     H_    0.671332 0.496611 0.076573 0.109783
N1    N     N_1   0.238030 0.484880 0.486720 -0.182164
N2    N     N_1   0.761970 0.515120 0.513270 -0.183948
O1    O     O_R   0.399110 0.356330 0.494870 -0.485266
O2    O     O_R   0.575900 0.366540 0.503830 -0.490712
O3    O     O_R   0.411570 0.494900 0.374960 -0.481615
O4    O     O_R   0.588350 0.505100 0.383910 -0.494114
O5    O     O_R   0.424100 0.633460 0.496170 -0.492781
O6    O     O_R   0.600890 0.643670 0.505130 -0.490766
O7    O     O_R   0.411650 0.494900 0.616090 -0.492539
O8    O     O_R   0.588430 0.505100 0.625040 -0.491019

loop_
_geom_bond_atom_site_label_1
_geom_bond_atom_site_label_2
_ccdc_geom_bond_type
C10   N2    T    
Cu2   N2    S    
Cu1   O7    S    
C12   C15   S    
Cu1   O1    S    
C13   C26   S    
C13   O6    A    
C9    C10   S    
C14   C18   S    
C15   Cl1   S    
C21   H10   S    
C20   C23   S    
C4    O3    A    
C12   C20   S    
C4    C25   S    
C8    C9    D    
C1    O2    A    
C21   H7    S    
C2    C6    S    
C21   C22   S    
C20   C21   S    
C16   H2    S    
C15   C19   S    
C22   H6    S    
C9    H13   S    
C6    C26   T    
C17   H4    S    
C16   C19   S    
C13   O5    A    
C8    H14   S    
Cu1   Cu2   S    
C14   O8    A    
C3    H11   S    
C19   C24   S    
C2    C3    D    
Cu2   O4    S    
C8    C11   S    
C12   H9    S    
C22   H5    S    
Cu1   O5    S    
Cu1   N1    S    
C11   N1    T    
Cu2   O8    S    
C2    H12   S    
C18   C23   T    
C14   O7    A    
C24   C25   T    
C19   C22   S    
Cu1   O3    S    
C5    C7    T    
C17   H3    S    
C16   H15   S    
C1    O1    A    
Cu2   O2    S    
C12   H1    S    
C1    C7    S    
C17   C20   S    
C15   H8    S    
C4    O4    A    
C16   C17   S    
C3    C5    S    
Cu2   O6    S    
