data_mof_unit_32642.cif
_audit_creation_date              2012-12-10T17:56:42-0500
_audit_creation_method            fapswitch 2.2
_symmetry_space_group_name_H-M    P1
_symmetry_Int_Tables_number       1
_space_group_crystal_system       triclinic
_cell_length_a                    10.867096
_cell_length_b                    9.601249
_cell_length_c                    10.773561
_cell_angle_alpha                 88.773087
_cell_angle_beta                  91.871443
_cell_angle_gamma                 89.882539
_cell_volume                      1123.22712036

loop_
_atom_site_label
_atom_site_type_symbol
_atom_type_description
_atom_site_fract_x
_atom_site_fract_y
_atom_site_fract_z
_atom_type_partial_charge
C1    C     C_R   0.262596 0.499346 0.506135 0.815390
C2    C     C_R   0.737515 0.499409 0.494354 0.812584
C3    C     C_R   0.936162 0.622742 0.498153 -0.210968
C4    C     C_R   0.063510 0.622828 0.502462 -0.213195
C5    C     C_R   0.424648 0.076282 0.418962 0.015443
C6    C     C_R   0.574561 0.072282 0.581678 0.015428
C7    C     C_R   0.423884 0.927567 0.419773 -0.005921
C8    C     C_R   0.575608 0.923641 0.580752 0.016255
C9    C     C_R   0.510781 0.502116 0.262700 0.815342
C10   C     C_R   0.491009 0.498922 0.737378 0.817148
C11   C     C_R   0.545281 0.765389 0.096901 0.155729
C12   C     C_R   0.389244 0.736764 0.884450 0.146650
C13   C     C_R   0.493499 0.885138 0.036455 0.181311
C14   C     C_R   0.410371 0.870753 0.933090 0.177679
C15   C     C_R   0.456642 0.621749 0.936326 0.013613
C16   C     C_R   0.507541 0.632429 0.056822 0.021361
C17   C     C_R   0.524348 0.507525 0.127736 -0.089680
C18   C     C_R   0.480603 0.497503 0.872291 -0.083544
C19   C     C_R   0.535755 0.382165 0.066756 -0.198527
C20   C     C_R   0.519607 0.378050 0.939123 -0.180410
C21   C     C_R   0.063328 0.369195 0.518493 0.188235
C22   C     C_R   0.937741 0.369459 0.485932 0.187236
C23   C     C_R   0.871827 0.496778 0.490019 -0.077961
C24   C     C_R   0.128471 0.496730 0.511911 -0.077993
Cu1   Cu    Cu3+1 0.500000 0.640660 0.500000 0.952402
Cu2   Cu    Cu3+1 0.500000 0.359340 0.500000 0.957651
H1    H     H_    0.561291 0.289195 0.118832 0.169992
H2    H     H_    0.538327 0.282078 0.892817 0.169772
H3    H     H_    0.888297 0.721825 0.498186 0.172551
H4    H     H_    0.110892 0.721983 0.500983 0.171356
N1    N     N_R   0.500000 0.852070 0.500000 -0.216293
N2    N     N_R   0.500000 0.147940 0.500000 -0.202727
O1    O     O_R   0.319640 0.618740 0.499990 -0.593880
O2    O     O_R   0.680360 0.618740 0.500010 -0.590648
O3    O     O_R   0.319620 0.381170 0.499990 -0.571416
O4    O     O_R   0.680380 0.381170 0.500010 -0.573289
O5    O     O_R   0.500000 0.618810 0.319650 -0.570195
O6    O     O_R   0.500000 0.618810 0.680350 -0.566342
O7    O     O_R   0.499970 0.381240 0.319640 -0.580925
O8    O     O_R   0.500030 0.381240 0.680360 -0.586063
C25   C     C_3   0.658129 0.779454 0.182763 -0.782270
H5    H     H_    0.727595 0.846081 0.137140 0.228647
H6    H     H_    0.633575 0.826992 0.271581 0.242063
H7    H     H_    0.704029 0.677883 0.203648 0.213437
C26   C     C_3   0.283733 0.713661 0.791719 -0.797252
H8    H     H_    0.197640 0.757665 0.827674 0.231353
H9    H     H_    0.302901 0.765102 0.701278 0.250021
H10   H     H_    0.265619 0.601511 0.776726 0.203661
C27   C     C_3   0.527121 0.028318 0.080085 -0.889588
H11   H     H_    0.575812 0.028829 0.171944 0.231021
H12   H     H_    0.587400 0.078145 0.011005 0.236690
H13   H     H_    0.442511 0.091080 0.090288 0.248642
C28   C     C_3   0.349794 0.999339 0.873227 -0.844148
H14   H     H_    0.293656 0.978506 0.788209 0.231402
H15   H     H_    0.288517 0.048754 0.940048 0.244078
H16   H     H_    0.421424 0.074663 0.845072 0.229004
C29   C     C_3   0.121375 0.235549 0.570667 -0.823846
H17   H     H_    0.188808 0.257795 0.647338 0.233823
H18   H     H_    0.051307 0.166611 0.612595 0.229108
H19   H     H_    0.165744 0.177619 0.496544 0.240185
C30   C     C_3   0.880671 0.236884 0.436299 -0.819956
H20   H     H_    0.814093 0.260700 0.358299 0.231147
H21   H     H_    0.951340 0.168449 0.396841 0.228422
H22   H     H_    0.835695 0.177726 0.511282 0.241934
C31   C     C_1   0.344416 0.151975 0.331761 0.279129
N3    N     N_1   0.279585 0.211580 0.261576 -0.291754
C32   C     C_1   0.653508 0.143743 0.669764 0.262934
N4    N     N_1   0.717772 0.199651 0.740456 -0.301770
C33   C     C_1   0.341665 0.855589 0.335053 0.305810
N5    N     N_1   0.275349 0.798972 0.266767 -0.288589
C34   C     C_1   0.657806 0.847888 0.666025 0.302987
N6    N     N_1   0.724020 0.788295 0.734853 -0.289479

loop_
_geom_bond_atom_site_label_1
_geom_bond_atom_site_label_2
_ccdc_geom_bond_type
C7    C33   S    
C15   C18   A    
C6    N2    A    
C27   H11   S    
C21   C29   S    
Cu1   O6    S    
C30   H22   S    
C11   C13   A    
C25   H5    S    
C28   H15   S    
C3    C23   A    
C19   C20   A    
C12   C15   A    
Cu1   O2    S    
C10   O6    A    
C5    N2    A    
C27   H13   S    
C2    O2    A    
C27   H12   S    
C9    O5    A    
C1    O1    A    
C34   N6    T    
C13   C14   A    
C22   C30   S    
Cu2   N2    S    
C3    H3    S    
C25   H6    S    
Cu2   O8    S    
C29   H17   S    
C33   N5    T    
C26   H10   S    
C10   C18   S    
C13   C27   S    
C9    C17   S    
C6    C32   S    
C17   C19   A    
C12   C14   A    
C11   C25   S    
C18   C20   A    
C2    O4    A    
C26   H9    S    
C30   H20   S    
C4    C24   A    
C25   H7    S    
Cu2   O7    S    
C29   H18   S    
C7    N1    A    
C15   C16   A    
C21   C24   A    
C10   O8    A    
C32   N4    T    
C26   H8    S    
Cu2   O3    S    
C9    O7    A    
C14   C28   S    
C19   H1    S    
C1    O3    A    
C1    C24   S    
C5    C31   S    
C31   N3    T    
C11   C16   A    
C28   H16   S    
Cu2   O4    S    
C2    C23   S    
C5    C7    A    
C22   C23   A    
C16   C17   A    
C29   H19   S    
C6    C8    A    
C20   H2    S    
Cu1   O5    S    
Cu1   Cu2   S    
C21   C22   A    
C8    N1    A    
Cu1   N1    S    
C30   H21   S    
C4    H4    S    
C3    C4    A    
C28   H14   S    
Cu1   O1    S    
C12   C26   S    
C8    C34   S    
