data_mof_unit_19953.cif
_audit_creation_date              2012-10-26T20:01:54-0400
_audit_creation_method            fapswitch 2.2
_symmetry_space_group_name_H-M    P1
_symmetry_Int_Tables_number       1
_space_group_crystal_system       triclinic
_cell_length_a                    11.705665
_cell_length_b                    10.790287
_cell_length_c                    9.616694
_cell_angle_alpha                 90.129969
_cell_angle_beta                  90.038142
_cell_angle_gamma                 92.541492
_cell_volume                      1213.4621786

loop_
_atom_site_label
_atom_site_type_symbol
_atom_type_description
_atom_site_fract_x
_atom_site_fract_y
_atom_site_fract_z
_atom_type_partial_charge
C1    C     C_R   0.497896 0.262727 0.499849 0.544196
C2    C     C_R   0.491461 0.870258 0.500443 -0.004923
C3    C     C_R   0.651167 0.665783 0.144244 -0.078282
C4    C     C_R   0.284159 0.499588 0.499971 0.531029
C5    C     C_R   0.724398 0.747471 0.072409 -0.163440
C6    C     C_R   0.724343 0.747529 0.929125 -0.161372
C7    C     C_R   0.651004 0.665952 0.856738 -0.077682
C8    C     C_R   0.574093 0.581636 0.925509 0.159066
C9    C     C_R   0.574127 0.581558 0.074968 0.162066
C10   C     C_R   0.429555 0.422254 0.073558 0.007069
C11   C     C_R   0.429582 0.422280 0.925797 0.005168
C12   C     C_R   0.221700 0.052793 0.694334 -0.119827
C13   C     C_R   0.497375 0.736965 0.500149 0.522413
C14   C     C_R   0.715829 0.500219 0.500037 0.543882
C15   C     C_1   0.162418 0.499813 0.499969 -0.027848
C16   C     C_1   0.059918 0.500027 0.500037 -0.038676
C17   C     C_1   0.940075 0.500209 0.500092 -0.031415
C18   C     C_1   0.837570 0.500267 0.500100 -0.009024
C19   C     C_R   0.310489 0.121148 0.629907 -0.105239
C20   C     C_1   0.673794 0.132021 0.360884 0.214048
C21   C     C_R   0.221562 0.923949 0.695639 -0.117974
C22   C     C_R   0.310139 0.862691 0.632355 -0.094746
C23   C     C_R   0.401940 0.930127 0.567927 0.026980
C24   C     C_R   0.402440 0.061151 0.566880 0.013053
C25   C     C_R   0.493145 0.128280 0.499277 -0.010804
C26   C     C_R   0.579674 0.066047 0.429841 -0.037972
C27   C     C_R   0.577698 0.937782 0.430432 -0.156834
Cu1   Cu    Cu3+1 0.499990 0.499990 0.640660 0.923784
Cu2   Cu    Cu3+1 0.500010 0.500010 0.359340 0.950294
H1    H     H_    0.781926 0.811015 0.873297 0.123527
H2    H     H_    0.659177 0.672820 0.253831 0.174752
H3    H     H_    0.781978 0.810948 0.128683 0.125445
H4    H     H_    0.658790 0.673105 0.747147 0.181040
H5    H     H_    0.371823 0.358454 0.870535 0.115153
H6    H     H_    0.304923 0.220853 0.628370 0.126353
H7    H     H_    0.152058 0.100021 0.742145 0.117149
H8    H     H_    0.151830 0.871138 0.744473 0.116286
H9    H     H_    0.304684 0.762466 0.632756 0.141792
H10   H     H_    0.645353 0.889871 0.378578 0.106827
H11   H     H_    0.371771 0.358430 0.128338 0.120551
N1    N     N_R   0.501070 0.501210 0.147910 -0.241192
N2    N     N_R   0.501110 0.501290 0.852040 -0.242465
N3    N     N_1   0.749063 0.184852 0.305784 -0.287772
O1    O     O_R   0.499990 0.319640 0.618810 -0.500279
O2    O     O_R   0.500000 0.319660 0.381240 -0.487181
O3    O     O_R   0.337190 0.500000 0.618790 -0.510230
O4    O     O_R   0.337200 0.500030 0.381210 -0.490462
O5    O     O_R   0.500000 0.680340 0.618760 -0.526637
O6    O     O_R   0.500010 0.680360 0.381190 -0.516599
O7    O     O_R   0.662800 0.499970 0.618790 -0.511616
O8    O     O_R   0.662810 0.500000 0.381210 -0.501433

loop_
_geom_bond_atom_site_label_1
_geom_bond_atom_site_label_2
_ccdc_geom_bond_type
C13   O5    A    
C3    H2    S    
C23   C24   A    
C6    C7    A    
C3    C9    A    
C12   H7    S    
C14   C18   S    
C1    O1    A    
C9    N1    A    
C14   O8    A    
C5    H3    S    
Cu1   O3    S    
C4    C15   S    
C19   C24   A    
C7    C8    A    
C19   H6    S    
C21   C22   A    
Cu2   O6    S    
C10   N1    A    
C1    C25   S    
C7    H4    S    
C1    O2    A    
C26   C27   A    
C2    C27   A    
C20   C26   S    
Cu2   O4    S    
C13   O6    A    
C12   C19   A    
Cu1   N2    S    
Cu1   Cu2   S    
C6    H1    S    
C8    N2    A    
C17   C18   T    
C5    C6    A    
C16   C17   S    
C10   C11   A    
C14   O7    A    
C15   C16   T    
C22   H9    S    
C20   N3    T    
C21   H8    S    
C24   C25   A    
C11   N2    A    
C10   H11   S    
Cu2   O8    S    
C27   H10   S    
C2    C23   A    
C2    C13   S    
C22   C23   A    
Cu1   O5    S    
C4    O3    A    
Cu2   N1    S    
C25   C26   A    
Cu1   O7    S    
C12   C21   A    
Cu1   O1    S    
C11   H5    S    
Cu2   O2    S    
C8    C9    A    
C3    C5    A    
C4    O4    A    
