data_mof_unit_12436.cif
_audit_creation_date              2012-10-26T18:28:22-0400
_audit_creation_method            fapswitch 2.2
_symmetry_space_group_name_H-M    P1
_symmetry_Int_Tables_number       1
_space_group_crystal_system       triclinic
_cell_length_a                    27.807162
_cell_length_b                    11.077519
_cell_length_c                    9.809151
_cell_angle_alpha                 111.111156
_cell_angle_beta                  97.853608
_cell_angle_gamma                 91.241077
_cell_volume                      2784.096234

loop_
_atom_site_label
_atom_site_type_symbol
_atom_type_description
_atom_site_fract_x
_atom_site_fract_y
_atom_site_fract_z
_atom_type_partial_charge
C1    C     C_R   0.497396 0.254535 0.440805 0.544967
C2    C     C_R   0.867470 0.383861 0.410519 0.024409
C3    C     C_R   0.354764 0.500250 0.504901 -0.005640
C4    C     C_R   0.645173 0.496783 0.494266 -0.001097
C5    C     C_R   0.969875 0.381616 0.419781 0.017455
C6    C     C_R   0.029780 0.616630 0.573271 0.017394
C7    C     C_R   0.978718 0.615278 0.574757 0.017930
C8    C     C_R   0.021323 0.380649 0.429252 0.017805
C9    C     C_R   0.948963 0.498302 0.495440 0.033642
C10   C     C_R   0.050886 0.498740 0.503136 0.033689
C11   C     C_R   0.938296 0.269705 0.336005 -0.141285
C12   C     C_R   0.503137 0.745528 0.559247 0.549441
C13   C     C_R   0.060727 0.732381 0.638894 -0.141616
C14   C     C_R   0.888202 0.271019 0.331955 -0.112297
C15   C     C_R   0.110704 0.731575 0.639882 -0.112021
C16   C     C_R   0.407520 0.500022 0.501605 0.538953
C17   C     C_R   0.592463 0.499042 0.498166 0.538957
C18   C     C_R   0.044520 0.265012 0.368209 -0.142361
C19   C     C_R   0.956156 0.727063 0.653997 -0.141788
C20   C     C_2   0.494283 0.116010 0.408488 -0.115994
C21   C     C_2   0.508460 0.883875 0.591903 -0.095712
C22   C     C_2   0.509371 0.067573 0.513310 0.228199
C23   C     C_R   0.102189 0.498953 0.506723 -0.027525
C24   C     C_2   0.492165 0.934165 0.490377 0.240357
C25   C     C_2   0.504177 0.510503 0.081235 -0.001662
C26   C     C_2   0.495861 0.489390 0.918735 -0.003698
C27   C     C_R   0.174543 0.384878 0.445535 0.397911
C28   C     C_R   0.825783 0.608804 0.566631 0.397280
C29   C     C_R   0.182433 0.613976 0.575819 0.395538
C30   C     C_R   0.816954 0.385300 0.409694 0.396250
C31   C     C_R   0.286644 0.529662 0.641516 -0.061630
C32   C     C_R   0.713601 0.484119 0.361355 -0.059970
C33   C     C_R   0.336699 0.529545 0.639307 -0.151594
C34   C     C_R   0.897665 0.497939 0.491969 -0.027495
C35   C     C_R   0.663564 0.484889 0.363813 -0.148605
C36   C     C_R   0.321908 0.471159 0.373015 -0.160272
C37   C     C_R   0.677662 0.506674 0.621570 -0.154252
C38   C     C_R   0.271956 0.471301 0.375533 -0.068347
C39   C     C_R   0.727605 0.505963 0.618812 -0.062587
C40   C     C_R   0.254126 0.500344 0.509608 0.238584
C41   C     C_R   0.745756 0.495207 0.489015 0.242754
C42   C     C_3   0.412936 0.891239 0.371765 -0.003802
C43   C     C_3   0.385365 0.794764 0.418017 -0.255321
C44   C     C_3   0.332107 0.823813 0.423314 -0.466611
C45   C     C_R   0.123872 0.382478 0.441462 0.024164
C46   C     C_3   0.585033 0.170754 0.631025 0.028483
C47   C     C_3   0.617857 0.067529 0.651824 -0.292305
C48   C     C_3   0.670798 0.101410 0.645516 -0.458317
C49   C     C_R   0.876437 0.611570 0.570255 0.024701
C50   C     C_R   0.094707 0.266242 0.374110 -0.113985
C51   C     C_R   0.906088 0.725011 0.651368 -0.113755
C52   C     C_R   0.131930 0.615670 0.575257 0.025219
Cu1   Cu    Cu3+1 0.508480 0.521810 0.644910 0.945606
Cu2   Cu    Cu3+1 0.491520 0.478190 0.355090 0.952119
H1    H     H_    0.334735 0.448456 0.267829 0.132300
H2    H     H_    0.752300 0.513893 0.717616 0.129185
H3    H     H_    0.110571 0.175023 0.325118 0.165617
H4    H     H_    0.890711 0.813295 0.714045 0.164545
H5    H     H_    0.639385 0.476970 0.264064 0.127946
H6    H     H_    0.361168 0.552454 0.742595 0.131350
H7    H     H_    0.727462 0.475895 0.260689 0.127774
H8    H     H_    0.273067 0.551963 0.745542 0.130851
H9    H     H_    0.865720 0.182515 0.266621 0.167719
H10   H     H_    0.132696 0.822932 0.691582 0.167992
H11   H     H_    0.950931 0.179322 0.269567 0.110387
H12   H     H_    0.664561 0.515063 0.723386 0.126825
H13   H     H_    0.047515 0.826484 0.688385 0.110886
H14   H     H_    0.025086 0.170740 0.317020 0.109839
H15   H     H_    0.976167 0.817880 0.722109 0.109244
H16   H     H_    0.395150 0.884366 0.260409 0.153693
H17   H     H_    0.409583 0.992549 0.448262 0.115667
H18   H     H_    0.387126 0.694860 0.337583 0.195879
H19   H     H_    0.402539 0.800027 0.529292 0.162091
H20   H     H_    0.329435 0.923709 0.502541 0.166839
H21   H     H_    0.313396 0.754313 0.460400 0.180648
H22   H     H_    0.313440 0.814034 0.311850 0.156013
H23   H     H_    0.529062 0.943998 0.698210 0.109575
H24   H     H_    0.598762 0.266230 0.717910 0.169113
H25   H     H_    0.587911 0.180367 0.523015 0.121473
H26   H     H_    0.615453 0.059869 0.760633 0.175858
H27   H     H_    0.605501 0.971925 0.563228 0.156996
H28   H     H_    0.674176 0.107828 0.536730 0.165398
H29   H     H_    0.693651 0.024777 0.660391 0.176872
H30   H     H_    0.684419 0.195602 0.734936 0.151791
H31   H     H_    0.475926 0.053652 0.299803 0.106030
H32   H     H_    0.467616 0.417006 0.845833 0.156193
H33   H     H_    0.532451 0.582809 0.154116 0.152574
H34   H     H_    0.547829 0.622636 0.934337 0.203417
H35   H     H_    0.452143 0.377442 0.065686 0.203810
H36   H     H_    0.247013 0.449146 0.273276 0.133424
N1    N     N_R   0.202632 0.499651 0.511282 -0.396647
N2    N     N_R   0.797245 0.496603 0.487614 -0.397387
N3    N     N_2   0.478780 0.445430 0.137360 -0.348971
N4    N     N_2   0.521220 0.554570 0.862640 -0.352279
O1    O     O_R   0.504520 0.332330 0.577400 -0.449338
O2    O     O_2   0.805137 0.717466 0.640945 -0.501412
O3    O     O_2   0.787807 0.276054 0.333161 -0.502868
O4    O     O_2   0.211076 0.725794 0.638830 -0.507061
O5    O     O_3   0.461730 0.859110 0.360833 -0.568564
O6    O     O_3   0.536623 0.143956 0.648808 -0.574161
O7    O     O_R   0.495480 0.667670 0.422600 -0.440349
O8    O     O_R   0.490210 0.295500 0.332650 -0.498659
O9    O     O_R   0.509790 0.704500 0.667350 -0.502803
O10   O     O_R   0.437420 0.518430 0.622370 -0.501543
O11   O     O_R   0.562580 0.481570 0.377630 -0.503703
O12   O     O_R   0.423110 0.481600 0.377610 -0.506051
O13   O     O_R   0.576890 0.518400 0.622390 -0.505307
O14   O     O_2   0.195640 0.273374 0.384692 -0.498973

loop_
_geom_bond_atom_site_label_1
_geom_bond_atom_site_label_2
_ccdc_geom_bond_type
C43   H19   S    
C25   N3    D    
C43   H18   S    
C23   C45   A    
Cu1   O1    S    
C24   O5    S    
Cu2   O7    S    
C25   H33   S    
C39   C41   A    
Cu1   Cu2   S    
C30   O3    S    
C29   O4    S    
C27   O14   S    
C32   H7    S    
C5    C11   A    
C17   O13   A    
C46   H25   S    
C11   C14   A    
C3    C33   A    
Cu1   O10   S    
C18   H14   S    
C42   H16   S    
C31   C40   A    
C35   H5    S    
C44   H22   S    
Cu2   N3    S    
C16   O10   A    
C39   H2    S    
C49   C51   A    
C15   H10   S    
C31   C33   A    
C27   N1    A    
C16   O12   A    
C2    C34   A    
C4    C35   A    
C37   H12   S    
C31   H8    S    
C47   H26   S    
H34   N4    S    
C22   O6    S    
Cu2   O12   S    
C32   C35   A    
C12   O9    A    
C30   N2    A    
C46   H24   S    
C26   H32   S    
C25   C26   S    
C12   C21   S    
C8    C18   A    
C48   H30   S    
C44   H21   S    
C43   C44   S    
C5    C9    A    
C17   O11   A    
C28   C49   A    
Cu1   O13   S    
C47   C48   S    
C1    O1    A    
C20   H31   S    
C28   N2    A    
C51   H4    S    
C15   C52   A    
C44   H20   S    
C4    C17   S    
C20   C22   D    
C33   H6    S    
C7    C19   A    
C26   N4    D    
C13   C15   A    
C9    C34   A    
C22   C24   S    
C19   H15   S    
C42   C43   S    
C32   C41   A    
C29   N1    A    
C18   C50   A    
C13   H13   S    
C7    C9    A    
C46   O6    S    
C46   C47   S    
C1    C20   S    
Cu2   O11   S    
Cu1   N4    S    
C50   H3    S    
Cu2   O8    S    
C6    C10   A    
C5    C8    A    
C6    C7    A    
C10   C23   A    
C38   H36   S    
C48   H29   S    
C2    C30   A    
C28   O2    S    
C3    C36   A    
C36   C38   A    
C12   O7    A    
C37   C39   A    
C36   H1    S    
C42   O5    S    
C6    C13   A    
C38   C40   A    
C27   C45   A    
C23   C52   A    
C45   C50   A    
Cu1   O9    S    
C14   H9    S    
C42   H17   S    
C48   H28   S    
C47   H27   S    
C40   N1    S    
H35   N3    S    
C2    C14   A    
C19   C51   A    
C41   N2    S    
C4    C37   A    
C34   C49   A    
C8    C10   A    
C21   C24   D    
C21   H23   S    
C1    O8    A    
C3    C16   S    
C11   H11   S    
C29   C52   A    
