data_mof_unit_24674.cif
_audit_creation_date              2012-12-10T17:32:14-0500
_audit_creation_method            fapswitch 2.2
_symmetry_space_group_name_H-M    P1
_symmetry_Int_Tables_number       1
_space_group_crystal_system       triclinic
_cell_length_a                    12.367864
_cell_length_b                    13.302556
_cell_length_c                    15.016545
_cell_angle_alpha                 76.724675
_cell_angle_beta                  102.026532
_cell_angle_gamma                 117.085726
_cell_volume                      2125.43048573

loop_
_atom_site_label
_atom_site_type_symbol
_atom_type_description
_atom_site_fract_x
_atom_site_fract_y
_atom_site_fract_z
_atom_type_partial_charge
C1    C     C_R   0.854249 0.286590 0.509863 0.817997
C2    C     C_R   0.084366 0.595307 0.090094 0.062963
C3    C     C_R   0.817646 0.314442 0.054388 -0.084310
C4    C     C_R   0.820019 0.313001 0.961510 0.248488
C5    C     C_R   0.915768 0.401718 0.912638 -0.001354
C6    C     C_R   0.998349 0.500001 0.953678 -0.018738
C7    C     C_R   0.082755 0.597374 0.901453 -0.029131
C8    C     C_R   0.174803 0.688303 0.946994 -0.092161
C9    C     C_R   0.173576 0.688120 0.040374 0.192068
C10   C     C_R   0.930482 0.397076 0.823043 -0.086309
C11   C     C_R   0.999902 0.498840 0.767990 -0.188491
C12   C     C_R   0.000157 0.499696 0.670893 0.894688
C13   C     C_R   0.069925 0.600357 0.805098 0.209918
C14   C     C_R   0.266701 0.030532 0.417689 -0.167623
C15   C     C_R   0.225585 0.835393 0.484501 -0.026764
C16   C     C_R   0.812402 0.092082 0.591396 -0.189430
C17   C     C_R   0.731844 0.992141 0.640102 -0.025126
C18   C     C_R   0.604476 0.960952 0.620996 -0.089362
C19   C     C_R   0.558801 0.022532 0.543221 -0.023817
C20   C     C_R   0.643248 0.126531 0.497984 0.080574
C21   C     C_R   0.432403 0.985009 0.507522 0.085726
C22   C     C_R   0.391615 0.062398 0.445731 0.156083
C23   C     C_R   0.144897 0.713217 0.489794 0.852019
C24   C     C_R   0.476079 0.165666 0.405193 -0.193371
C25   C     C_R   0.599332 0.191634 0.424552 -0.157162
C26   C     C_R   0.347948 0.869823 0.521247 -0.186105
C27   C     C_R   0.183400 0.917653 0.439301 -0.115021
C28   C     C_R   0.769791 0.164589 0.527710 -0.085679
C29   C     C_R   0.353761 0.340556 0.659050 -0.121995
C30   C     C_R   0.750428 0.638653 0.369330 0.083447
C31   C     C_R   0.661416 0.681239 0.350628 -0.196919
C32   C     C_R   0.571104 0.640151 0.409512 -0.064231
C33   C     C_R   0.558113 0.544040 0.478585 -0.053754
C34   C     C_R   0.999319 0.499696 0.329396 0.788758
C35   C     C_R   0.656513 0.509932 0.499442 0.252424
C36   C     C_R   0.452484 0.481819 0.528749 -0.013666
C37   C     C_R   0.454381 0.397967 0.606361 0.080989
C38   C     C_R   0.553469 0.369138 0.626528 -0.194736
C39   C     C_R   0.650066 0.422136 0.573710 -0.137904
C40   C     C_R   0.341546 0.494672 0.501657 0.049390
C41   C     C_R   0.250824 0.362995 0.630031 0.047441
C42   C     C_R   0.083464 0.593046 0.183564 -0.159114
C43   C     C_R   0.998038 0.499957 0.233185 -0.050699
C44   C     C_R   0.910788 0.407815 0.191618 -0.152235
C45   C     C_R   0.907624 0.406841 0.097873 0.011601
C46   C     C_R   0.996544 0.500853 0.046947 0.042604
Cu1   Cu    Cu3+1 0.098270 0.475420 0.521130 0.989349
Cu2   Cu    Cu3+1 0.901730 0.524580 0.478870 1.001184
H1    H     H_    0.148472 0.662788 0.219567 0.185182
H2    H     H_    0.446454 0.221803 0.352463 0.165944
H3    H     H_    0.234377 0.091091 0.374475 0.157446
H4    H     H_    0.377304 0.804035 0.554130 0.168558
H5    H     H_    0.909898 0.120439 0.612093 0.185942
H6    H     H_    0.659494 0.263805 0.380927 0.178061
H7    H     H_    0.173950 0.321658 0.669806 0.162038
H8    H     H_    0.555509 0.300957 0.681234 0.215144
H9    H     H_    0.847266 0.336791 0.234040 0.139158
H10   H     H_    0.327085 0.546371 0.438257 0.155928
H11   H     H_    0.717835 0.390306 0.593319 0.230951
H12   H     H_    0.087749 0.894041 0.415001 0.217868
N1    N     N_R   0.246280 0.438190 0.553160 -0.203595
N2    N     N_R   0.754320 0.561190 0.447410 -0.247620
O1    O     O_R   0.972510 0.318130 0.526570 -0.580873
O2    O     O_R   0.806530 0.359650 0.490890 -0.613401
O3    O     O_R   0.082980 0.479210 0.647590 -0.581160
O4    O     O_R   0.917000 0.520730 0.611900 -0.567001
O5    O     O_R   0.193470 0.640350 0.509110 -0.579240
O6    O     O_R   0.027490 0.681870 0.473430 -0.548619
O7    O     O_R   0.083000 0.479270 0.388100 -0.580515
O8    O     O_R   0.917020 0.520790 0.352410 -0.577015
C47   C     C_2   0.522598 0.872071 0.686904 0.924055
O9    O     O_2   0.454762 0.893602 0.720075 -0.528895
O10   O     O_R   0.520225 0.763108 0.708531 -0.706966
H13   H     H_    0.458411 0.709206 0.752430 0.374632
C48   C     C_2   0.786239 0.929729 0.716675 0.892367
O11   O     O_2   0.873939 0.916472 0.705731 -0.530452
O12   O     O_R   0.741559 0.890601 0.802278 -0.713102
H14   H     H_    0.787735 0.851027 0.848639 0.363999
C49   C     C_2   0.352451 0.259361 0.745575 0.858714
O13   O     O_2   0.443101 0.280236 0.802676 -0.526716
O14   O     O_R   0.244769 0.161272 0.763727 -0.723533
H15   H     H_    0.254367 0.113111 0.825178 0.382087
C50   C     C_2   0.831774 0.673326 0.297869 0.942868
O15   O     O_2   0.792434 0.628208 0.228355 -0.568793
O16   O     O_R   0.948667 0.762497 0.305605 -0.753953
H16   H     H_    0.994086 0.778640 0.251268 0.335967
C51   C     C_2   0.518233 0.718211 0.413946 0.831129
O17   O     O_2   0.446526 0.736834 0.350408 -0.553540
O18   O     O_R   0.558493 0.776723 0.488875 -0.731066
H17   H     H_    0.534898 0.842359 0.475903 0.323365
C52   C     C_2   0.666194 0.773200 0.270918 0.898915
O19   O     O_2   0.759908 0.861723 0.262495 -0.552372
O20   O     O_R   0.563677 0.757364 0.205354 -0.671529
H18   H     H_    0.578273 0.825260 0.154271 0.372476
C53   C     C_2   0.718404 0.219320 0.104585 0.916214
O21   O     O_2   0.649712 0.239189 0.138433 -0.564504
O22   O     O_R   0.702801 0.106969 0.111734 -0.688008
H19   H     H_    0.632020 0.049667 0.147010 0.360429
Br1   Br    Br    0.675093 0.202729 0.898954 -0.354702
C54   C     C_2   0.887378 0.285896 0.790839 0.881844
O23   O     O_2   0.828076 0.269644 0.715309 -0.633124
O24   O     O_R   0.914044 0.199189 0.848288 -0.700401
H20   H     H_    0.880140 0.127456 0.819269 0.355456
Br2   Br    Br    0.131093 0.742007 0.719528 -0.419527
C55   C     C_2   0.284326 0.774669 0.903695 1.017045
O25   O     O_2   0.352170 0.744017 0.880323 -0.546002
O26   O     O_R   0.310786 0.890683 0.891012 -0.674845
H21   H     H_    0.389321 0.941491 0.862433 0.388680
Br3   Br    Br    0.300443 0.813062 0.101050 -0.403890

loop_
_geom_bond_atom_site_label_1
_geom_bond_atom_site_label_2
_ccdc_geom_bond_type
C16   C28   A    
C21   C26   A    
O20   H18   S    
O10   H13   S    
C53   O21   D    
C41   N1    A    
C43   C44   A    
C8    C55   S    
O22   H19   S    
C7    C8    A    
O12   H14   S    
C2    C46   A    
C55   O26   S    
C36   C37   A    
C19   C21   A    
C27   H12   S    
C14   H3    S    
Cu1   O1    S    
C5    C6    A    
Cu2   O2    S    
C20   C25   A    
C33   C36   A    
C18   C19   A    
C23   O5    A    
C30   C50   S    
C16   H5    S    
Cu1   O7    S    
Cu2   N2    S    
C41   H7    S    
C19   C20   A    
C16   C17   A    
C1    C28   S    
O26   H21   S    
C14   C27   A    
C34   O8    A    
C15   C23   S    
C21   C22   A    
C24   H2    S    
C1    O1    A    
Cu1   O5    S    
O14   H15   S    
C9    Br3   S    
C38   C39   A    
C40   H10   S    
Cu1   Cu2   S    
C36   C40   A    
C25   H6    S    
C52   O19   D    
C49   O14   S    
C8    C9    A    
C15   C26   A    
C20   C28   A    
O16   H16   S    
C32   C51   S    
C12   O4    A    
C3    C45   A    
Cu2   O6    S    
C40   N1    A    
C23   O6    A    
C35   C39   A    
C48   O11   D    
C37   C38   A    
C26   H4    S    
C52   O20   S    
C15   C27   A    
C50   O15   D    
C29   C49   S    
C44   H9    S    
C39   H11   S    
C54   O24   S    
C17   C18   A    
C24   C25   A    
C13   Br2   S    
C10   C54   S    
C48   O12   S    
C34   O7    A    
C50   O16   S    
C31   C52   S    
C30   N2    A    
C22   C24   A    
C42   C43   A    
C3    C4    A    
C1    O2    A    
C44   C45   A    
C47   O10   S    
C55   O25   D    
C18   C47   S    
C6    C46   A    
C29   C41   A    
C31   C32   A    
C34   C43   S    
Cu2   O8    S    
C4    C5    A    
Cu1   N1    S    
C11   C12   S    
C53   O22   S    
C6    C7    A    
C12   O3    A    
Cu2   O4    S    
C32   C33   A    
C14   C22   A    
C51   O18   S    
C5    C10   A    
C11   C13   A    
C30   C31   A    
C2    C42   A    
C54   O23   D    
C33   C35   A    
C35   N2    A    
O24   H20   S    
C10   C11   A    
C42   H1    S    
C49   O13   D    
C45   C46   A    
C7    C13   A    
C38   H8    S    
C51   O17   D    
C4    Br1   S    
C29   C37   A    
C17   C48   S    
C3    C53   S    
C47   O9    D    
O18   H17   S    
C2    C9    A    
Cu1   O3    S    
