data_mof_unit_18171.cif
_audit_creation_date              2012-12-11T17:01:33-0500
_audit_creation_method            fapswitch 2.2
_symmetry_space_group_name_H-M    P1
_symmetry_Int_Tables_number       1
_space_group_crystal_system       triclinic
_cell_length_a                    15.106524
_cell_length_b                    14.825608
_cell_length_c                    14.873548
_cell_angle_alpha                 109.31742
_cell_angle_beta                  109.390063
_cell_angle_gamma                 109.927138
_cell_volume                      2557.2239732

loop_
_atom_site_label
_atom_site_type_symbol
_atom_type_description
_atom_site_fract_x
_atom_site_fract_y
_atom_site_fract_z
_atom_type_partial_charge
C1    C     C_R   0.011819 0.807924 0.102664 -0.048024
C2    C     C_R   0.223937 0.752393 0.315881 -0.111654
C3    C     C_R   0.905159 0.409920 0.210434 -0.246625
C4    C     C_R   0.793933 0.194139 0.702275 -0.117933
C5    C     C_R   0.294914 0.590844 0.988557 0.488962
C6    C     C_R   0.934593 0.503259 0.303136 -0.047376
C7    C     C_R   0.295725 0.497965 0.924982 -0.056123
C8    C     C_R   0.325758 0.778328 0.325319 0.050687
C9    C     C_R   0.050639 0.225843 0.053386 0.124292
C10   C     C_3   0.475911 0.371880 0.893029 0.262477
C11   C     C_3   0.369228 0.371008 0.876080 0.277739
C12   C     C_R   0.700896 0.129158 0.698880 0.100585
C13   C     C_3   0.589188 0.569669 0.054314 -0.483381
C14   C     C_3   0.527669 0.531077 0.857594 -0.482246
C15   C     C_3   0.568776 0.492560 0.939921 0.154254
C16   C     C_R   0.023494 0.592950 0.779308 -0.136543
C17   C     C_3   0.391735 0.493027 0.924233 0.092415
C18   C     C_3   0.483927 0.561005 0.046784 0.480442
C19   C     C_3   0.428535 0.540497 0.855618 -0.432805
C20   C     C_R   0.621655 0.970177 0.516147 0.098705
C21   C     C_R   0.624151 0.011425 0.616760 -0.162562
C22   C     C_R   0.538318 0.942624 0.625101 0.513825
C23   C     C_R   0.949915 0.501689 0.675052 0.128731
C24   C     C_R   0.440160 0.857347 0.527912 -0.226113
C25   C     C_R   0.431141 0.836068 0.424963 -0.035959
C26   C     C_R   0.526875 0.883433 0.421826 0.147694
C27   C     C_3   0.550354 0.932244 0.353104 -0.446086
C28   C     C_R   0.685857 0.405999 0.933927 -0.122982
C29   C     C_3   0.653985 0.027316 0.456490 -0.416756
C30   C     C_R   0.956561 0.608620 0.484504 0.235516
C31   C     C_R   0.901161 0.508905 0.385320 -0.021662
C32   C     C_R   0.826916 0.412814 0.375838 -0.333101
C33   C     C_R   0.829377 0.412306 0.470777 0.741014
C34   C     C_R   0.672288 0.497060 0.954242 -0.122719
C35   C     C_R   0.907771 0.507866 0.574814 -0.169265
C36   C     C_R   0.960224 0.608064 0.577967 0.046179
C37   C     C_3   0.076661 0.700503 0.649176 -0.519922
C38   C     C_3   0.072284 0.701382 0.547130 -0.354848
C39   C     C_R   0.058812 0.037010 0.163905 -0.023248
C40   C     C_R   0.935648 0.408053 0.684564 -0.085689
C41   C     C_R   0.108681 0.990762 0.114309 -0.216695
C42   C     C_R   0.178504 0.055852 0.088943 0.790157
C43   C     C_R   0.172026 0.146395 0.083968 -0.344186
C44   C     C_R   0.096485 0.171581 0.104467 -0.019510
C45   C     C_R   0.994386 0.593145 0.298226 0.659980
C46   C     C_R   0.052178 0.125734 0.158375 0.086813
C47   C     C_3   0.940038 0.081862 0.143436 -0.649946
C48   C     C_3   0.947419 0.985359 0.150020 0.714850
C49   C     C_R   0.776193 0.590870 0.026725 0.542375
C50   C     C_R   0.700205 0.194408 0.789902 -0.150185
C51   C     C_R   0.096478 0.806605 0.006754 -0.088420
C52   C     C_R   0.072170 0.872619 0.073197 0.035002
C53   C     C_R   0.204080 0.407549 0.898710 -0.136962
C54   C     C_R   0.312577 0.746718 0.221409 -0.081360
C55   C     C_R   0.976568 0.254647 0.068945 -0.137105
C56   C     C_R   0.066146 0.250601 0.975301 -0.122403
F1    F     F_    0.455867 0.512440 0.105862 -0.704435
F2    F     F_    0.764976 0.315758 0.461196 -0.713566
F3    F     F_    0.242829 0.025920 0.056553 -0.702073
F4    F     F_    0.951314 0.985473 0.244401 -0.650863
F5    F     F_    0.005865 0.694682 0.346642 -0.716956
H1    H     H_    0.000073 0.838569 0.171864 0.210850
H2    H     H_    0.338100 0.332476 0.920174 0.119784
H3    H     H_    0.628463 0.550527 0.117569 0.226640
H4    H     H_    0.591408 0.611746 0.878397 0.173690
H5    H     H_    0.504079 0.470301 0.773664 0.200075
H6    H     H_    0.360816 0.494993 0.769182 0.241239
H7    H     H_    0.452644 0.628583 0.887623 0.151645
H8    H     H_    0.644578 0.657698 0.084663 0.186533
H9    H     H_    0.499208 0.646725 0.087624 0.073780
H10   H     H_    0.049680 0.678580 0.803886 0.121479
H11   H     H_    0.370012 0.813827 0.533420 0.154789
H12   H     H_    0.170379 0.321323 0.841525 0.148155
H13   H     H_    0.565240 0.881224 0.292400 0.206504
H14   H     H_    0.492000 0.957952 0.319201 0.218879
H15   H     H_    0.728132 0.030766 0.454987 0.203803
H16   H     H_    0.654430 0.107034 0.481304 0.234110
H17   H     H_    0.775992 0.335553 0.298293 0.185658
H18   H     H_    0.086264 0.777478 0.708416 0.214010
H19   H     H_    0.134075 0.674734 0.685167 0.214970
H20   H     H_    0.079262 0.779063 0.548707 0.242068
H21   H     H_    0.624541 0.319419 0.882301 0.167920
H22   H     H_    0.127043 0.676337 0.525142 0.168984
H23   H     H_    0.372901 0.748716 0.197892 0.161391
H24   H     H_    0.216116 0.187085 0.051592 0.180285
H25   H     H_    0.937760 0.136068 0.214142 0.239641
H26   H     H_    0.876330 0.055994 0.060712 0.161631
H27   H     H_    0.886664 0.904619 0.072857 0.005994
H28   H     H_    0.884361 0.322223 0.620362 0.166632
H29   H     H_    0.646219 0.167520 0.820025 0.148906
H30   H     H_    0.155237 0.833663 0.981709 0.188216
H31   H     H_    0.406413 0.706270 0.989990 0.301980
H32   H     H_    0.506300 0.365838 0.029843 0.365164
H33   H     H_    0.263617 0.228679 0.742128 0.326566
H34   H     H_    0.950010 0.252117 0.127264 0.128115
H35   H     H_    0.622043 0.996380 0.779920 0.307661
H36   H     H_    0.751884 0.707818 0.019807 0.294714
H37   H     H_    0.119480 0.240136 0.944560 0.106990
H38   H     H_    0.204645 0.764789 0.381124 0.143336
H39   H     H_    0.845067 0.325499 0.179372 0.149419
H40   H     H_    0.462377 0.317775 0.811317 0.131678
H41   H     H_    0.829353 0.165363 0.655097 0.107118
N1    N     N_R   0.995640 0.706130 0.053910 -0.056261
N2    N     N_R   0.054010 0.556790 0.847890 -0.047792
N3    N     N_R   0.789940 0.443190 0.997130 -0.076511
N4    N     N_R   0.997630 0.443170 0.791110 -0.063698
N5    N     N_R   0.846320 0.556810 0.053910 -0.069304
N6    N     N_R   0.791080 0.293860 0.847890 -0.047537
N7    N     N_R   0.052880 0.706130 0.997130 -0.069043
N8    N     N_R   0.002370 0.556830 0.208890 -0.106573
N9    N     N_R   0.153680 0.443190 0.946090 -0.075264
N10   N     N_R   0.208920 0.706140 0.152110 -0.044029
N11   N     N_R   0.947120 0.293870 0.002870 -0.044570
N12   N     N_R   0.004360 0.293870 0.946090 -0.047463
N13   N     N_R   0.151690 0.706140 0.208890 -0.047282
N14   N     N_R   0.945990 0.443210 0.152110 -0.075763
N15   N     N_R   0.210060 0.556810 0.002870 -0.066763
N16   N     N_R   0.848310 0.293860 0.791110 -0.046438
Ni1   Ni    Ni4+2 0.999010 0.630300 0.130220 0.304951
Ni2   Ni    Ni4+2 0.000990 0.369700 0.869780 0.207890
Ni3   Ni    Ni4+2 0.130280 0.630280 0.000000 0.267468
Ni4   Ni    Ni4+2 0.869720 0.369720 0.000000 0.210821
O1    O     O_3   0.353386 0.699159 0.015169 -0.787754
O2    O     O_3   0.503440 0.325824 0.959874 -0.755429
O3    O     O_3   0.291030 0.307801 0.763045 -0.764105
O4    O     O_3   0.544284 0.959954 0.724263 -0.748846
O5    O     O_3   0.805312 0.700498 0.072448 -0.766114

loop_
_geom_bond_atom_site_label_1
_geom_bond_atom_site_label_2
_ccdc_geom_bond_type
C18   H9    S    
C33   F2    S    
C6    C45   A    
C38   H22   S    
C27   C29   S    
C41   C42   A    
C35   C36   A    
H32   O2    S    
C56   H37   S    
H36   O5    S    
C3    C6    A    
C1    H1    S    
C54   H23   S    
C39   C41   A    
C29   H15   S    
C37   H18   S    
C26   C27   S    
N14   Ni4   S    
C13   C18   S    
C36   C37   S    
C11   O3    S    
C10   O2    S    
C3    N14   A    
C30   C31   A    
C22   O4    S    
N9    N15   A    
C23   C40   A    
C30   C38   S    
N15   Ni3   S    
C51   H30   S    
C3    H39   S    
C50   H29   S    
N11   Ni4   S    
C47   C48   S    
C44   C46   A    
C7    C17   S    
C4    H41   S    
C48   H27   S    
C19   H6    S    
C9    C55   A    
C40   H28   S    
C4    C12   A    
C27   H13   S    
C1    N1    A    
C15   C34   S    
C53   N9    A    
C6    C31   S    
C28   C34   A    
C51   N7    A    
C21   C22   A    
C50   N6    A    
C8    C25   S    
C4    N16   A    
C16   H10   S    
C27   H14   S    
N5    Ni1   S    
C16   N2    A    
C48   F4    S    
C20   C29   S    
C49   O5    S    
C37   H19   S    
C53   H12   S    
C28   H21   S    
C51   C52   A    
C43   H24   S    
C47   H25   S    
N6    N16   A    
C24   C25   A    
C49   N5    A    
H31   O1    S    
C8    C54   A    
C5    C7    A    
C45   N8    A    
C17   C19   S    
N2    Ni3   S    
C55   N11   A    
C25   C26   A    
C12   C21   S    
C5    N15   A    
N9    Ni2   S    
C47   H26   S    
N8    Ni1   S    
C43   C44   A    
C37   C38   S    
N3    N5    A    
C2    N13   A    
C18   F1    S    
C31   C32   A    
C28   N3    A    
C17   C18   S    
C14   H5    S    
H35   O4    S    
C19   H7    S    
C9    C56   A    
N1    Ni1   S    
C39   C46   A    
C55   H34   S    
C2    H38   S    
C16   C23   A    
C23   C35   S    
C13   C15   S    
C38   H20   S    
C22   C24   A    
C42   C43   A    
C7    C53   A    
N8    N14   A    
C24   H11   S    
C40   N4    A    
N11   N12   A    
H33   O3    S    
C46   C47   S    
C11   C17   S    
C9    C44   S    
C41   C52   S    
N4    Ni2   S    
C10   C15   S    
C14   C19   S    
C10   H40   S    
C2    C8    A    
N6    Ni4   S    
C20   C26   A    
C42   F3    S    
C12   C50   A    
N2    N4    A    
C5    O1    S    
N13   Ni1   S    
C30   C36   A    
N1    N7    A    
C32   C33   A    
N10   Ni3   S    
N7    Ni3   S    
C13   H3    S    
C13   H8    S    
C45   F5    S    
C33   C35   A    
C14   H4    S    
N3    Ni4   S    
C1    C52   A    
N16   Ni2   S    
C10   C11   S    
C32   H17   S    
C29   H16   S    
C20   C21   A    
C34   C49   A    
C56   N12   A    
C14   C15   S    
C54   N10   A    
C11   H2    S    
N10   N13   A    
N12   Ni2   S    
C39   C48   S    
