data_mof_unit_33811.cif
_audit_creation_date              2013-03-05T15:50:14-0500
_audit_creation_method            fapswitch 2.2
_symmetry_space_group_name_H-M    P1
_symmetry_Int_Tables_number       1
_space_group_crystal_system       triclinic
_cell_length_a                    14.622257
_cell_length_b                    15.775164
_cell_length_c                    9.606482
_cell_angle_alpha                 90.148211
_cell_angle_beta                  88.341007
_cell_angle_gamma                 90.1552
_cell_volume                      2214.96888469

loop_
_atom_site_label
_atom_site_type_symbol
_atom_site_description
_atom_site_fract_x
_atom_site_fract_y
_atom_site_fract_z
_atom_type_partial_charge
O1    O     O_R   0.409820 0.909830 0.618810 -0.594895
O2    O     O_R   0.409820 0.090170 0.618810 -0.606067
O3    O     O_R   0.909820 0.409830 0.618810 -0.598498
O4    O     O_R   0.909820 0.590170 0.618810 -0.600710
O5    O     O_R   0.409840 0.909830 0.381240 -0.584075
O6    O     O_R   0.409840 0.090170 0.381240 -0.589736
O7    O     O_R   0.909840 0.409830 0.381240 -0.584489
O8    O     O_R   0.909840 0.590170 0.381240 -0.587283
C1    C     C_R   0.373795 0.887548 0.502041 0.788340
C2    C     C_R   0.379010 0.118389 0.502624 0.780495
C3    C     C_R   0.879482 0.381347 0.502561 0.791162
C4    C     C_R   0.878758 0.618155 0.502690 0.793409
Cu1   Cu    Cu3+1 0.499990 0.000000 0.640660 0.915718
Cu2   Cu    Cu3+1 0.999990 0.500000 0.640660 0.916149
Cu3   Cu    Cu3+1 0.500010 0.000000 0.359340 0.924718
Cu4   Cu    Cu3+1 0.000010 0.500000 0.359340 0.925981
O9    O     O_R   0.590170 0.090170 0.618760 -0.585670
O10   O     O_R   0.590170 0.909830 0.618760 -0.579016
O11   O     O_R   0.090170 0.590170 0.618760 -0.588330
O12   O     O_R   0.090170 0.409830 0.618760 -0.579931
O13   O     O_R   0.590190 0.090180 0.381190 -0.571379
O14   O     O_R   0.590190 0.909820 0.381190 -0.566092
O15   O     O_R   0.090190 0.590180 0.381190 -0.571589
O16   O     O_R   0.090190 0.409820 0.381190 -0.566444
C5    C     C_R   0.605747 0.127828 0.499379 0.800497
C6    C     C_R   0.605684 0.872097 0.499417 0.799467
C7    C     C_R   0.106268 0.627839 0.499233 0.796989
C8    C     C_R   0.105846 0.372173 0.499427 0.790665
H1    H     H_    0.285095 0.168427 0.285846 0.162266
H2    H     H_    0.293819 0.822496 0.280957 0.175382
H3    H     H_    0.785179 0.668526 0.285914 0.162846
H4    H     H_    0.790798 0.326148 0.284809 0.169907
C9    C     C_R   0.285762 0.184925 0.771749 -0.189854
C10   C     C_R   0.239813 0.871698 0.748511 -0.152690
C11   C     C_R   0.783367 0.682319 0.772164 -0.183363
C12   C     C_R   0.787761 0.313709 0.772468 -0.160056
H5    H     H_    0.354647 0.167322 0.793850 0.164253
H6    H     H_    0.283705 0.926025 0.754368 0.158047
H7    H     H_    0.851603 0.663335 0.795339 0.163695
H8    H     H_    0.855790 0.334423 0.794821 0.166439
C13   C     C_R   0.225456 0.189930 0.886730 -0.176543
C14   C     C_R   0.182149 0.858085 0.864274 -0.153006
C15   C     C_R   0.722571 0.687426 0.886492 -0.173487
C16   C     C_R   0.729678 0.303475 0.889051 -0.167097
H9    H     H_    0.247369 0.169838 0.988111 0.125965
H10   H     H_    0.188013 0.897622 0.955927 0.127629
H11   H     H_    0.743661 0.666395 0.987800 0.126677
H12   H     H_    0.752703 0.321479 0.991096 0.134305
C17   C     C_R   0.635011 0.719254 0.870226 -0.130750
C18   C     C_R   0.641852 0.271727 0.873972 -0.162125
C19   C     C_R   0.137307 0.220552 0.870937 -0.131208
C20   C     C_R   0.113766 0.797215 0.859549 -0.157298
H13   H     H_    0.586390 0.720746 0.957152 0.140002
H14   H     H_    0.594837 0.267207 0.962481 0.143131
H15   H     H_    0.088974 0.221844 0.958207 0.137526
H16   H     H_    0.066297 0.789457 0.947178 0.136777
C21   C     C_R   0.611688 0.754008 0.743371 -0.129628
C22   C     C_R   0.615097 0.242898 0.744811 -0.153273
C23   C     C_R   0.112985 0.254527 0.743986 -0.129888
C24   C     C_R   0.102924 0.749473 0.739277 -0.172964
H17   H     H_    0.543799 0.780344 0.734737 0.153347
H18   H     H_    0.546391 0.217950 0.736716 0.150761
H19   H     H_    0.044769 0.280218 0.735722 0.141242
H20   H     H_    0.042710 0.709836 0.736655 0.163550
C25   C     C_R   0.673467 0.750899 0.627780 0.062143
C26   C     C_R   0.675144 0.248282 0.627330 0.062025
C27   C     C_R   0.174308 0.251477 0.627866 0.065523
C28   C     C_R   0.163955 0.758426 0.622836 0.063094
C29   C     C_R   0.256459 0.205072 0.636302 0.097279
C30   C     C_R   0.233881 0.821077 0.626941 0.103314
C31   C     C_R   0.755225 0.703834 0.636553 0.098822
C32   C     C_R   0.757569 0.294540 0.636402 0.101067
C33   C     C_R   0.301928 0.178986 0.508977 -0.158843
C34   C     C_R   0.290736 0.834034 0.505496 -0.167789
C35   C     C_R   0.801328 0.678406 0.509257 -0.160534
C36   C     C_R   0.803187 0.320220 0.509058 -0.165424
C37   C     C_R   0.260434 0.197361 0.382255 -0.224866
C38   C     C_R   0.261361 0.802156 0.378197 -0.218155
C39   C     C_R   0.760277 0.697238 0.382371 -0.224644
C40   C     C_R   0.763870 0.299599 0.381657 -0.217852
C41   C     C_R   0.683241 0.748673 0.377870 0.181356
C42   C     C_R   0.687097 0.248008 0.375976 0.181758
C43   C     C_R   0.183321 0.248718 0.377941 0.182846
C44   C     C_R   0.186885 0.747780 0.372303 0.179277
C45   C     C_R   0.652368 0.789012 0.500535 -0.149732
C46   C     C_R   0.653160 0.210502 0.499625 -0.147866
C47   C     C_R   0.152575 0.289141 0.500592 -0.150721
C48   C     C_R   0.151932 0.711926 0.497801 -0.147518
H21   H     H_    0.360066 0.028123 0.134940 0.128219
H22   H     H_    0.859080 0.523702 0.134934 0.131776
C49   C     C_R   0.664550 0.956477 0.133223 0.253799
C50   C     C_R   0.164879 0.456844 0.132516 0.251991
C51   C     C_R   0.720148 0.899476 0.058261 -0.283937
C52   C     C_R   0.220551 0.400623 0.055785 -0.285300
H23   H     H_    0.778594 0.870772 0.106550 0.167023
H24   H     H_    0.278993 0.371362 0.103217 0.167589
C53   C     C_R   0.719434 0.900832 0.914730 -0.222008
C54   C     C_R   0.219989 0.403625 0.912242 -0.219101
H25   H     H_    0.777430 0.873470 0.858084 0.171562
H26   H     H_    0.278157 0.377156 0.854833 0.171207
C55   C     C_R   0.665005 0.961021 0.851315 0.250298
C56   C     C_R   0.165432 0.464424 0.850729 0.254512
C57   C     C_R   0.581325 0.984164 0.921757 0.146736
C58   C     C_R   0.081629 0.486061 0.921665 0.144420
C59   C     C_R   0.581218 0.982987 0.071181 0.133502
C60   C     C_R   0.081517 0.484085 0.071066 0.134117
N1    N     N_R   0.501200 1.000000 0.147910 -0.186711
N2    N     N_R   0.001200 0.500000 0.147910 -0.186542
C61   C     C_R   0.423299 0.015781 0.077340 -0.065899
C62   C     C_R   0.922717 0.513352 0.077267 -0.071263
H27   H     H_    0.360116 0.027338 0.878339 0.123817
H28   H     H_    0.858682 0.520465 0.877580 0.144084
C63   C     C_R   0.423316 0.015380 0.929834 -0.099489
C64   C     C_R   0.922579 0.512219 0.929633 -0.111687
N3    N     N_R   0.501270 1.000000 0.852040 -0.188638
N4    N     N_R   0.001270 0.500000 0.852040 -0.193191
C65   C     C_3   0.722021 0.024941 0.770624 -0.769891
H29   H     H_    0.794547 0.024902 0.802861 0.191138
H30   H     H_    0.724119 0.009734 0.657895 0.238915
H31   H     H_    0.698378 0.090116 0.794275 0.244353
C66   C     C_3   0.222265 0.530222 0.774064 -0.777280
H32   H     H_    0.227123 0.515263 0.661249 0.238259
H33   H     H_    0.196223 0.594884 0.796741 0.239937
H34   H     H_    0.293902 0.531660 0.810256 0.193534
C67   C     C_3   0.625989 0.743340 0.250696 -0.867453
H35   H     H_    0.563254 0.782413 0.257135 0.257173
H36   H     H_    0.667685 0.760360 0.158033 0.234230
H37   H     H_    0.603323 0.676672 0.236881 0.217610
C68   C     C_3   0.637191 0.245629 0.241105 -0.888917
H38   H     H_    0.569571 0.214027 0.249685 0.257729
H39   H     H_    0.623379 0.311717 0.208196 0.219311
H40   H     H_    0.680472 0.215519 0.158672 0.223040
C69   C     C_3   0.126226 0.243785 0.250622 -0.871889
H41   H     H_    0.062819 0.281898 0.258168 0.255323
H42   H     H_    0.167709 0.262427 0.158658 0.235664
H43   H     H_    0.104683 0.176957 0.234897 0.216424
C70   C     C_3   0.140150 0.742117 0.234281 -0.871919
H44   H     H_    0.074166 0.707676 0.239028 0.257674
H45   H     H_    0.123247 0.807339 0.200285 0.216579
H46   H     H_    0.186686 0.714837 0.152912 0.225101
C71   C     C_3   0.720831 0.015473 0.220426 -0.748089
H47   H     H_    0.718944 0.998109 0.331892 0.242231
H48   H     H_    0.794530 0.014514 0.187930 0.184460
H49   H     H_    0.700397 0.081354 0.202336 0.235249
C72   C     C_3   0.221279 0.514716 0.221581 -0.747200
H50   H     H_    0.218694 0.496903 0.332801 0.243064
H51   H     H_    0.295141 0.513324 0.190096 0.184518
H52   H     H_    0.201673 0.580826 0.204272 0.235774

loop_
_geom_bond_atom_site_label_1
_geom_bond_atom_site_label_2
_geom_bond_distance
_ccdc_geom_bond_type
C22   H18   1.082807 S    
C43   C47   1.401424 A    
C49   C59   1.435602 A    
C57   N3    1.388914 A    
C25   C45   1.406248 A    
O10   C6    1.304723 A    
C32   C36   1.435073 A    
C58   C60   1.435590 A    
C72   H50   1.105032 S    
H27   C63   1.078067 S    
O7    C3    1.314887 A    
C70   H45   1.110914 S    
C18   H14   1.080209 S    
C35   C39   1.406962 A    
Cu1   O10   1.949093 S    
C26   C46   1.407683 A    
C3    C36   1.472678 S    
C65   H30   1.108155 S    
C56   C58   1.426590 A    
C2    C33   1.479682 S    
C17   H13   1.081172 S    
C49   C51   1.398128 A    
C52   C54   1.380144 A    
C12   C32   1.423213 A    
H21   C61   1.081574 S    
C17   C21   1.389415 A    
C14   H10   1.082956 S    
Cu3   N1    2.030670 S    
C21   H17   1.082636 S    
O2    Cu1   1.957948 S    
C33   C37   1.406988 A    
C51   H23   1.084780 S    
C66   H34   1.113355 S    
O13   C5    1.305487 A    
C20   C24   1.390227 A    
C53   H25   1.084272 S    
O6    Cu3   1.948993 S    
C58   N4    1.387111 A    
C22   C26   1.412282 A    
Cu3   O14   1.958163 S    
C26   C32   1.411973 A    
C10   C14   1.392750 A    
C30   C34   1.427649 A    
C69   H43   1.110650 S    
C29   C33   1.435008 A    
O15   C7    1.305873 A    
O4    C4    1.295574 A    
C56   C66   1.508058 S    
O11   C7    1.309233 A    
C10   C30   1.417657 A    
C9    C29   1.418733 A    
C68   H40   1.106301 S    
C23   C27   1.411642 A    
C11   C31   1.419765 A    
O8    Cu4   1.948993 S    
C65   H31   1.106528 S    
N1    C61   1.366084 A    
H28   C64   1.080721 S    
C72   H51   1.113377 S    
C70   H46   1.108286 S    
C66   H33   1.108649 S    
C18   C22   1.386952 A    
Cu2   O12   1.949093 S    
C12   H8    1.073617 S    
O1    C1    1.300195 A    
C40   C42   1.387053 A    
C71   H49   1.097814 S    
C39   C41   1.391786 A    
C15   C17   1.389683 A    
O12   C8    1.304450 A    
C42   C46   1.405404 A    
C38   C44   1.386801 A    
C9    H5    1.072829 S    
C63   N3    1.366702 A    
C27   C29   1.412849 A    
C44   C48   1.414514 A    
O1    Cu1   1.951961 S    
C11   H7    1.072202 S    
O5    C1    1.309099 A    
C54   C56   1.392789 A    
H4    C40   1.084407 S    
C59   N1    1.391071 A    
O8    C4    1.315444 A    
O5    Cu3   1.944571 S    
C8    C47   1.479207 S    
C50   C52   1.399415 A    
C57   C59   1.435561 A    
C42   C68   1.505636 S    
C52   H24   1.084782 S    
C66   H32   1.108853 S    
Cu1   N3    2.031247 S    
O3    Cu2   1.951961 S    
C50   C60   1.436937 A    
O7    Cu4   1.944571 S    
C44   C70   1.511464 S    
Cu4   O15   1.952174 S    
C54   H26   1.084213 S    
Cu1   Cu3   2.702486 S    
C34   C38   1.399613 A    
C67   H35   1.106725 S    
C28   C48   1.420811 A    
Cu2   Cu4   2.702486 S    
C12   C16   1.395275 A    
C19   C23   1.389452 A    
C1    C34   1.476833 S    
H22   C62   1.081629 S    
O2    C2    1.296024 A    
C51   C53   1.379390 A    
C72   H52   1.096694 S    
C11   C15   1.395140 A    
O16   C8    1.309405 A    
C67   H36   1.097790 S    
C68   H38   1.107144 S    
C55   C57   1.428834 A    
C16   C18   1.388502 A    
C67   H37   1.110612 S    
C62   C64   1.418367 A    
C13   H9    1.082528 S    
C41   C67   1.502908 S    
C50   C72   1.509423 S    
C10   H6    1.071645 S    
C23   H19   1.082790 S    
Cu2   O11   1.944668 S    
C36   C40   1.404238 A    
C21   C25   1.411862 A    
O6    C2    1.314945 A    
C64   N4    1.366583 A    
H3    C39   1.084225 S    
C61   C63   1.417001 A    
C70   H44   1.105863 S    
C27   C47   1.405766 A    
Cu1   O9    1.944668 S    
C24   H20   1.079379 S    
O9    C5    1.306777 A    
C55   C65   1.508237 S    
C71   H48   1.113365 S    
C9    C13   1.395493 A    
C25   C31   1.413677 A    
C71   H47   1.105512 S    
C31   C35   1.435960 A    
C69   H41   1.106921 S    
C60   N2    1.391996 A    
C6    C45   1.479627 S    
Cu2   N4    2.031247 S    
C5    C46   1.475393 S    
N2    C62   1.367127 A    
C19   H15   1.080939 S    
O4    Cu2   1.957948 S    
C7    C48   1.483361 S    
C41   C45   1.401493 A    
C43   C69   1.502418 S    
O3    C3    1.292593 A    
Cu4   N2    2.030670 S    
H2    C38   1.084381 S    
C20   H16   1.082424 S    
Cu3   O13   1.952174 S    
H1    C37   1.084203 S    
C24   C28   1.417714 A    
Cu4   O16   1.958163 S    
O14   C6    1.309391 A    
C4    C35   1.480070 S    
C69   H42   1.097379 S    
C28   C30   1.421432 A    
C37   C43   1.391889 A    
C68   H39   1.110936 S    
C65   H29   1.113355 S    
C15   H11   1.082544 S    
C13   C19   1.390252 A    
C53   C55   1.393281 A    
C16   H12   1.082647 S    
C14   C20   1.386057 A    
C49   C71   1.508944 S    
