data_mof_unit_35678.cif
_audit_creation_date              2012-12-10T18:09:49-0500
_audit_creation_method            fapswitch 2.2
_symmetry_space_group_name_H-M    P1
_symmetry_Int_Tables_number       1
_space_group_crystal_system       triclinic
_cell_length_a                    10.672296
_cell_length_b                    12.627197
_cell_length_c                    13.219813
_cell_angle_alpha                 83.031786
_cell_angle_beta                  90.161007
_cell_angle_gamma                 102.913329
_cell_volume                      1723.09170205

loop_
_atom_site_label
_atom_site_type_symbol
_atom_type_description
_atom_site_fract_x
_atom_site_fract_y
_atom_site_fract_z
_atom_type_partial_charge
C1    C     C_R   0.466534 0.439493 0.689542 0.864669
C2    C     C_3   0.121103 0.501011 0.504883 0.117840
C3    C     C_3   0.066529 0.480302 0.398787 -0.459500
C4    C     C_3   0.099824 0.615520 0.527689 -0.113677
C5    C     C_R   0.524868 0.737496 0.052767 0.046016
C6    C     C_R   0.522736 0.598579 0.198707 -0.140466
C7    C     C_R   0.389682 0.290243 0.837566 0.058447
C8    C     C_R   0.416345 0.262902 0.940579 0.051499
C9    C     C_R   0.457788 0.345344 0.002301 -0.300851
C10   C     C_R   0.455799 0.455747 0.967704 0.085051
C11   C     C_R   0.430608 0.482402 0.864700 0.067532
C12   C     C_R   0.741937 0.501197 0.499268 0.841894
C13   C     C_R   0.480356 0.540959 0.031273 0.079134
C14   C     C_R   0.485678 0.651652 0.990811 0.123790
C15   C     C_R   0.446822 0.672406 0.890659 -0.247989
C16   C     C_R   0.413433 0.588245 0.831303 -0.160675
C17   C     C_R   0.492410 0.517252 0.135221 -0.293998
C18   C     C_R   0.550473 0.709763 0.156522 -0.043137
C19   C     C_R   0.423120 0.402664 0.797082 -0.200709
C20   C     C_R   0.339496 0.085053 0.339374 -0.302684
C21   C     C_R   0.652408 0.803487 0.629682 0.131411
C22   C     C_R   0.686173 0.909985 0.654488 -0.291984
C23   C     C_R   0.517340 0.561120 0.308570 0.871676
C24   C     C_R   0.629603 0.989809 0.605312 -0.216001
C25   C     C_R   0.539730 0.964026 0.529073 0.037019
C26   C     C_R   0.510515 0.854534 0.503953 0.225115
C27   C     C_R   0.479148 0.042686 0.475752 -0.007150
C28   C     C_R   0.397557 0.010831 0.395140 0.160747
C29   C     C_R   0.371898 0.904226 0.370884 -0.281137
C30   C     C_R   0.425506 0.826853 0.426073 -0.190039
C31   C     C_R   0.495989 0.151875 0.498173 -0.100457
C32   C     C_R   0.351903 0.189279 0.367271 0.252180
C33   C     C_R   0.257798 0.499240 0.502194 0.806958
C34   C     C_3   0.903447 0.411668 0.588737 -0.058590
C35   C     C_3   0.048153 0.409702 0.586524 -0.417958
C36   C     C_3   0.921828 0.475729 0.398592 -0.434331
C37   C     C_3   0.957434 0.616634 0.519913 -0.427225
C38   C     C_3   0.878416 0.501522 0.502841 0.112018
H1    H     H_    0.848380 0.330749 0.569944 0.155088
H2    H     H_    0.153720 0.680791 0.469395 0.135573
H3    H     H_    0.900452 0.535697 0.335683 0.171242
H4    H     H_    0.116788 0.545997 0.339262 0.164803
H5    H     H_    0.439746 0.752850 0.856413 0.163559
H6    H     H_    0.472037 0.433754 0.169360 0.170599
H7    H     H_    0.487514 0.319462 0.077504 0.146416
H8    H     H_    0.375185 0.607761 0.757741 0.193127
H9    H     H_    0.308113 0.879838 0.309657 0.151443
H10   H     H_    0.281769 0.060809 0.274793 0.154755
H11   H     H_    0.557290 0.182957 0.557745 0.135258
H12   H     H_    0.659429 0.070851 0.627556 0.135229
H13   H     H_    0.756550 0.931321 0.712128 0.155817
H14   H     H_    0.400149 0.746360 0.404580 0.209102
H15   H     H_    0.092242 0.420551 0.662027 0.163083
H16   H     H_    0.058604 0.328167 0.568491 0.161589
H17   H     H_    0.869047 0.392828 0.383384 0.191871
H18   H     H_    0.082703 0.401846 0.379449 0.205838
H19   H     H_    0.944716 0.677794 0.454706 0.170523
H20   H     H_    0.920841 0.643725 0.588843 0.194441
N1    N     N_R   0.433240 0.222190 0.444680 -0.116797
N2    N     N_R   0.566070 0.776970 0.554790 -0.151262
O1    O     O_R   0.468120 0.366740 0.627160 -0.626771
O2    O     O_R   0.510770 0.544830 0.662520 -0.612675
O3    O     O_R   0.663880 0.410950 0.482330 -0.624743
O4    O     O_R   0.706530 0.589040 0.517700 -0.616679
O5    O     O_R   0.489230 0.455170 0.337480 -0.636383
O6    O     O_R   0.531880 0.633260 0.372840 -0.624132
O7    O     O_R   0.293470 0.410960 0.482300 -0.639857
O8    O     O_R   0.336120 0.589050 0.517670 -0.652931
Zn1   Zn    Zn3+2 0.471520 0.381090 0.476390 0.911890
Zn2   Zn    Zn3+2 0.528480 0.618910 0.523610 0.936526
C39   C     C_1   0.610324 0.794616 0.217311 0.176653
N3    N     N_1   0.659101 0.862664 0.265180 -0.201994
C40   C     C_3   0.538400 0.857396 0.009718 -0.408062
C41   C     C_3   0.661952 0.900683 0.944527 -0.340020
C42   C     C_3   0.672298 0.019228 0.898298 -0.878552
H21   H     H_    0.591694 0.024981 0.846066 0.266753
H22   H     H_    0.669868 0.071774 0.959460 0.272764
H23   H     H_    0.764462 0.049941 0.854433 0.238124
H24   H     H_    0.746560 0.896418 0.992824 0.228142
H25   H     H_    0.664060 0.849591 0.882184 0.224740
H26   H     H_    0.452505 0.868158 0.965750 0.208314
H27   H     H_    0.539927 0.909921 0.071353 0.223678
C43   C     C_3   0.315594 0.201821 0.776892 -0.397821
C44   C     C_3   0.177420 0.157324 0.819737 -0.358629
C45   C     C_3   0.097604 0.079432 0.751875 -0.894550
H28   H     H_    0.089489 0.123046 0.674758 0.254934
H29   H     H_    0.142639 0.009270 0.745035 0.275230
H30   H     H_    0.999357 0.047485 0.785828 0.246123
H31   H     H_    0.177389 0.112706 0.897353 0.238715
H32   H     H_    0.130444 0.226748 0.824819 0.216007
H33   H     H_    0.304816 0.233180 0.696572 0.238238
H34   H     H_    0.367181 0.134374 0.777641 0.200567
C46   C     C_1   0.403195 0.150660 0.985208 0.124874
N4    N     N_1   0.391837 0.060871 0.021530 -0.244154
C47   C     C_3   0.856391 0.425941 0.696365 -0.395011
C48   C     C_3   0.845974 0.322053 0.772344 -0.384220
C49   C     C_3   0.798552 0.338488 0.876898 -0.838927
H35   H     H_    0.865297 0.407754 0.906905 0.264605
H36   H     H_    0.700943 0.355638 0.871648 0.270385
H37   H     H_    0.794153 0.263327 0.931035 0.246050
H38   H     H_    0.777334 0.252536 0.744140 0.219486
H39   H     H_    0.941069 0.300535 0.780508 0.225769
H40   H     H_    0.922336 0.495856 0.726095 0.231568
H41   H     H_    0.759492 0.444473 0.692041 0.215473
C50   C     C_3   0.275745 0.260874 0.305256 -0.401948
C51   C     C_3   0.129621 0.211457 0.313206 -0.387499
C52   C     C_3   0.059513 0.263037 0.226165 -0.885677
H42   H     H_    0.088146 0.353765 0.218330 0.259699
H43   H     H_    0.082822 0.235718 0.153097 0.266017
H44   H     H_    0.954038 0.236956 0.240793 0.256730
H45   H     H_    0.106538 0.121861 0.309853 0.229691
H46   H     H_    0.091489 0.223808 0.387908 0.219261
H47   H     H_    0.291065 0.343263 0.327104 0.255454
H48   H     H_    0.308804 0.269753 0.224345 0.187336
C53   C     C_1   0.709978 0.722982 0.686435 0.223379
N5    N     N_1   0.756546 0.659362 0.733818 -0.238221
C54   C     C_1   0.144344 0.645471 0.628650 0.171722
N6    N     N_1   0.176354 0.670367 0.707687 -0.241176

loop_
_geom_bond_atom_site_label_1
_geom_bond_atom_site_label_2
_ccdc_geom_bond_type
C2    C35   S    
C7    C43   S    
C3    H4    S    
C9    H7    S    
C46   N4    T    
C48   H39   S    
C35   H15   S    
C40   C41   S    
C47   C48   S    
C21   C53   S    
C1    O2    A    
C49   H35   S    
C7    C8    A    
C51   H46   S    
C45   H28   S    
C43   H34   S    
C11   C19   A    
C37   C38   S    
C29   H9    S    
C23   O6    A    
C50   H47   S    
C28   C29   A    
C12   O4    A    
C51   C52   S    
C53   N5    T    
O2    Zn2   S    
C34   C35   S    
C3    H18   S    
C31   N1    A    
C44   C45   S    
O3    Zn1   S    
C8    C9    A    
C52   H42   S    
O4    Zn2   S    
C9    C10   A    
C37   H20   S    
C41   H25   S    
C21   C22   A    
C35   H16   S    
C12   C38   S    
C52   H43   S    
C36   H3    S    
C44   H32   S    
C31   H11   S    
C40   H26   S    
C49   H36   S    
C47   H40   S    
C51   H45   S    
C45   H29   S    
C24   H12   S    
C6    C18   A    
C1    C19   S    
C41   C42   S    
C27   C31   A    
C34   H1    S    
C4    H2    S    
C50   H48   S    
C48   H38   S    
C24   C25   A    
C21   N2    A    
C16   H8    S    
C12   O3    A    
C5    C18   A    
C20   C28   A    
C25   C26   A    
O7    Zn1   S    
C2    C4    S    
C42   H21   S    
C29   C30   A    
C11   C16   A    
C43   C44   S    
N2    Zn2   S    
C48   C49   S    
C34   C47   S    
C42   H22   S    
C5    C14   A    
C20   H10   S    
N1    Zn1   S    
C2    C33   S    
C26   C30   A    
C7    C19   A    
C32   C50   S    
C52   H44   S    
C22   C24   A    
C4    C54   S    
C44   H31   S    
C40   H27   S    
C49   H37   S    
C47   H41   S    
C33   O7    A    
C20   C32   A    
C45   H30   S    
O1    Zn1   S    
C18   C39   S    
C6    C17   A    
C30   H14   S    
C34   C38   S    
C8    C46   S    
C10   C13   A    
C1    O1    A    
C25   C27   A    
C43   H33   S    
C50   C51   S    
C13   C17   A    
C41   H24   S    
C23   O5    A    
C36   C38   S    
C2    C3    S    
C17   H6    S    
C15   H5    S    
C39   N3    T    
C36   H17   S    
C54   N6    T    
O6    Zn2   S    
C3    C36   S    
O5    Zn1   S    
C6    C23   S    
C5    C40   S    
C42   H23   S    
C10   C11   A    
C4    C37   S    
O8    Zn2   S    
C27   C28   A    
C14   C15   A    
C32   N1    A    
C13   C14   A    
C26   N2    A    
C37   H19   S    
C15   C16   A    
C33   O8    A    
C22   H13   S    
