data_mof_unit_66251.cif
_audit_creation_date              2012-12-10T19:01:58-0500
_audit_creation_method            fapswitch 2.2
_symmetry_space_group_name_H-M    P1
_symmetry_Int_Tables_number       1
_space_group_crystal_system       triclinic
_cell_length_a                    43.990177
_cell_length_b                    30.271674
_cell_length_c                    31.825537
_cell_angle_alpha                 90.049584
_cell_angle_beta                  136.480238
_cell_angle_gamma                 89.987915
_cell_volume                      29183.518

loop_
_atom_site_label
_atom_site_type_symbol
_atom_type_description
_atom_site_fract_x
_atom_site_fract_y
_atom_site_fract_z
_atom_type_partial_charge
C1    C     C_R   0.586271 0.999997 0.086372 0.942926
C2    C     C_R   0.413729 0.999964 0.913629 0.944307
C3    C     C_R   0.086271 0.499997 0.086372 0.943095
C4    C     C_R   0.913729 0.499964 0.913629 0.944158
C5    C     C_3   0.499798 0.999773 0.291132 -0.125377
C6    C     C_3   0.500318 0.999621 0.708984 -0.125070
C7    C     C_3   0.999783 0.499763 0.291118 -0.125357
C8    C     C_3   0.000303 0.499624 0.708969 -0.125102
C9    C     C_3   0.458650 0.010751 0.194603 -0.344718
C10   C     C_3   0.537234 0.020878 0.801305 -0.342341
C11   C     C_3   0.959008 0.512053 0.194964 -0.344517
C12   C     C_3   0.037851 0.519747 0.801920 -0.342511
C13   C     C_3   0.488828 0.039754 0.252655 0.609919
C14   C     C_3   0.500598 0.041071 0.736834 0.609628
C15   C     C_3   0.990097 0.540075 0.253927 0.609880
C16   C     C_3   0.001846 0.541048 0.738084 0.609765
C17   C     C_1   0.499464 0.999949 0.162714 0.108299
C18   C     C_1   0.500590 0.999854 0.837340 0.108241
C19   C     C_1   0.999456 0.499953 0.162707 0.108299
C20   C     C_1   0.000586 0.499849 0.837335 0.108247
C21   C     C_1   0.499801 0.999983 0.336575 0.143705
C22   C     C_1   0.500243 0.999874 0.663470 0.143581
C23   C     C_1   0.999796 0.499975 0.336570 0.143686
C24   C     C_1   0.000237 0.499877 0.663463 0.143592
C25   C     C_R   0.703046 0.039830 0.197215 0.612985
C26   C     C_R   0.296920 0.960258 0.802777 0.611944
C27   C     C_R   0.203046 0.539831 0.197219 0.613097
C28   C     C_R   0.796920 0.460257 0.802766 0.611850
C29   C     C_R   0.657288 0.039693 0.151281 -0.249039
C30   C     C_R   0.342675 0.960354 0.848700 -0.253856
C31   C     C_R   0.157289 0.539693 0.151285 -0.248924
C32   C     C_R   0.842674 0.460352 0.848689 -0.253965
C33   C     C_R   0.634264 0.000101 0.134740 -0.228905
C34   C     C_R   0.365736 0.999922 0.865271 -0.230404
C35   C     C_R   0.134264 0.500101 0.134741 -0.228930
C36   C     C_R   0.865735 0.499923 0.865271 -0.230406
C37   C     C_R   0.657382 0.960656 0.164815 -0.255509
C38   C     C_R   0.342656 0.039389 0.835235 -0.247848
C39   C     C_R   0.157382 0.460656 0.164811 -0.255288
C40   C     C_R   0.842655 0.539392 0.835246 -0.248055
C41   C     C_R   0.703152 0.960768 0.211058 0.610972
C42   C     C_R   0.296882 0.039320 0.788997 0.613304
C43   C     C_R   0.203152 0.460767 0.211055 0.611062
C44   C     C_R   0.796882 0.539323 0.789009 0.613197
C45   C     C_R   0.499936 0.999984 0.081196 0.892130
C46   C     C_R   0.500062 0.999951 0.918803 0.893114
C47   C     C_R   0.999937 0.499984 0.081196 0.892273
C48   C     C_R   0.000062 0.499951 0.918803 0.892992
C49   C     C_R   0.725994 0.000350 0.227119 -0.183524
C50   C     C_R   0.274006 0.999759 0.772912 -0.184788
C51   C     C_R   0.225995 0.500350 0.227120 -0.183567
C52   C     C_R   0.774005 0.499760 0.772913 -0.184763
C53   C     C_R   0.797095 0.987481 0.333754 -0.056696
C54   C     C_R   0.202899 0.012625 0.666276 -0.055933
C55   C     C_R   0.297095 0.487477 0.333753 -0.056510
C56   C     C_R   0.702899 0.512634 0.666279 -0.056107
C57   C     C_R   0.842845 0.987651 0.379128 -0.269649
C58   C     C_R   0.157148 0.012378 0.620884 -0.268601
C59   C     C_R   0.342845 0.487648 0.379127 -0.269608
C60   C     C_R   0.657148 0.512387 0.620887 -0.268646
C61   C     C_R   0.865516 0.000389 0.365378 -0.194021
C62   C     C_R   0.134484 0.999595 0.634632 -0.195752
C63   C     C_R   0.365516 0.500389 0.365378 -0.194056
C64   C     C_R   0.634484 0.499595 0.634632 -0.195717
C65   C     C_R   0.841907 0.013286 0.305705 0.637301
C66   C     C_R   0.158101 0.986749 0.694323 0.636938
C67   C     C_R   0.341907 0.513289 0.305706 0.637349
C68   C     C_R   0.658101 0.486740 0.694320 0.636886
C69   C     C_R   0.796147 0.013332 0.260582 -0.140399
C70   C     C_R   0.203860 0.986779 0.739462 -0.140970
C71   C     C_R   0.296147 0.513335 0.260583 -0.140420
C72   C     C_R   0.703859 0.486770 0.739459 -0.140971
C73   C     C_R   0.773829 0.000380 0.274596 0.106556
C74   C     C_R   0.226171 0.999755 0.725446 0.104987
C75   C     C_R   0.273830 0.500380 0.274596 0.106506
C76   C     C_R   0.726171 0.499756 0.725446 0.105039
C77   C     C_R   0.499988 0.913568 0.499991 0.927706
C78   C     C_R   0.999989 0.413568 0.499992 0.927697
C79   C     C_R   0.499915 0.000007 0.418669 0.896883
C80   C     C_R   0.500086 0.000003 0.581332 0.895895
C81   C     C_R   0.999914 0.500006 0.418669 0.896801
C82   C     C_R   0.000086 0.500004 0.581332 0.896002
C83   C     C_R   0.500012 0.086015 0.500007 1.045023
C84   C     C_R   0.000012 0.586016 0.500007 1.045050
C85   C     C_3   0.540254 0.988827 0.304178 -0.363477
C86   C     C_3   0.464068 0.978531 0.700121 -0.364033
C87   C     C_3   0.039868 0.487529 0.303790 -0.363537
C88   C     C_3   0.963429 0.479649 0.699483 -0.364022
C89   C     C_R   0.999997 0.086393 0.500012 0.880347
C90   C     C_R   0.499997 0.586393 0.500012 0.880352
C91   C     C_R   0.913517 0.000178 0.413438 0.928009
C92   C     C_R   0.086483 0.999737 0.586563 0.928079
C93   C     C_R   0.413517 0.500178 0.413439 0.928044
C94   C     C_R   0.586483 0.499737 0.586562 0.928052
C95   C     C_R   0.999998 0.913521 0.499983 0.882845
C96   C     C_R   0.499998 0.413521 0.499983 0.882844
C97   C     C_R   0.461013 0.796724 0.470380 0.610380
C98   C     C_R   0.538891 0.796725 0.529663 0.607506
C99   C     C_R   0.961014 0.296724 0.470386 0.610298
C100  C     C_R   0.038890 0.296725 0.529662 0.607556
C101  C     C_R   0.461010 0.842518 0.470150 -0.246855
C102  C     C_R   0.538914 0.842517 0.529857 -0.245513
C103  C     C_R   0.961011 0.342519 0.470156 -0.246804
C104  C     C_R   0.038914 0.342517 0.529856 -0.245598
C105  C     C_R   0.499968 0.865580 0.499992 -0.221923
C106  C     C_R   0.999968 0.365580 0.499994 -0.221920
C107  C     C_R   0.499946 0.773841 0.500026 -0.221251
C108  C     C_R   0.999946 0.273841 0.500028 -0.221246
C109  C     C_R   0.009138 0.203206 0.472057 -0.057868
C110  C     C_R   0.990742 0.203230 0.527948 -0.060964
C111  C     C_R   0.509139 0.703206 0.472058 -0.057670
C112  C     C_R   0.490740 0.703230 0.527944 -0.061141
C113  C     C_R   0.008980 0.157422 0.471811 -0.175307
C114  C     C_R   0.990947 0.157442 0.528212 -0.180021
C115  C     C_R   0.508981 0.657421 0.471813 -0.175325
C116  C     C_R   0.490945 0.657443 0.528209 -0.179993
C117  C     C_R   0.999977 0.134362 0.500019 -0.046520
C118  C     C_R   0.499978 0.634362 0.500019 -0.046527
C119  C     C_3   0.528722 0.029000 0.264868 0.660914
C120  C     C_3   0.464842 0.020313 0.728734 0.660346
C121  C     C_3   0.029626 0.528051 0.265773 0.660816
C122  C     C_3   0.965476 0.521390 0.729371 0.660340
C123  C     C_R   0.999933 0.226013 0.500002 0.204466
C124  C     C_R   0.499933 0.726013 0.500000 0.204450
C125  C     C_R   0.474232 0.202749 0.444828 0.574288
C126  C     C_R   0.525927 0.202845 0.555171 0.576075
C127  C     C_R   0.974232 0.702749 0.444829 0.574259
C128  C     C_R   0.025926 0.702845 0.555171 0.576150
C129  C     C_R   0.474261 0.156860 0.444604 0.269696
C130  C     C_R   0.525858 0.156956 0.555405 0.270053
C131  C     C_R   0.974262 0.656860 0.444604 0.269892
C132  C     C_R   0.025858 0.656956 0.555405 0.269921
C133  C     C_R   0.500043 0.133849 0.500006 -0.432267
C134  C     C_R   0.000043 0.633849 0.500006 -0.432288
C135  C     C_R   0.500083 0.225718 0.499996 -0.362853
C136  C     C_R   0.000083 0.725718 0.499996 -0.362868
C137  C     C_R   0.989836 0.796696 0.526656 -0.046701
C138  C     C_R   0.010254 0.796681 0.473294 -0.046757
C139  C     C_R   0.489836 0.296696 0.526656 -0.046645
C140  C     C_R   0.510253 0.296681 0.473293 -0.046843
C141  C     C_R   0.990010 0.842485 0.526918 -0.183385
C142  C     C_R   0.010027 0.842472 0.473010 -0.187810
C143  C     C_R   0.490010 0.342485 0.526919 -0.183400
C144  C     C_R   0.510026 0.342472 0.473009 -0.187801
C145  C     C_R   0.000008 0.865545 0.499963 -0.049166
C146  C     C_R   0.500008 0.365545 0.499963 -0.049157
C147  C     C_R   0.000062 0.773754 0.499985 0.238213
C148  C     C_R   0.500061 0.273754 0.499984 0.238232
C149  C     C_1   0.499702 0.000009 0.125437 -0.135999
C150  C     C_1   0.500321 0.999914 0.874586 -0.136137
C151  C     C_1   0.999698 0.500011 0.125433 -0.136012
C152  C     C_1   0.000319 0.499913 0.874584 -0.136127
C153  C     C_1   0.499825 0.000038 0.374112 -0.092677
C154  C     C_1   0.500185 0.999981 0.625898 -0.092809
C155  C     C_1   0.999824 0.500034 0.374111 -0.092671
C156  C     C_1   0.000183 0.499983 0.625897 -0.092821
C157  C     C_3   0.510323 0.959136 0.246166 -0.231266
C158  C     C_3   0.500644 0.957606 0.764740 -0.232256
C159  C     C_3   0.009005 0.458810 0.244844 -0.231300
C160  C     C_3   0.999351 0.457619 0.763445 -0.232182
C161  C     C_3   0.499199 0.999773 0.207876 -0.100261
C162  C     C_3   0.500904 0.999732 0.792227 -0.100532
C163  C     C_3   0.999184 0.499783 0.207861 -0.100272
C164  C     C_3   0.000895 0.499719 0.792218 -0.100496
C165  C     C_3   0.470236 0.970511 0.234023 0.434608
C166  C     C_3   0.536427 0.979016 0.772602 0.435056
C167  C     C_3   0.969302 0.471461 0.233088 0.434645
C168  C     C_3   0.035768 0.477927 0.771940 0.434966
H1    H     H_    0.779802 0.977596 0.344698 0.176366
H2    H     H_    0.220188 0.022523 0.655329 0.178646
H3    H     H_    0.279802 0.477590 0.344697 0.176492
H4    H     H_    0.720188 0.522540 0.655335 0.178519
H5    H     H_    0.860445 0.977493 0.424767 0.195766
H6    H     H_    0.139541 0.022506 0.575233 0.196786
H7    H     H_    0.360446 0.477487 0.424765 0.195804
H8    H     H_    0.639541 0.522522 0.575238 0.196747
H9    H     H_    0.778032 0.023248 0.214628 0.191054
H10   H     H_    0.221980 0.976881 0.785423 0.191480
H11   H     H_    0.278032 0.523254 0.214631 0.191036
H12   H     H_    0.721979 0.476866 0.785418 0.191497
H13   H     H_    0.430675 0.859853 0.446994 0.209234
H14   H     H_    0.569260 0.859848 0.553003 0.209132
H15   H     H_    0.930676 0.359853 0.447003 0.209222
H16   H     H_    0.069259 0.359848 0.552999 0.209132
H17   H     H_    0.016123 0.220890 0.450223 0.163304
H18   H     H_    0.983747 0.220933 0.549783 0.161784
H19   H     H_    0.516126 0.720889 0.450225 0.163451
H20   H     H_    0.483744 0.720934 0.549777 0.161675
H21   H     H_    0.016155 0.140141 0.449984 0.174476
H22   H     H_    0.983788 0.140174 0.550043 0.173731
H23   H     H_    0.516158 0.640140 0.449987 0.174505
H24   H     H_    0.483785 0.640175 0.550040 0.173713
H25   H     H_    0.573657 0.980254 0.349439 0.213003
H26   H     H_    0.434015 0.961584 0.658190 0.212667
H27   H     H_    0.072980 0.477891 0.348758 0.212992
H28   H     H_    0.932875 0.463625 0.657052 0.212691
H29   H     H_    0.981485 0.779134 0.546853 0.178723
H30   H     H_    0.018622 0.779106 0.453101 0.178622
H31   H     H_    0.481486 0.279133 0.546854 0.178747
H32   H     H_    0.518620 0.279106 0.453099 0.178558
H33   H     H_    0.981921 0.859781 0.547605 0.177501
H34   H     H_    0.018097 0.859760 0.452319 0.177555
H35   H     H_    0.481922 0.359781 0.547606 0.177509
H36   H     H_    0.518096 0.359760 0.452317 0.177534
H37   H     H_    0.425307 0.019681 0.149486 0.217626
H38   H     H_    0.567137 0.038153 0.843001 0.218641
H39   H     H_    0.925968 0.522045 0.150151 0.217668
H40   H     H_    0.068266 0.536105 0.844127 0.218569
H41   H     H_    0.518721 0.925795 0.242441 0.205504
H42   H     H_    0.501139 0.923215 0.777307 0.205482
H43   H     H_    0.016333 0.425217 0.240045 0.205552
H44   H     H_    0.998799 0.423229 0.774964 0.205449
H45   H     H_    0.639969 0.070468 0.128548 0.212385
H46   H     H_    0.359963 0.929561 0.871400 0.211212
H47   H     H_    0.139969 0.570469 0.128556 0.212415
H48   H     H_    0.859963 0.429557 0.871380 0.211189
H49   H     H_    0.640123 0.929794 0.152717 0.209881
H50   H     H_    0.359946 0.070233 0.847357 0.212834
H51   H     H_    0.140123 0.429793 0.152711 0.209908
H52   H     H_    0.859945 0.570237 0.847377 0.212840
O1    O     O_R   0.565460 0.963010 0.065460 -0.621178
O2    O     O_R   0.434540 0.963010 0.934540 -0.620871
O3    O     O_R   0.065460 0.463010 0.065460 -0.621139
O4    O     O_R   0.934540 0.463010 0.934540 -0.620939
O5    O     O_R   0.934500 0.999950 0.469270 -0.637658
O6    O     O_R   0.065500 0.999950 0.530730 -0.637468
O7    O     O_R   0.434500 0.499950 0.469270 -0.637637
O8    O     O_R   0.565500 0.499950 0.530730 -0.637487
O9    O     O_R   0.934490 0.999950 0.399700 -0.547741
O10   O     O_R   0.065510 0.999950 0.600300 -0.548151
O11   O     O_R   0.434490 0.499950 0.399700 -0.547737
O12   O     O_R   0.565510 0.499950 0.600300 -0.548168
O13   O     O_R   0.000010 0.934490 0.534800 -0.614374
O14   O     O_R   0.999990 0.934490 0.465200 -0.623437
O15   O     O_R   0.500010 0.434490 0.534800 -0.614370
O16   O     O_R   0.499990 0.434490 0.465200 -0.623444
O17   O     O_R   0.565400 0.036920 0.065400 -0.617645
O18   O     O_R   0.434600 0.036920 0.934600 -0.617538
O19   O     O_R   0.065400 0.536920 0.065400 -0.617597
O20   O     O_R   0.934600 0.536920 0.934600 -0.617562
O21   O     O_R   0.499990 0.963010 0.061610 -0.613138
O22   O     O_R   0.500010 0.963010 0.938390 -0.610679
O23   O     O_R   0.999990 0.463010 0.061610 -0.613112
O24   O     O_R   0.000010 0.463010 0.938390 -0.610756
O25   O     O_R   0.499940 0.036920 0.061550 -0.597897
O26   O     O_R   0.500060 0.036920 0.938450 -0.601891
O27   O     O_R   0.999940 0.536920 0.061550 -0.598102
O28   O     O_R   0.000060 0.536920 0.938450 -0.601657
O29   O     O_R   0.536910 0.934410 0.536900 -0.623826
O30   O     O_R   0.463090 0.934410 0.463100 -0.623327
O31   O     O_R   0.036910 0.434410 0.536900 -0.623777
O32   O     O_R   0.963090 0.434410 0.463100 -0.623362
O33   O     O_R   0.536920 0.999880 0.475310 -0.623188
O34   O     O_R   0.463080 0.999880 0.524690 -0.621814
O35   O     O_R   0.036920 0.499880 0.475310 -0.623046
O36   O     O_R   0.963080 0.499880 0.524690 -0.622026
O37   O     O_R   0.463000 0.999950 0.401380 -0.581682
O38   O     O_R   0.537000 0.999950 0.598620 -0.581755
O39   O     O_R   0.963000 0.499950 0.401380 -0.581677
O40   O     O_R   0.037000 0.499950 0.598620 -0.581723
O41   O     O_R   0.536940 0.065340 0.536940 -0.582284
O42   O     O_R   0.463060 0.065340 0.463060 -0.581616
O43   O     O_R   0.036940 0.565340 0.536940 -0.582188
O44   O     O_R   0.963060 0.565340 0.463060 -0.581730
O45   O     O_R   0.999920 0.065420 0.534690 -0.625411
O46   O     O_R   0.000080 0.065420 0.465310 -0.615976
O47   O     O_R   0.499920 0.565420 0.534690 -0.625425
O48   O     O_R   0.500080 0.565420 0.465310 -0.615959
Zn1   Zn    Zn3+2 0.500000 0.950610 0.000000 1.025373
Zn2   Zn    Zn3+2 0.000000 0.450610 0.000000 1.025320
Zn3   Zn    Zn3+2 0.500000 0.049320 0.000000 1.047913
Zn4   Zn    Zn3+2 0.000000 0.549320 0.000000 1.047945
Zn5   Zn    Zn3+2 0.549320 0.999860 0.549320 1.080443
Zn6   Zn    Zn3+2 0.450680 0.999860 0.450680 1.081927
Zn7   Zn    Zn3+2 0.049320 0.499860 0.549320 1.080651
Zn8   Zn    Zn3+2 0.950680 0.499860 0.450680 1.081679
Zn9   Zn    Zn3+2 0.999970 0.999950 0.546410 1.057172
Zn10  Zn    Zn3+2 0.000030 0.999950 0.453590 1.058376
Zn11  Zn    Zn3+2 0.499970 0.499950 0.546410 1.057171
Zn12  Zn    Zn3+2 0.500030 0.499950 0.453590 1.058367
F1    F     F_    0.558640 0.059652 0.279809 -0.597230
F2    F     F_    0.428033 0.042146 0.706941 -0.598913
F3    F     F_    0.060507 0.557731 0.281679 -0.597436
F4    F     F_    0.929352 0.544336 0.708269 -0.598746
F5    F     F_    0.725174 0.922254 0.239306 -0.630574
F6    F     F_    0.274891 0.077851 0.760778 -0.626450
F7    F     F_    0.225174 0.422253 0.239299 -0.630487
F8    F     F_    0.774891 0.577855 0.760801 -0.626524
F9    F     F_    0.862833 0.026512 0.291117 -0.620771
F10   F     F_    0.137184 0.973488 0.708915 -0.619266
F11   F     F_    0.362833 0.526518 0.291120 -0.620746
F12   F     F_    0.637183 0.473471 0.708908 -0.619286
F13   F     F_    0.423028 0.774707 0.441007 -0.627513
F14   F     F_    0.576865 0.774711 0.559044 -0.630025
F15   F     F_    0.923030 0.274707 0.441017 -0.627579
F16   F     F_    0.076864 0.274711 0.559039 -0.629985
F17   F     F_    0.448613 0.225011 0.391232 -0.583987
F18   F     F_    0.551558 0.225200 0.608761 -0.581277
F19   F     F_    0.948615 0.725011 0.391233 -0.584075
F20   F     F_    0.051557 0.725199 0.608761 -0.581160
Cl1   Cl    Cl    0.443016 0.129272 0.374440 -0.426840
Cl2   Cl    Cl    0.557086 0.129495 0.625576 -0.427790
Cl3   Cl    Cl    0.943018 0.629272 0.374441 -0.427180
Cl4   Cl    Cl    0.057084 0.629495 0.625575 -0.427369
F21   F     F_    0.478396 0.081337 0.257185 -0.572359
F22   F     F_    0.499943 0.083955 0.721285 -0.575385
F23   F     F_    0.980998 0.581972 0.259794 -0.572735
F24   F     F_    0.002497 0.583932 0.723842 -0.574891
Cl5   Cl    Cl    0.431342 0.931273 0.214179 -0.509912
Cl6   Cl    Cl    0.584122 0.951228 0.801193 -0.506371
Cl7   Cl    Cl    0.929175 0.433488 0.212009 -0.509297
Cl8   Cl    Cl    0.082591 0.448697 0.799651 -0.507061
F25   F     F_    0.724961 0.078441 0.213051 -0.623413
F26   F     F_    0.274973 0.921666 0.786912 -0.625207
F27   F     F_    0.224961 0.578442 0.213060 -0.623321
F28   F     F_    0.774973 0.421662 0.786890 -0.625289

loop_
_geom_bond_atom_site_label_1
_geom_bond_atom_site_label_2
_ccdc_geom_bond_type
C99   C103  A    
C4    C36   S    
C114  H22   S    
C55   C59   A    
C78   O32   A    
C38   H50   S    
C119  C161  S    
C47   O27   A    
O34   Zn6   S    
C14   F22   S    
O46   Zn10  S    
C26   F26   S    
C80   O34   A    
O24   Zn2   S    
O25   Zn3   S    
C112  C124  A    
C23   C155  T    
C26   C50   A    
C65   F9    S    
C67   F11   S    
C100  C104  A    
C159  H43   S    
C1    O1    A    
C89   O46   A    
O6    Zn10  S    
C9    C13   S    
C8    C168  S    
C144  H36   S    
O40   Zn7   S    
C11   C15   S    
C12   C16   S    
C70   C74   A    
C5    C13   S    
C100  F16   S    
C115  H23   S    
C93   O11   A    
C7    C15   S    
C116  H24   S    
C8    C16   S    
C40   H52   S    
C11   C167  S    
C58   H6    S    
C107  C124  S    
C41   F5    S    
C41   C49   A    
C128  F20   S    
C25   C29   A    
O42   Zn6   S    
C81   O39   A    
C27   C31   A    
C102  H14   S    
C28   C32   A    
C127  C136  A    
C45   C149  S    
C88   C122  S    
C62   C66   A    
C109  H17   S    
C98   C102  A    
C110  C123  A    
C29   H45   S    
C68   C72   A    
C115  C118  A    
C129  Cl1   S    
C79   O33   A    
O39   Zn8   S    
C42   F6    S    
C129  C133  A    
C137  H29   S    
C60   H8    S    
C103  H15   S    
C90   C118  S    
C63   C93   S    
C111  C124  A    
C2    O18   A    
C57   C61   A    
C59   C63   A    
C78   C106  S    
C60   C64   A    
O15   Zn11  S    
C90   O47   A    
C140  H32   S    
C64   C94   S    
C48   O28   A    
O27   Zn4   S    
C66   C70   A    
C77   C105  S    
C87   C159  S    
C88   C160  S    
C127  C131  A    
C87   H27   S    
C97   C107  A    
C61   C65   A    
C5    C21   S    
C132  C134  A    
C21   C153  T    
O36   Zn8   S    
C77   O30   A    
C18   C150  T    
C24   C156  T    
C6    C22   S    
C143  H35   S    
C157  H41   S    
O14   Zn10  S    
C29   C33   A    
C13   F21   S    
C43   C51   A    
C94   O12   A    
C119  F1    S    
C99   C108  A    
O44   Zn8   S    
C64   C68   A    
C39   H51   S    
C50   C74   S    
C6    C14   S    
C121  C163  S    
C122  C164  S    
C85   C119  S    
C16   C122  S    
C139  C143  A    
C159  C167  S    
C19   C151  T    
C110  C114  A    
C120  C162  S    
C5    C85   S    
C44   C52   A    
C160  C168  S    
C54   C74   A    
C11   H39   S    
C27   C51   A    
C139  C148  A    
C100  C108  A    
C30   C34   A    
C79   O37   A    
O22   Zn1   S    
C16   F24   S    
C46   O26   A    
C10   C14   S    
C157  C165  S    
C109  C123  A    
C1    O17   A    
C8    C88   S    
C125  C129  A    
C79   C153  S    
C93   O7    A    
C3    C35   S    
C10   C166  S    
C11   C163  S    
C19   C163  S    
C81   O35   A    
C9    C161  S    
O32   Zn8   S    
C17   C161  S    
C42   C50   A    
C113  C117  A    
C89   C117  S    
C26   C30   A    
O43   Zn7   S    
C83   O41   A    
C72   H12   S    
C112  C116  A    
C101  H13   S    
C7    C167  S    
C110  H18   S    
C3    O3    A    
O16   Zn12  S    
C84   O44   A    
C52   C76   S    
C32   C36   A    
C141  C145  A    
C96   C146  S    
C166  Cl6   S    
C10   H38   S    
O23   Zn2   S    
C86   H26   S    
C2    C34   S    
C7    C23   S    
C8    C24   S    
C96   O15   A    
O21   Zn1   S    
O29   Zn5   S    
C37   C41   A    
O18   Zn3   S    
C44   F8    S    
C114  C117  A    
C127  F19   S    
C32   H48   S    
C40   C44   A    
C10   C162  S    
O5    Zn9   S    
C86   C120  S    
C121  F3    S    
C122  F4    S    
C56   H4    S    
C58   C62   A    
C143  C146  A    
C6    C166  S    
C54   H2    S    
C95   C145  S    
C37   H49   S    
C48   O24   A    
C131  C134  A    
C104  C106  A    
O8    Zn12  S    
C84   C134  S    
O37   Zn6   S    
O19   Zn4   S    
C91   O9    A    
C97   F13   S    
C160  C164  S    
C99   F15   S    
C128  C136  A    
C54   C58   A    
C126  C130  A    
C20   C164  S    
C2    O2    A    
C102  C105  A    
C69   H9    S    
O2    Zn1   S    
C7    C87   S    
C69   C73   A    
C95   O14   A    
C53   H1    S    
C120  F2    S    
C92   O6    A    
C130  Cl2   S    
C78   O31   A    
C142  C145  A    
C82   O36   A    
C85   C157  S    
C55   H3    S    
C27   F27   S    
C53   C73   A    
C144  C146  A    
O26   Zn3   S    
C138  C142  A    
C45   O25   A    
C87   C121  S    
C53   C57   A    
C82   O40   A    
C167  Cl7   S    
C98   C107  A    
C56   C60   A    
O35   Zn7   S    
C168  Cl8   S    
C35   C39   A    
C112  H20   S    
C30   H46   S    
C125  F17   S    
O28   Zn4   S    
C4    O20   A    
C104  H16   S    
C47   C151  S    
C126  C135  A    
C14   C120  S    
C68   F12   S    
C31   C35   A    
C130  C133  A    
C80   O38   A    
C46   O22   A    
C108  C123  S    
C157  C161  S    
C158  C166  S    
C33   C37   A    
C131  Cl3   S    
C137  C141  A    
C137  C147  A    
C140  C144  A    
C51   C75   S    
C81   C155  S    
C80   C154  S    
C15   F23   S    
C113  H21   S    
O48   Zn12  S    
C111  H19   S    
C9    C165  S    
O33   Zn5   S    
C47   O23   A    
C18   C162  S    
O45   Zn9   S    
C25   F25   S    
C12   C164  S    
C65   C69   A    
O47   Zn11  S    
C67   C71   A    
C28   F28   S    
C25   C49   A    
C20   C152  T    
C31   H47   S    
C132  Cl4   S    
O30   Zn6   S    
O7    Zn11  S    
C3    O19   A    
C158  H42   S    
C56   C76   A    
C90   O48   A    
C72   C76   A    
C140  C148  A    
C1    C33   S    
O11   Zn12  S    
C12   H40   S    
O12   Zn11  S    
O31   Zn7   S    
C38   C42   A    
C59   H7    S    
C88   H28   S    
C139  H31   S    
O41   Zn5   S    
O9    Zn10  S    
C71   H11   S    
C62   C92   S    
C84   O43   A    
C5    C165  S    
C89   O45   A    
C109  C113  A    
C82   C156  S    
C165  Cl5   S    
C91   O5    A    
O38   Zn5   S    
C98   F14   S    
C128  C132  A    
C13   C119  S    
C43   F7    S    
C101  C105  A    
C160  H44   S    
C63   C67   A    
O10   Zn9   S    
C36   C40   A    
O3    Zn2   S    
C70   H10   S    
C39   C43   A    
C4    O4    A    
C57   H5    S    
C92   O10   A    
C138  C147  A    
C96   O16   A    
O17   Zn3   S    
C86   C158  S    
C125  C135  A    
C116  C118  A    
C138  H30   S    
C46   C150  S    
C159  C163  S    
C142  H34   S    
C45   O21   A    
C6    C86   S    
C141  H33   S    
O1    Zn1   S    
C22   C154  T    
C15   C121  S    
C34   C38   A    
C17   C149  T    
C12   C168  S    
C126  F18   S    
O13   Zn9   S    
C94   O8    A    
O20   Zn4   S    
C48   C152  S    
C55   C75   A    
C9    H37   S    
C71   C75   A    
C28   C52   A    
C85   H25   S    
C103  C106  A    
C49   C73   S    
C83   C133  S    
C136  C147  S    
C158  C162  S    
O4    Zn2   S    
C77   O29   A    
C66   F10   S    
C135  C148  S    
C83   O42   A    
C111  C115  A    
C95   O13   A    
C97   C101  A    
C61   C91   S    
