data_mof_unit_24717.cif
_audit_creation_date              2012-12-10T18:23:52-0500
_audit_creation_method            fapswitch 2.2
_symmetry_space_group_name_H-M    P1
_symmetry_Int_Tables_number       1
_space_group_crystal_system       triclinic
_cell_length_a                    15.704431
_cell_length_b                    14.915584
_cell_length_c                    14.017012
_cell_angle_alpha                 90.361859
_cell_angle_beta                  90.16267
_cell_angle_gamma                 88.842862
_cell_volume                      3282.60842512

loop_
_atom_site_label
_atom_site_type_symbol
_atom_type_description
_atom_site_fract_x
_atom_site_fract_y
_atom_site_fract_z
_atom_type_partial_charge
C1    C     C_R   0.503762 0.326678 0.499513 0.893227
C2    C     C_R   0.496204 0.672986 0.500213 0.940483
C3    C     C_R   0.494291 0.768312 0.500105 -0.190319
C4    C     C_R   0.505656 0.230782 0.495910 -0.173454
C5    C     C_R   0.571538 0.810860 0.504252 -0.254484
C6    C     C_R   0.427589 0.189203 0.493974 -0.242595
C7    C     C_R   0.574767 0.902102 0.487085 -0.028474
C8    C     C_R   0.423352 0.096583 0.486083 0.005102
C9    C     C_R   0.497477 0.952635 0.482815 -0.115845
C10   C     C_R   0.500164 0.045987 0.479215 -0.110830
C11   C     C_R   0.417937 0.909565 0.488573 -0.117346
C12   C     C_R   0.580077 0.088773 0.473982 -0.126004
C13   C     C_R   0.653591 0.943440 0.473808 0.423086
C14   C     C_R   0.343870 0.054134 0.491523 0.415165
C15   C     C_R   0.655355 0.036246 0.460836 0.417513
C16   C     C_R   0.341265 0.959952 0.497935 0.367618
C17   C     C_R   0.443760 0.554539 0.798096 -0.031809
C18   C     C_R   0.556131 0.445378 0.201840 -0.028485
C19   C     C_R   0.555704 0.445155 0.797984 -0.004493
C20   C     C_R   0.443363 0.553764 0.201967 -0.025901
C21   C     C_R   0.556810 0.443775 0.898523 -0.017690
C22   C     C_R   0.441809 0.554828 0.101423 -0.032897
C23   C     C_R   0.337791 0.500028 0.499874 0.927072
C24   C     C_R   0.662048 0.503961 0.500193 0.892591
C25   C     C_R   0.499117 0.499402 0.949365 0.020870
C26   C     C_R   0.499412 0.499174 0.050556 0.017364
C27   C     C_R   0.441120 0.555110 0.898959 -0.105638
C28   C     C_R   0.557475 0.443570 0.100969 -0.073486
C29   C     C_R   0.613996 0.388027 0.948924 -0.308928
C30   C     C_R   0.384159 0.610131 0.051051 -0.287781
C31   C     C_R   0.615632 0.388504 0.049555 0.466788
C32   C     C_R   0.382197 0.609476 0.950611 0.518338
C33   C     C_3   0.971739 0.432826 0.530330 -0.327834
C34   C     C_3   0.028195 0.592972 0.468105 -0.315921
C35   C     C_3   0.027021 0.448372 0.441701 0.588382
C36   C     C_3   0.972749 0.577463 0.556787 0.586919
C37   C     C_1   0.248903 0.503239 0.499635 -0.180394
C38   C     C_1   0.750725 0.510590 0.500373 -0.182342
C39   C     C_3   0.028443 0.496990 0.589190 -0.327318
C40   C     C_3   0.971339 0.528745 0.409276 -0.317974
C41   C     C_3   0.082825 0.511296 0.499417 0.074630
C42   C     C_3   0.916878 0.514561 0.499082 0.075490
C43   C     C_1   0.173625 0.507013 0.499341 0.005775
C44   C     C_1   0.825950 0.514420 0.499989 -0.004492
C45   C     C_R   0.417604 0.815563 0.485785 0.483054
C46   C     C_R   0.582905 0.182333 0.485886 0.439356
H1    H     H_    0.657693 0.343974 0.910358 0.162890
H2    H     H_    0.340161 0.653864 0.089590 0.159516
H3    H     H_    0.947062 0.367723 0.554849 0.162307
H4    H     H_    0.053371 0.658161 0.444374 0.156864
H5    H     H_    0.946064 0.540193 0.336222 0.154893
H6    H     H_    0.053974 0.484849 0.662004 0.152677
H7    H     H_    0.629088 0.770934 0.514984 0.187992
H8    H     H_    0.370276 0.230192 0.502504 0.193010
H9    H     H_    0.400790 0.597110 0.757306 0.165439
H10   H     H_    0.599898 0.403527 0.242503 0.160358
H11   H     H_    0.599365 0.402620 0.757643 0.142797
H12   H     H_    0.399197 0.595505 0.242227 0.131029
N1    N     N_R   0.500040 0.500070 0.750030 -0.114300
N2    N     N_R   0.499960 0.499930 0.249970 -0.111483
O1    O     O_R   0.500020 0.367860 0.580280 -0.596201
O2    O     O_R   0.499980 0.632140 0.419720 -0.635738
O3    O     O_R   0.500020 0.367840 0.419730 -0.640710
O4    O     O_R   0.499980 0.632160 0.580270 -0.608175
O5    O     O_R   0.376770 0.500000 0.580260 -0.622952
O6    O     O_R   0.623230 0.500000 0.419740 -0.640427
O7    O     O_R   0.376780 0.499980 0.419710 -0.615228
O8    O     O_R   0.623220 0.500020 0.580290 -0.606557
Zn1   Zn    Zn3+2 0.499990 0.500020 0.607200 0.975050
Zn2   Zn    Zn3+2 0.500010 0.499980 0.392800 0.938237
O9    O     O_3   0.062942 0.382307 0.380635 -0.603167
C47   C     C_3   0.998080 0.326809 0.345744 0.081173
H13   H     H_    0.943797 0.366861 0.315794 0.132685
H14   H     H_    0.974805 0.283024 0.403656 0.151271
C48   C     C_3   0.033714 0.267209 0.266365 -0.827104
H15   H     H_    0.088225 0.226092 0.293239 0.250500
H16   H     H_    0.983605 0.221726 0.239984 0.212115
H17   H     H_    0.055521 0.309094 0.206296 0.258905
O10   O     O_3   0.937572 0.645907 0.615289 -0.597876
C49   C     C_3   0.003042 0.685305 0.669312 0.079851
H18   H     H_    0.057796 0.704190 0.623817 0.139037
H19   H     H_    0.025828 0.638364 0.725687 0.137699
C50   C     C_3   0.968421 0.770043 0.717403 -0.769848
H20   H     H_    0.914478 0.753613 0.764847 0.259894
H21   H     H_    0.019354 0.801236 0.760708 0.203988
H22   H     H_    0.946006 0.818652 0.662640 0.268882
O11   O     O_3   0.670942 0.331263 0.097612 -0.618273
C51   C     C_3   0.753087 0.367894 0.096224 0.096567
H23   H     H_    0.752393 0.437382 0.126160 0.131357
H24   H     H_    0.778784 0.368616 0.022277 0.148735
C52   C     C_3   0.812555 0.310440 0.157161 -0.861101
H25   H     H_    0.814655 0.240431 0.129693 0.268084
H26   H     H_    0.877705 0.337803 0.154939 0.212830
H27   H     H_    0.789959 0.310652 0.232113 0.243390
O12   O     O_3   0.325840 0.666769 0.903927 -0.614186
C53   C     C_3   0.252420 0.619555 0.875872 0.091027
H28   H     H_    0.264280 0.546477 0.862453 0.120792
H29   H     H_    0.229409 0.648170 0.807290 0.170721
C54   C     C_3   0.181840 0.632304 0.949454 -0.864094
H30   H     H_    0.169561 0.704891 0.962768 0.268655
H31   H     H_    0.122444 0.601762 0.922501 0.212473
H32   H     H_    0.200212 0.599346 0.017446 0.246658
O13   O     O_3   0.344375 0.769619 0.462908 -0.593337
C55   C     C_3   0.337457 0.766660 0.362073 0.087810
H33   H     H_    0.395877 0.736857 0.328924 0.142695
H34   H     H_    0.327410 0.835091 0.332408 0.117221
C56   C     C_3   0.262562 0.709524 0.332447 -0.836279
H35   H     H_    0.201769 0.740430 0.357261 0.248292
H36   H     H_    0.260223 0.703873 0.253460 0.200089
H37   H     H_    0.269786 0.641356 0.362712 0.266331
O14   O     O_3   0.658662 0.220796 0.513960 -0.580783
C57   C     C_3   0.692883 0.272205 0.439837 0.162003
H38   H     H_    0.658671 0.336890 0.433859 0.135559
H39   H     H_    0.689601 0.238590 0.369281 0.136570
C58   C     C_3   0.785302 0.290857 0.463823 -0.822104
H40   H     H_    0.822604 0.227210 0.469769 0.287312
H41   H     H_    0.813308 0.332978 0.407568 0.175767
H42   H     H_    0.789028 0.326496 0.533397 0.254977
O15   O     O_3   0.730411 0.896084 0.481514 -0.562815
C59   C     C_3   0.744797 0.840156 0.400860 -0.319526
H43   H     H_    0.691388 0.838831 0.348191 0.121835
H44   H     H_    0.757552 0.770528 0.425282 0.193012
H45   H     H_    0.802946 0.862271 0.363696 0.188883
O16   O     O_3   0.269897 0.104804 0.503776 -0.593576
C60   C     C_3   0.240311 0.133055 0.413244 -0.387128
H46   H     H_    0.284329 0.180712 0.379410 0.183634
H47   H     H_    0.178148 0.168450 0.422887 0.220231
H48   H     H_    0.230099 0.075413 0.364023 0.128300
O17   O     O_3   0.731161 0.074641 0.434337 -0.546258
C61   C     C_3   0.740301 0.064849 0.334072 0.116315
H49   H     H_    0.692017 0.106544 0.295549 0.119079
H50   H     H_    0.732204 0.994638 0.309736 0.125468
C62   C     C_3   0.828925 0.092821 0.304109 -0.836578
H51   H     H_    0.878016 0.054603 0.345103 0.266529
H52   H     H_    0.838063 0.078869 0.226864 0.207718
H53   H     H_    0.837118 0.165537 0.316539 0.242981
O18   O     O_3   0.271914 0.918784 0.539528 -0.546538
C63   C     C_3   0.198594 0.923034 0.481100 0.207071
H54   H     H_    0.213680 0.911893 0.404397 0.096652
H55   H     H_    0.164630 0.988301 0.490357 0.185676
C64   C     C_3   0.137381 0.851402 0.513219 -0.836450
H56   H     H_    0.113832 0.867358 0.586147 0.256754
H57   H     H_    0.082130 0.848746 0.463732 0.197671
H58   H     H_    0.169947 0.784699 0.514663 0.279918

loop_
_geom_bond_atom_site_label_1
_geom_bond_atom_site_label_2
_ccdc_geom_bond_type
O11   C51   S    
C36   O10   S    
C41   C43   S    
C36   C42   S    
O12   C53   S    
C55   H34   S    
C39   C41   S    
C4    C46   A    
C19   H11   S    
C33   C39   S    
C29   H1    S    
C50   H20   S    
C34   C40   S    
C33   C42   S    
C30   H2    S    
C19   C21   A    
C2    C3    S    
C49   C50   S    
C33   H3    S    
C58   H40   S    
C53   C54   S    
O2    Zn2   S    
C23   O7    A    
C57   H38   S    
C45   O13   S    
C16   O18   S    
C59   H44   S    
O8    Zn1   S    
C58   H41   S    
C53   H29   S    
C60   H48   S    
C24   C38   S    
C56   H35   S    
O3    Zn2   S    
C20   N2    A    
C9    C10   A    
C17   H9    S    
C59   H45   S    
C24   O6    A    
C40   C42   S    
C39   H6    S    
C35   O9    S    
C46   O14   S    
C56   H36   S    
C34   C41   S    
C42   C44   S    
C6    H8    S    
C47   C48   S    
C1    O3    A    
C57   H39   S    
C55   H33   S    
C13   O15   S    
C2    O4    A    
C28   C31   A    
C34   H4    S    
C14   O16   S    
C17   C27   A    
C31   O11   S    
C47   H14   S    
C64   H58   S    
C52   H25   S    
C5    C7    A    
C49   H18   S    
C6    C8    A    
C19   N1    A    
C25   C26   A    
C23   C37   S    
C21   C29   A    
C3    C45   A    
C12   C46   A    
C37   C43   T    
C61   H50   S    
C48   H15   S    
C38   C44   T    
C52   H26   S    
C9    C11   A    
C11   C16   A    
C54   H30   S    
C15   O17   S    
C51   C52   S    
N2    Zn2   S    
C58   H42   S    
C53   H28   S    
C54   H32   S    
C50   H22   S    
C18   C28   A    
O4    Zn1   S    
C48   H16   S    
C10   C12   A    
C17   N1    A    
C62   H53   S    
C18   N2    A    
C54   H31   S    
C51   H24   S    
C12   C15   A    
N1    Zn1   S    
C13   C15   A    
C60   H46   S    
C56   H37   S    
C14   C16   A    
C11   C45   A    
C4    C6    A    
C20   H12   S    
C59   H43   S    
C62   H52   S    
O17   C61   S    
C5    H7    S    
C7    C9    A    
C21   C25   A    
C8    C14   A    
C22   C30   A    
O14   C57   S    
C50   H21   S    
C27   C32   A    
C36   C39   S    
C20   C22   A    
C47   H13   S    
C3    C5    A    
C63   C64   S    
C1    O1    A    
O15   C59   S    
C63   H55   S    
C18   H10   S    
C25   C27   A    
C40   H5    S    
O18   C63   S    
O6    Zn2   S    
C26   C28   A    
C1    C4    S    
O1    Zn1   S    
O7    Zn2   S    
C64   H57   S    
C35   C40   S    
O9    C47   S    
C29   C31   A    
C64   H56   S    
C52   H27   S    
C30   C32   A    
C23   O5    A    
C62   H51   S    
O5    Zn1   S    
C33   C35   S    
C49   H19   S    
C61   H49   S    
C34   C36   S    
C55   C56   S    
C35   C41   S    
C48   H17   S    
C63   H54   S    
C24   O8    A    
O10   C49   S    
C61   C62   S    
C7    C13   A    
C32   O12   S    
C51   H23   S    
C8    C10   A    
C22   C26   A    
O13   C55   S    
C60   H47   S    
C57   C58   S    
C2    O2    A    
O16   C60   S    
