data_mof_unit_63587.cif
_audit_creation_date              2013-03-05T16:19:22-0500
_audit_creation_method            fapswitch 2.2
_symmetry_space_group_name_H-M    P1
_symmetry_Int_Tables_number       1
_space_group_crystal_system       triclinic
_cell_length_a                    18.78211
_cell_length_b                    18.812018
_cell_length_c                    18.795683
_cell_angle_alpha                 109.437049
_cell_angle_beta                  109.261121
_cell_angle_gamma                 109.336887
_cell_volume                      5136.03506962

loop_
_atom_site_label
_atom_site_type_symbol
_atom_site_description
_atom_site_fract_x
_atom_site_fract_y
_atom_site_fract_z
_atom_type_partial_charge
O1    O     O_R   0.090180 0.947810 0.537990 -0.586873
O2    O     O_R   0.090150 0.052180 0.642350 -0.570057
C1    C     C_R   0.118777 0.999862 0.618606 0.805778
O3    O     O_R   0.090190 0.037990 0.447830 -0.582610
O4    O     O_R   0.090170 0.142360 0.552190 -0.580462
C2    C     C_R   0.121916 0.118531 0.502848 0.783997
Cu1   Cu    Cu3+1 0.000020 0.938200 0.438210 1.110018
Cu2   Cu    Cu3+1 0.999980 0.061800 0.561790 1.034018
O5    O     O_R   0.909850 0.947820 0.357650 -0.542902
O6    O     O_R   0.909820 0.052190 0.462010 -0.587859
O7    O     O_R   0.909830 0.857640 0.447810 -0.535464
O8    O     O_R   0.909810 0.962010 0.552170 -0.593436
C3    C     C_R   0.881291 0.000315 0.381182 0.819643
C4    C     C_R   0.881522 0.881309 0.500709 0.824161
H1    H     H_    0.140000 0.271319 0.526095 0.197090
C5    C     C_R   0.269519 0.100582 0.492329 -0.136901
H2    H     H_    0.231179 0.055396 0.505896 0.146935
C6    C     C_R   0.332058 0.086908 0.475220 -0.114838
H3    H     H_    0.338619 0.031353 0.473307 0.151688
C7    C     C_R   0.385794 0.144264 0.460210 -0.097454
H4    H     H_    0.433287 0.132660 0.445449 0.163597
C8    C     C_R   0.379649 0.217496 0.465691 -0.114326
H5    H     H_    0.422803 0.260169 0.453475 0.134927
C9    C     C_R   0.318609 0.234329 0.485839 0.058567
C10   C     C_R   0.259135 0.172223 0.494039 0.097806
C11   C     C_R   0.192463 0.184848 0.505544 -0.149220
C12   C     C_R   0.190262 0.261099 0.516203 -0.184781
C13   C     C_R   0.251481 0.324551 0.513615 0.250548
C14   C     C_R   0.315314 0.311388 0.497700 -0.145178
C15   C     C_R   0.177497 0.923715 0.684323 0.092053
C16   C     C_R   0.185714 0.000679 0.685573 -0.187012
C17   C     C_R   0.256823 0.080145 0.755849 -0.195783
H6    H     H_    0.263259 0.140359 0.758021 0.192589
C18   C     C_R   0.323026 0.082354 0.820313 0.243082
C19   C     C_R   0.315057 0.003956 0.817748 -0.146168
C20   C     C_R   0.241031 0.925716 0.750403 0.068274
C21   C     C_3   0.238627 0.848830 0.689299 -0.513329
C22   C     C_3   0.170394 0.847281 0.616661 0.149651
H7    H     H_    0.300436 0.865275 0.687628 0.157404
H8    H     H_    0.214707 0.792560 0.699499 0.249256
H9    H     H_    0.191728 0.861745 0.572025 0.119057
C23   C     C_R   0.750878 0.736562 0.425440 -0.013105
C24   C     C_R   0.813132 0.816039 0.500773 -0.113689
C25   C     C_R   0.803959 0.834622 0.575236 -0.161955
H10   H     H_    0.848654 0.897215 0.633635 0.194375
C26   C     C_R   0.740106 0.770637 0.576435 0.233726
C27   C     C_R   0.683074 0.688186 0.501494 -0.094701
C28   C     C_R   0.684960 0.675080 0.424832 -0.000836
C29   C     C_3   0.681799 0.600314 0.359589 -0.480974
C30   C     C_3   0.756862 0.667744 0.362078 0.531164
H11   H     H_    0.698917 0.560012 0.386290 0.203923
H12   H     H_    0.620225 0.562961 0.296950 0.263704
C31   C     C_R   0.770580 0.938657 0.228524 0.038982
C32   C     C_R   0.818607 0.004800 0.314823 -0.178562
C33   C     C_R   0.808726 0.078640 0.335904 -0.214032
H13   H     H_    0.850361 0.133590 0.401183 0.209279
C34   C     C_R   0.744687 0.081917 0.273794 0.335956
C35   C     C_R   0.687389 0.007073 0.189763 -0.212318
C36   C     C_R   0.705885 0.939629 0.167694 -0.013806
C37   C     C_3   0.648088 0.843517 0.122447 0.098228
C38   C     C_3   0.720716 0.842428 0.189514 0.105751
H14   H     H_    0.587692 0.824908 0.126996 0.107442
H15   H     H_    0.702774 0.823291 0.233689 0.129875
O9    O     O_R   0.447770 0.590190 0.538000 -0.577005
O10   O     O_R   0.552150 0.590170 0.642370 -0.552839
C39   C     C_R   0.499601 0.618350 0.618643 0.821139
O11   O     O_R   0.357600 0.409850 0.447820 -0.527383
O12   O     O_R   0.461980 0.409830 0.552180 -0.598433
C40   C     C_R   0.381395 0.380557 0.499333 0.807503
Cu3   Cu    Cu3+1 0.438170 0.500030 0.438220 1.131604
Cu4   Cu    Cu3+1 0.561770 0.500000 0.561810 1.070070
O13   O     O_R   0.447790 0.409860 0.357660 -0.530511
O14   O     O_R   0.552170 0.409840 0.462020 -0.599798
O15   O     O_R   0.537960 0.590200 0.447840 -0.565745
O16   O     O_R   0.642340 0.590180 0.552210 -0.546512
C41   C     C_R   0.499074 0.380149 0.381349 0.795229
C42   C     C_R   0.618335 0.619209 0.500386 0.829843
O17   O     O_R   0.552220 0.142430 0.090190 -0.531256
O18   O     O_R   0.447830 0.038100 0.090230 -0.569574
C43   C     C_R   0.499995 0.118551 0.118922 0.858267
O19   O     O_R   0.462030 0.052220 0.909860 -0.556146
O20   O     O_R   0.357640 0.947890 0.909900 -0.577520
C44   C     C_R   0.381479 0.001516 0.882413 0.806093
Cu5   Cu    Cu3+1 0.561810 0.061820 0.000030 1.117174
Cu6   Cu    Cu3+1 0.438190 0.938280 0.000080 1.055519
O21   O     O_R   0.552170 0.962000 0.909870 -0.575154
O22   O     O_R   0.447780 0.857670 0.909910 -0.591201
O23   O     O_R   0.642360 0.052210 0.090200 -0.531022
O24   O     O_R   0.537970 0.947880 0.090240 -0.586187
C45   C     C_R   0.500116 0.881215 0.881123 0.801943
C46   C     C_R   0.618749 0.003365 0.121732 0.896262
C47   C     C_R   0.532204 0.768706 0.698383 0.157597
C48   C     C_R   0.500555 0.684822 0.685952 -0.085704
C49   C     C_R   0.479944 0.668499 0.746220 -0.134109
H16   H     H_    0.460203 0.605099 0.740941 0.178005
C50   C     C_R   0.479902 0.732883 0.810697 -0.087074
H17   H     H_    0.459851 0.718059 0.854175 0.197088
C51   C     C_R   0.503550 0.814916 0.817080 -0.101807
C52   C     C_R   0.534365 0.832997 0.763399 0.170846
C53   C     C_3   0.507871 0.870446 0.707416 -0.474166
C54   C     C_3   0.505421 0.799590 0.635967 -0.451983
H18   H     H_    0.442962 0.864250 0.692467 0.188840
H19   H     H_    0.560207 0.936525 0.731848 0.228759
H20   H     H_    0.439043 0.752107 0.579534 0.220494
H21   H     H_    0.556342 0.824845 0.619259 0.228711
C55   C     C_R   0.477182 0.306468 0.233800 0.015893
C56   C     C_R   0.500078 0.313572 0.315431 -0.124221
C57   C     C_R   0.526922 0.257365 0.333862 -0.177930
H22   H     H_    0.544742 0.261636 0.396754 0.178304
C58   C     C_R   0.525138 0.191379 0.269358 0.288908
C59   C     C_R   0.501482 0.184861 0.187093 -0.079776
C60   C     C_R   0.480187 0.244401 0.171166 -0.010512
C61   C     C_3   0.398648 0.224748 0.099179 -0.524974
C62   C     C_3   0.393342 0.290686 0.167680 0.560030
H23   H     H_    0.412048 0.246045 0.054550 0.254312
H24   H     H_    0.345713 0.156620 0.066471 0.217070
N1    N     N_R   0.085746 0.769402 0.571510 0.183126
O25   O     O_R   0.049764 0.746023 0.614343 -0.271917
O26   O     O_R   0.048597 0.719641 0.488075 -0.246976
Br1   Br    Br    0.734174 0.798081 0.681476 -0.460333
N2    N     N_R   0.836678 0.663397 0.398056 0.148453
O27   O     O_R   0.846003 0.603920 0.348522 -0.230635
O28   O     O_R   0.887262 0.703158 0.481628 -0.290827
N3    N     N_R   0.735584 0.668653 0.279956 0.127448
O29   O     O_R   0.664322 0.667853 0.238052 -0.339669
O30   O     O_R   0.790447 0.676582 0.251274 -0.241404
N4    N     N_R   0.737075 0.159191 0.299446 0.141415
O31   O     O_R   0.711439 0.184685 0.244353 -0.318605
O32   O     O_R   0.766210 0.210624 0.381019 -0.300098
N5    N     N_R   0.631395 0.798826 0.033490 0.174135
O33   O     O_R   0.657718 0.842001 0.997178 -0.332178
O34   O     O_R   0.584954 0.714644 0.988124 -0.297492
Br2   Br    Br    0.781212 0.788634 0.146337 -0.212754
Br3   Br    Br    0.548642 0.108277 0.294684 -0.434870
N6    N     N_R   0.400562 0.365551 0.155950 0.145831
O35   O     O_R   0.343048 0.354154 0.085101 -0.270099
O36   O     O_R   0.459424 0.444121 0.218526 -0.346122
N7    N     N_R   0.318798 0.252178 0.179157 0.123884
O37   O     O_R   0.302351 0.184201 0.188906 -0.357129
O38   O     O_R   0.269441 0.286775 0.181762 -0.260754
Br4   Br    Br    0.246805 0.429949 0.535902 -0.446708
Br5   Br    Br    0.424572 0.193405 0.904741 -0.446597

loop_
_geom_bond_atom_site_label_1
_geom_bond_atom_site_label_2
_geom_bond_distance
_ccdc_geom_bond_type
C33   H13   1.083087 S    
C48   C49   1.403373 A    
C32   C33   1.404952 A    
C59   C60   1.394645 A    
O13   C41   1.295245 A    
C31   C36   1.376991 A    
C38   Br2   1.948594 S    
N6    O35   1.301431 A    
C55   C60   1.387462 A    
C31   C32   1.393229 A    
O10   C39   1.291322 A    
Cu1   O7    1.970363 S    
C11   C12   1.397484 A    
C55   C62   1.505326 S    
C20   C21   1.493345 S    
Cu5   O21   1.971105 S    
C6    H3    1.082554 S    
C21   H8    1.111782 S    
N1    O26   1.300359 A    
O4    C2    1.296798 A    
O7    C4    1.296315 A    
O17   C43   1.294106 A    
C55   C56   1.395370 A    
C57   H22   1.083417 S    
C15   C22   1.498896 S    
C37   H14   1.112472 S    
C18   C19   1.414768 A    
C38   H15   1.111640 S    
O5    C3    1.294302 A    
C9    C14   1.417175 A    
C53   C54   1.519743 S    
C58   C59   1.409880 A    
C22   N1    1.460855 S    
C31   C38   1.494191 S    
C18   Br5   1.917886 S    
C16   C17   1.401068 A    
C5    H2    1.079919 S    
C29   H11   1.112778 S    
O15   C42   1.290052 A    
C50   C51   1.407442 A    
Cu3   O15   1.972246 S    
C62   N6    1.466421 S    
Cu3   Cu4   2.688731 S    
O9    Cu3   1.970744 S    
O24   C46   1.299737 A    
C35   C46   1.447571 S    
C49   C50   1.400000 A    
C61   H24   1.112437 S    
C36   C37   1.496152 S    
C30   N2    1.469868 S    
O3    Cu1   1.972711 S    
C60   C61   1.495935 S    
O19   C44   1.291034 A    
C25   C26   1.402705 A    
C14   C40   1.453715 S    
Cu6   O22   1.968806 S    
C54   H21   1.111557 S    
C27   C28   1.393311 A    
Cu1   Cu2   2.685049 S    
C30   N3    1.468875 S    
Cu5   Cu6   2.687286 S    
C22   H9    1.113546 S    
O3    C2    1.293399 A    
O21   C45   1.295522 A    
C37   N5    1.464511 S    
Cu4   O14   1.970863 S    
Cu6   O24   1.973179 S    
O12   C40   1.293386 A    
C35   C36   1.392544 A    
O10   Cu4   1.968958 S    
O20   C44   1.298245 A    
C53   H19   1.111512 S    
C37   C38   1.533446 S    
O1    C1    1.292500 A    
C19   C20   1.394778 A    
C17   C18   1.397933 A    
N5    O34   1.300612 A    
C24   C25   1.408565 A    
N4    O32   1.301879 A    
C21   C22   1.517136 S    
O17   Cu5   1.968685 S    
H1    C12   1.083932 S    
C52   C53   1.493705 S    
O23   C46   1.287722 A    
Cu2   O8    1.972712 S    
C29   H12   1.109186 S    
C50   H17   1.082856 S    
C53   H18   1.112164 S    
C2    C11   1.460682 S    
C26   Br1   1.918768 S    
C23   C28   1.379943 A    
C9    C10   1.416223 A    
C1    C16   1.447558 S    
O16   C42   1.295236 A    
N2    O27   1.301304 A    
N7    O38   1.301415 A    
C47   C54   1.491542 S    
C23   C30   1.505157 S    
C39   C48   1.442857 S    
Cu2   O6    1.973288 S    
C28   C29   1.494764 S    
C7    C8    1.393029 A    
C51   C52   1.397146 A    
C41   C56   1.449944 S    
C33   C34   1.408517 A    
O14   C41   1.294378 A    
C8    C9    1.416021 A    
C58   Br3   1.918108 S    
C23   C24   1.395881 A    
C27   C42   1.443300 S    
C56   C57   1.404916 A    
N4    O31   1.299482 A    
O18   Cu6   1.971004 S    
O19   Cu5   1.973277 S    
C25   H10   1.083197 S    
N3    O30   1.301124 A    
C61   C62   1.519836 S    
C5    C10   1.415897 A    
N6    O36   1.301234 A    
C26   C27   1.409777 A    
C13   C14   1.404313 A    
C19   C44   1.452739 S    
O1    Cu1   1.973288 S    
O2    Cu2   1.971604 S    
Cu5   O23   1.971629 S    
O8    C4    1.293100 A    
O6    C3    1.295139 A    
C34   N4    1.443161 S    
O4    Cu2   1.970362 S    
C54   H20   1.112093 S    
O20   Cu6   1.971750 S    
C3    C32   1.454635 S    
C15   C20   1.389007 A    
O11   Cu3   1.970866 S    
C17   H6    1.083828 S    
O2    C1    1.293582 A    
C10   C11   1.418692 A    
C21   H7    1.112241 S    
N1    O25   1.302356 A    
Cu4   O16   1.970865 S    
C34   C35   1.424864 A    
C15   C16   1.395561 A    
O12   Cu4   1.972153 S    
C43   C59   1.445051 S    
C47   C48   1.392800 A    
C57   C58   1.398550 A    
N5    O33   1.302129 A    
C6    C7    1.389849 A    
C62   N7    1.470767 S    
C49   H16   1.083478 S    
N2    O28   1.300912 A    
N7    O37   1.302308 A    
O18   C43   1.291318 A    
Cu1   O5    1.971602 S    
C7    H4    1.082703 S    
C5    C6    1.394106 A    
C29   C30   1.526945 S    
O22   C45   1.295089 A    
C12   C13   1.384165 A    
C8    H5    1.081031 S    
C4    C24   1.454343 S    
Cu3   O13   1.968957 S    
C13   Br4   1.923870 S    
O11   C40   1.293676 A    
C45   C51   1.453963 S    
C47   C52   1.381609 A    
O9    C39   1.294744 A    
N3    O29   1.302038 A    
C61   H23   1.106198 S    
