data_mof_unit_35710.cif
_audit_creation_date              2012-12-11T15:31:43-0500
_audit_creation_method            fapswitch 2.2
_symmetry_space_group_name_H-M    P1
_symmetry_Int_Tables_number       1
_space_group_crystal_system       triclinic
_cell_length_a                    6.959869
_cell_length_b                    14.760467
_cell_length_c                    21.298243
_cell_angle_alpha                 74.807141
_cell_angle_beta                  90.430963
_cell_angle_gamma                 90.449488
_cell_volume                      2111.41717499

loop_
_atom_site_label
_atom_site_type_symbol
_atom_type_description
_atom_site_fract_x
_atom_site_fract_y
_atom_site_fract_z
_atom_type_partial_charge
O1    O     O_R   0.648150 0.130050 0.214300 -0.537422
O2    O     O_R   0.351850 0.869950 0.785700 -0.537422
O3    O     O_R   0.320490 0.006660 0.340150 -0.543010
O4    O     O_R   0.679510 0.993340 0.659850 -0.543010
O5    O     O_R   0.146100 0.869940 0.285700 -0.538456
O6    O     O_R   0.853900 0.130060 0.714300 -0.538456
C1    C     C_R   0.489396 0.001581 0.367102 0.675413
C2    C     C_R   0.510604 0.998419 0.632898 0.675413
O7    O     O_R   0.318690 0.137980 0.218120 -0.540294
O8    O     O_R   0.681310 0.862020 0.781880 -0.540294
O9    O     O_R   0.144280 0.002190 0.162800 -0.542265
O10   O     O_R   0.855720 0.997810 0.837200 -0.542265
C3    C     C_R   0.487775 0.175533 0.205891 0.710350
C4    C     C_R   0.512225 0.824467 0.794109 0.710350
O11   O     O_R   0.649960 0.997790 0.337200 -0.540372
O12   O     O_R   0.350040 0.002210 0.662800 -0.540372
O13   O     O_3   0.479300 0.955290 0.231990 -0.370500
O14   O     O_3   0.520700 0.044710 0.768010 -0.370500
V1    V     V_3+5 0.206040 0.008290 0.253340 1.416920
V2    V     V_3+5 0.793960 0.991710 0.746660 1.416920
O15   O     O_R   0.814320 0.993320 0.159850 -0.540354
O16   O     O_R   0.185680 0.006680 0.840150 -0.540353
C5    C     C_R   0.982264 0.999547 0.132757 0.694899
C6    C     C_R   0.017736 0.000453 0.867243 0.694898
O17   O     O_R   0.816120 0.862000 0.281880 -0.540763
O18   O     O_R   0.183880 0.138000 0.718120 -0.540763
C7    C     C_R   0.984609 0.824470 0.293986 0.706070
C8    C     C_R   0.015391 0.175530 0.706014 0.706070
V3    V     V_3+5 0.705540 0.991700 0.246660 1.416854
V4    V     V_3+5 0.294460 0.008300 0.753340 1.416854
O19   O     O_3   0.982150 0.044700 0.268010 -0.369138
O20   O     O_3   0.017850 0.955300 0.731990 -0.369138
C9    C     C_R   0.992611 0.722980 0.321429 -0.073294
C10   C     C_R   0.007388 0.277020 0.678571 -0.073294
C11   C     C_R   0.011050 0.566073 0.306705 0.168624
C12   C     C_R   0.988950 0.433927 0.693295 0.168625
C13   C     C_R   0.002665 0.663392 0.280684 -0.173829
C14   C     C_R   0.997335 0.336608 0.719316 -0.173829
C15   C     C_R   0.990541 0.686655 0.388730 -0.222432
C16   C     C_R   0.009459 0.313345 0.611270 -0.222432
C17   C     C_R   0.998215 0.588821 0.417586 0.051321
C18   C     C_R   0.001785 0.411179 0.582414 0.051320
C19   C     C_R   0.008704 0.528225 0.375438 0.125747
C20   C     C_R   0.991296 0.471775 0.624561 0.125747
C21   C     C_R   0.995877 0.549696 0.486812 0.074461
C22   C     C_R   0.004123 0.450304 0.513188 0.074461
C23   C     C_R   0.014520 0.393221 0.469450 -0.195335
C24   C     C_R   0.985480 0.606779 0.530550 -0.195335
C25   C     C_R   0.016718 0.431168 0.402665 -0.207269
C26   C     C_R   0.983282 0.568831 0.597335 -0.207269
H1    H     H_    0.024887 0.382632 0.372523 0.134970
H2    H     H_    0.975113 0.617368 0.627477 0.134970
H3    H     H_    0.017168 0.262508 0.583255 0.098309
H4    H     H_    0.982832 0.737492 0.416745 0.098308
H5    H     H_    0.995709 0.306738 0.771569 0.101140
H6    H     H_    0.004291 0.693262 0.228431 0.101141
H7    H     H_    0.021342 0.317885 0.484826 0.118633
H8    H     H_    0.978658 0.682115 0.515174 0.118633
C27   C     C_3   0.853456 0.948737 0.985424 -0.170530
C28   C     C_3   0.146543 0.051263 0.014576 -0.170530
C29   C     C_3   0.010849 0.911284 0.037691 -0.190471
C30   C     C_3   0.989151 0.088716 0.962309 -0.190471
H9    H     H_    0.020996 0.838333 0.068975 0.110718
H10   H     H_    0.979004 0.161667 0.931025 0.110718
H11   H     H_    0.739708 0.903858 0.972653 0.119354
H12   H     H_    0.260292 0.096142 0.027347 0.119354
C31   C     C_3   0.990289 0.000284 0.062197 -0.049627
C32   C     C_3   0.009711 0.999716 0.937803 -0.049627
C33   C     C_3   0.834940 0.037454 0.010567 0.234704
C34   C     C_3   0.165060 0.962546 0.989433 0.234704
C35   C     C_3   0.680803 0.994574 0.479619 -0.119948
C36   C     C_3   0.319197 0.005426 0.520381 -0.119948
C37   C     C_3   0.602670 0.073557 0.507905 -0.134132
C38   C     C_3   0.397330 0.926443 0.492095 -0.134132
H13   H     H_    0.687268 0.134294 0.514896 0.101549
H14   H     H_    0.312732 0.865706 0.485104 0.101549
H15   H     H_    0.829984 0.990178 0.462579 0.108300
H16   H     H_    0.170016 0.009822 0.537421 0.108301
C39   C     C_3   0.502324 0.999009 0.562278 -0.005285
C40   C     C_3   0.497676 0.000991 0.437722 -0.005286
C41   C     C_3   0.580519 0.920041 0.534810 -0.143813
C42   C     C_3   0.419481 0.079959 0.465190 -0.143814
H17   H     H_    0.646491 0.853995 0.564001 0.106304
H18   H     H_    0.353509 0.146005 0.435999 0.106304
C43   C     C_R   0.497882 0.277550 0.179493 -0.033750
C44   C     C_R   0.502118 0.722450 0.820507 -0.033750
C45   C     C_R   0.520470 0.435595 0.191621 -0.182880
C46   C     C_R   0.479530 0.564404 0.808379 -0.182880
C47   C     C_R   0.512277 0.338864 0.220107 0.154704
C48   C     C_R   0.487723 0.661136 0.779893 0.154704
C49   C     C_R   0.491907 0.313308 0.111802 -0.264450
C50   C     C_R   0.508093 0.686692 0.888198 -0.264450
C51   C     C_R   0.500677 0.410963 0.082221 0.086804
C52   C     C_R   0.499323 0.589037 0.917779 0.086804
C53   C     C_R   0.514844 0.471762 0.123743 0.108073
C54   C     C_R   0.485156 0.528238 0.876257 0.108073
C55   C     C_R   0.495609 0.450117 0.013100 0.068569
C56   C     C_R   0.504391 0.549883 0.986900 0.068569
C57   C     C_R   0.517779 0.607043 0.030695 -0.190757
C58   C     C_R   0.482221 0.392957 0.969305 -0.190757
C59   C     C_R   0.523081 0.568559 0.097485 -0.197077
C60   C     C_R   0.476919 0.431441 0.902515 -0.197077
H19   H     H_    0.533638 0.615400 0.129018 0.124450
H20   H     H_    0.466362 0.384600 0.870982 0.124450
H21   H     H_    0.520247 0.737632 0.916122 0.100234
H22   H     H_    0.479752 0.262368 0.083878 0.100234
H23   H     H_    0.531232 0.483023 0.222769 0.130442
H24   H     H_    0.468768 0.516977 0.777231 0.130442
H25   H     H_    0.524449 0.682464 0.015236 0.122267
H26   H     H_    0.475551 0.317536 0.984764 0.122267
C61   C     C_3   0.481005 0.695419 0.706636 -0.804142
H27   H     H_    0.487994 0.772969 0.688679 0.189000
H28   H     H_    0.604046 0.666160 0.685649 0.205728
H29   H     H_    0.345338 0.671474 0.688215 0.208805
C62   C     C_3   0.518995 0.304581 0.293364 -0.804142
H30   H     H_    0.512006 0.227031 0.311321 0.189000
H31   H     H_    0.654662 0.328526 0.311785 0.208805
H32   H     H_    0.395954 0.333840 0.314351 0.205728
C63   C     C_3   0.022804 0.504716 0.260172 -0.805949
H33   H     H_    0.022855 0.546610 0.208560 0.215280
H34   H     H_    0.157465 0.463466 0.269020 0.212190
H35   H     H_    0.897319 0.456396 0.266935 0.211019
C64   C     C_3   0.977196 0.495284 0.739827 -0.805948
H36   H     H_    0.977145 0.453390 0.791440 0.215280
H37   H     H_    0.102681 0.543604 0.733065 0.211019
H38   H     H_    0.842535 0.536534 0.730980 0.212190
C65   C     C_3   0.649607 0.083424 0.022211 -0.809162
H39   H     H_    0.568632 0.106525 0.975759 0.205018
H40   H     H_    0.562972 0.032407 0.058750 0.222079
H41   H     H_    0.682505 0.145432 0.040767 0.197407
C66   C     C_3   0.350393 0.916576 0.977788 -0.809162
H42   H     H_    0.431368 0.893475 0.024241 0.205018
H43   H     H_    0.317495 0.854568 0.959233 0.197407
H44   H     H_    0.437028 0.967593 0.941249 0.222079

loop_
_geom_bond_atom_site_label_1
_geom_bond_atom_site_label_2
_ccdc_geom_bond_type
C29   C34   S    
C46   C54   A    
C58   H26   S    
C54   C60   A    
O13   V3    S    
C11   C63   S    
C61   H27   S    
O4    C2    A    
C66   H44   S    
V1    O19   S    
C47   C62   S    
C55   C56   A    
C43   C49   A    
C64   H36   S    
C23   C25   A    
C21   C22   A    
C7    C9    S    
O9    V1    S    
C9    C15   A    
C38   H14   S    
C10   C16   A    
C11   C13   A    
C36   C39   S    
O3    C1    A    
C46   H24   S    
C64   H37   S    
C15   H4    S    
C49   C51   A    
C52   C56   A    
O12   V4    S    
C62   H30   S    
C57   H25   S    
C28   C30   S    
C18   C22   A    
C5    C31   S    
C29   H9    S    
O7    C3    A    
C36   H16   S    
O13   V1    S    
O5    C7    A    
C13   H6    S    
O7    V1    S    
O6    C8    A    
C14   H5    S    
C28   C31   S    
O8    V2    S    
C25   H1    S    
C45   C53   A    
C2    C39   S    
C26   H2    S    
O3    V1    S    
O14   V4    S    
C11   C19   A    
C30   H10   S    
C2    O12   A    
C24   C26   A    
C28   H12   S    
C59   H19   S    
C38   C40   S    
C17   C19   A    
C49   H22   S    
C18   C20   A    
C48   C61   S    
O1    V3    S    
C35   C40   S    
C41   H17   S    
O11   V3    S    
C63   H34   S    
O17   V3    S    
C27   C29   S    
C12   C64   S    
C4    C44   S    
C36   C38   S    
C44   C48   A    
C39   C41   S    
C43   C47   A    
C19   C25   A    
C64   H38   S    
C1    O11   A    
C62   H31   S    
O15   V3    S    
C9    C13   A    
C30   C33   S    
C31   C33   S    
C52   C54   A    
C65   H40   S    
C27   C32   S    
C23   H7    S    
C29   C31   S    
C28   C34   S    
C62   H32   S    
O10   V2    S    
C58   C60   A    
C37   C39   S    
C61   H28   S    
C60   H20   S    
C33   C65   S    
C27   C33   S    
C40   C42   S    
C57   C59   A    
C46   C48   A    
C56   C57   A    
C42   H18   S    
C45   C47   A    
O8    C4    A    
O16   C6    A    
C12   C20   A    
O1    C3    A    
C37   H13   S    
C38   C41   S    
C66   H42   S    
C51   C55   A    
C37   C42   S    
C35   H15   S    
C55   C58   A    
C35   C37   S    
V2    O20   S    
C21   C24   A    
C20   C26   A    
C22   C23   A    
O16   V4    S    
C10   C14   A    
C16   C18   A    
C66   H43   S    
C63   H33   S    
C24   H8    S    
O5    V1    S    
O17   C7    A    
O6    V2    S    
O10   C6    A    
O18   C8    A    
C30   C32   S    
O2    V4    S    
O15   C5    A    
C65   H41   S    
V3    O19   S    
C44   C50   A    
C27   H11   S    
C12   C14   A    
V4    O20   S    
C50   C52   A    
O9    C5    A    
C34   C66   S    
C63   H35   S    
C61   H29   S    
O14   V2    S    
O2    C4    A    
C6    C32   S    
C8    C10   S    
O4    V2    S    
C53   C59   A    
C50   H21   S    
C45   H23   S    
C15   C17   A    
C51   C53   A    
C16   H3    S    
C3    C43   S    
C32   C34   S    
C17   C21   A    
C36   C42   S    
C65   H39   S    
C1    C40   S    
C35   C41   S    
O18   V4    S    
