data_mof_unit_35076.cif
_audit_creation_date              2012-12-10T18:10:53-0500
_audit_creation_method            fapswitch 2.2
_symmetry_space_group_name_H-M    P1
_symmetry_Int_Tables_number       1
_space_group_crystal_system       triclinic
_cell_length_a                    12.600508
_cell_length_b                    13.218716
_cell_length_c                    15.735117
_cell_angle_alpha                 90.980743
_cell_angle_beta                  102.306618
_cell_angle_gamma                 83.753919
_cell_volume                      2545.40529862

loop_
_atom_site_label
_atom_site_type_symbol
_atom_type_description
_atom_site_fract_x
_atom_site_fract_y
_atom_site_fract_z
_atom_type_partial_charge
C1    C     C_R   0.440674 0.690721 0.484985 0.848048
C2    C     C_R   0.594333 0.202295 0.490627 -0.259508
C3    C     C_R   0.304664 0.839244 0.484651 -0.181993
C4    C     C_R   0.500822 0.500131 0.661575 0.902882
C5    C     C_R   0.280936 0.943279 0.494091 -0.102386
C6    C     C_R   0.359605 0.008061 0.490402 -0.116235
C7    C     C_R   0.460276 0.970671 0.469599 0.140214
C8    C     C_R   0.484013 0.865880 0.457623 0.090662
C9    C     C_R   0.541777 0.034842 0.467669 -0.069471
C10   C     C_R   0.651541 0.994305 0.473553 -0.028149
C11   C     C_R   0.671314 0.892107 0.451715 -0.119973
C12   C     C_3   0.473580 0.612635 0.047693 -0.362747
C13   C     C_R   0.585748 0.831243 0.436249 -0.181986
C14   C     C_R   0.515628 0.138399 0.453939 0.385451
C15   C     C_R   0.704949 0.162606 0.511757 -0.330413
C16   C     C_R   0.559717 0.309304 0.503534 0.942282
C17   C     C_R   0.407581 0.799470 0.471005 -0.128794
C18   C     C_R   0.078514 0.369214 0.362611 -0.229226
C19   C     C_R   0.802047 0.627906 0.604182 0.013172
C20   C     C_R   0.908345 0.653556 0.628208 -0.188589
C21   C     C_R   0.989316 0.603666 0.590019 -0.155946
C22   C     C_R   0.963919 0.527612 0.527047 0.016607
C23   C     C_3   0.503345 0.502523 0.083647 0.161090
C24   C     C_R   0.854068 0.504380 0.504686 0.219416
C25   C     C_R   0.041956 0.476215 0.483496 -0.010403
C26   C     C_R   0.006534 0.409760 0.413829 0.156270
C27   C     C_R   0.899280 0.385902 0.394988 -0.167046
C28   C     C_R   0.499213 0.500061 0.338492 0.920402
C29   C     C_R   0.825125 0.430339 0.441642 -0.151813
C30   C     C_R   0.154012 0.488874 0.504880 -0.048031
C31   C     C_R   0.185808 0.391732 0.382881 0.103103
C32   C     C_3   0.478346 0.615086 0.950001 0.038545
C33   C     C_3   0.616509 0.459136 0.969539 -0.491185
C34   C     C_3   0.416202 0.436403 0.033658 -0.471624
C35   C     C_3   0.617812 0.457399 0.068332 0.281461
C36   C     C_1   0.498032 0.500085 0.249453 -0.077081
C37   C     C_3   0.502566 0.503851 0.917928 0.259658
C38   C     C_3   0.374023 0.674163 0.896242 -0.910787
C39   C     C_3   0.416770 0.436043 0.935795 -0.390043
C40   C     C_1   0.499825 0.500860 0.174468 -0.015871
C41   C     C_1   0.503245 0.502218 0.826351 -0.070654
C42   C     C_1   0.502599 0.501059 0.750857 -0.178549
C43   C     C_R   0.735065 0.059512 0.496611 0.404475
H1    H     H_    0.529521 0.664832 0.084998 0.213529
H2    H     H_    0.602239 0.756320 0.410422 0.188804
H3    H     H_    0.240360 0.367900 0.340271 0.202374
H4    H     H_    0.872430 0.332602 0.343795 0.168187
H5    H     H_    0.051420 0.322815 0.306338 0.166065
H6    H     H_    0.188886 0.534309 0.559023 0.130272
H7    H     H_    0.738944 0.666196 0.633902 0.143158
H8    H     H_    0.070045 0.627567 0.609521 0.142183
H9    H     H_    0.927893 0.712184 0.676113 0.167400
H10   H     H_    0.745012 0.406594 0.425663 0.211685
H11   H     H_    0.636547 0.380179 0.947526 0.164961
H12   H     H_    0.390446 0.641179 0.057284 0.184776
H13   H     H_    0.680114 0.504571 0.955320 0.228313
H14   H     H_    0.631961 0.376497 0.090334 0.082727
H15   H     H_    0.333909 0.462766 0.897618 0.193443
H16   H     H_    0.436603 0.356556 0.914942 0.180291
H17   H     H_    0.333457 0.466433 0.043085 0.206400
H18   H     H_    0.300107 0.637535 0.900334 0.255629
H19   H     H_    0.364571 0.752924 0.921427 0.253105
H20   H     H_    0.379127 0.679747 0.826959 0.248229
H21   H     H_    0.876481 0.933908 0.630786 0.341695
H22   H     H_    0.357790 0.104081 0.234655 0.383034
H23   H     H_    0.432944 0.356889 0.059159 0.195801
H24   H     H_    0.850627 0.384389 0.145566 0.344035
H25   H     H_    0.767225 0.212516 0.535840 0.221052
H26   H     H_    0.750997 0.859290 0.443757 0.224693
H27   H     H_    0.245259 0.789471 0.494156 0.179284
H28   H     H_    0.343134 0.086732 0.507888 0.173602
H29   H     H_    0.203698 0.973184 0.509260 0.202342
H30   H     H_    0.547513 0.658224 0.943671 0.184477
N1    N     N_R   0.222200 0.444690 0.455710 -0.118357
N2    N     N_R   0.776960 0.554780 0.543830 -0.134278
O1    O     O_R   0.366740 0.627160 0.478850 -0.616503
O2    O     O_2   0.945941 0.095209 0.551294 -0.301078
O3    O     O_3   0.903616 0.911731 0.578092 -0.560614
O4    O     O_2   0.304404 0.191565 0.378207 -0.353655
O5    O     O_2   0.441342 0.270411 0.319154 -0.333444
O6    O     O_3   0.417064 0.081078 0.284834 -0.530099
O7    O     O_2   0.730686 0.624146 0.096154 -0.270352
O8    O     O_2   0.731928 0.521543 0.224450 -0.304572
O9    O     O_3   0.848773 0.450124 0.115691 -0.520495
O10   O     O_R   0.544830 0.662520 0.507140 -0.633957
O11   O     O_R   0.410920 0.482310 0.608710 -0.621250
O12   O     O_R   0.589010 0.517670 0.637000 -0.612284
O13   O     O_R   0.455170 0.337480 0.492860 -0.564307
O14   O     O_R   0.633260 0.372840 0.521150 -0.647614
O15   O     O_R   0.410990 0.482330 0.363000 -0.598677
O16   O     O_R   0.589080 0.517690 0.391290 -0.628771
O17   O     O_2   0.901133 0.984211 0.425654 -0.253518
S1    S     S_3+6 0.875498 0.014345 0.512181 0.012406
S2    S     S_3+6 0.416051 0.175231 0.358057 0.012753
S3    S     S_3+6 0.732595 0.517777 0.129057 0.011298
Zn1   Zn    Zn3+2 0.381090 0.476390 0.481110 0.994833
Zn2   Zn    Zn3+2 0.618910 0.523610 0.518890 0.945753

loop_
_geom_bond_atom_site_label_1
_geom_bond_atom_site_label_2
_ccdc_geom_bond_type
O13   Zn1   S    
C8    C13   A    
C27   C29   A    
C41   C42   T    
C19   C20   A    
C18   C26   A    
C34   H23   S    
C7    C8    A    
C4    O12   A    
C12   C23   S    
C26   C27   A    
C4    C42   S    
C5    H29   S    
C5    C6    A    
C30   N1    A    
C4    O11   A    
O3    S1    S    
C23   C40   S    
N2    Zn2   S    
C24   C29   A    
C33   C35   S    
C22   C25   A    
C32   C38   S    
C2    C16   S    
C9    C10   A    
C38   H18   S    
C33   H13   S    
C39   H16   S    
C16   O14   A    
C21   C22   A    
C12   C32   S    
C34   H17   S    
C1    O10   A    
C6    H28   S    
C34   C39   S    
N1    Zn1   S    
C36   C40   T    
C3    H27   S    
O4    S2    D    
C32   H30   S    
C25   C30   A    
C31   N1    A    
C25   C26   A    
C39   H15   S    
C31   H3    S    
C33   C37   S    
O14   Zn2   S    
O9    S3    S    
C9    C14   A    
H22   O6    S    
C23   C34   S    
O8    S3    D    
C32   C37   S    
O16   Zn2   S    
C2    C15   A    
O11   Zn1   S    
C30   H6    S    
C23   C35   S    
C22   C24   A    
O5    S2    D    
C21   H8    S    
C38   H20   S    
C27   H4    S    
C33   H11   S    
C7    C9    A    
O7    S3    D    
C10   C43   A    
C1    O1    A    
H21   O3    S    
C3    C5    A    
C18   H5    S    
C11   H26   S    
C24   N2    A    
O15   Zn1   S    
C6    C7    A    
C35   S3    S    
C1    C17   S    
C8    C17   A    
C35   H14   S    
C19   N2    A    
C15   C43   A    
C37   C39   S    
O1    Zn1   S    
C13   H2    S    
O6    S2    S    
C11   C13   A    
C19   H7    S    
C29   H10   S    
C15   H25   S    
O2    S1    D    
O17   S1    D    
C43   S1    S    
C3    C17   A    
C28   O16   A    
C37   C41   S    
C2    C14   A    
C12   H12   S    
O10   Zn2   S    
C10   C11   A    
H24   O9    S    
C20   C21   A    
C28   C36   S    
C20   H9    S    
C16   O13   A    
C12   H1    S    
C28   O15   A    
C18   C31   A    
O12   Zn2   S    
C14   S2    S    
C38   H19   S    
