data_mof_unit_20355.cif
_audit_creation_date              2013-03-05T16:06:00-0500
_audit_creation_method            fapswitch 2.2
_symmetry_space_group_name_H-M    P1
_symmetry_Int_Tables_number       1
_space_group_crystal_system       triclinic
_cell_length_a                    10.985087
_cell_length_b                    9.505922
_cell_length_c                    23.57244
_cell_angle_alpha                 89.997024
_cell_angle_beta                  88.634261
_cell_angle_gamma                 89.998719
_cell_volume                      2460.81459499

loop_
_atom_site_label
_atom_site_type_symbol
_atom_site_description
_atom_site_fract_x
_atom_site_fract_y
_atom_site_fract_z
_atom_type_partial_charge
O1    O     O_R   0.319640 0.618740 0.500000 -0.589848
O2    O     O_R   0.680360 0.381260 0.500000 -0.597391
O3    O     O_R   0.680360 0.618740 0.500000 -0.589831
O4    O     O_R   0.319640 0.381260 0.500000 -0.597483
C1    C     C_R   0.261834 0.500008 0.500144 0.848823
C2    C     C_R   0.738166 0.500005 0.499865 0.849186
O5    O     O_R   0.499960 0.618810 0.417880 -0.554522
O6    O     O_R   0.500040 0.381190 0.582120 -0.524185
O7    O     O_R   0.500040 0.618810 0.582120 -0.554350
O8    O     O_R   0.499960 0.381190 0.417880 -0.524354
C3    C     C_R   0.501600 0.499923 0.390822 0.934019
C4    C     C_R   0.498430 0.499917 0.609181 0.933277
Cu1   Cu    Cu3+1 0.500000 0.640660 0.500000 1.056463
Cu2   Cu    Cu3+1 0.500000 0.359340 0.500000 1.058995
C5    C     C_R   0.594052 0.516109 0.877707 0.647818
C6    C     C_R   0.406820 0.515975 0.122170 0.648095
N1    N     N_R   0.483299 0.515585 0.852753 -0.459911
N2    N     N_R   0.517413 0.515556 0.147245 -0.460537
C7    C     C_R   0.377805 0.507050 0.884526 0.633404
C8    C     C_R   0.623053 0.506982 0.115572 0.634757
C9    C     C_R   0.381833 0.493354 0.944419 -0.151363
C10   C     C_R   0.619369 0.494801 0.055569 -0.148391
C11   C     C_R   0.496582 0.493628 0.970124 -0.090545
C12   C     C_R   0.504679 0.493894 0.029824 -0.091935
C13   C     C_R   0.603344 0.491832 0.936219 -0.136225
C14   C     C_R   0.397896 0.491298 0.063700 -0.138121
C15   C     C_R   0.276860 0.469731 0.979167 0.230162
C16   C     C_R   0.724637 0.472739 0.020796 0.231872
C17   C     C_R   0.286754 0.457511 0.038478 0.320817
C18   C     C_R   0.714865 0.459630 0.961492 0.315736
O9    O     O_2   0.694479 0.545167 0.845837 -0.431507
O10   O     O_2   0.306137 0.544954 0.153881 -0.431189
O11   O     O_2   0.270543 0.512129 0.858048 -0.433542
O12   O     O_2   0.730071 0.509823 0.142299 -0.428682
C19   C     C_R   0.580179 0.611329 0.239594 -0.110163
C20   C     C_R   0.420561 0.611661 0.760441 -0.110227
H1    H     H_    0.630205 0.693792 0.217542 0.212092
H2    H     H_    0.370922 0.694423 0.782495 0.211748
C21   C     C_R   0.579054 0.605643 0.299049 0.255835
C22   C     C_R   0.421581 0.605978 0.700990 0.255753
C23   C     C_R   0.509262 0.500366 0.327982 -0.293200
C24   C     C_R   0.490907 0.500354 0.672029 -0.293218
C25   C     C_R   0.446351 0.398443 0.295658 0.376274
C26   C     C_R   0.553562 0.398154 0.704334 0.376566
C27   C     C_R   0.456457 0.401921 0.236591 -0.136406
C28   C     C_R   0.543581 0.401678 0.763404 -0.137060
H3    H     H_    0.411241 0.322759 0.211693 0.220776
H4    H     H_    0.588669 0.322388 0.788301 0.220205
C29   C     C_R   0.519755 0.509397 0.208288 0.171014
C30   C     C_R   0.480664 0.509414 0.791722 0.171626
C31   C     C_R   0.063409 0.372508 0.500115 -0.151122
C32   C     C_R   0.936581 0.627500 0.499928 -0.116754
C33   C     C_R   0.936592 0.372507 0.499950 -0.150719
C34   C     C_R   0.063415 0.627502 0.500044 -0.116850
H5    H     H_    0.110779 0.272584 0.500176 0.145734
H6    H     H_    0.889201 0.727420 0.499867 0.154281
H7    H     H_    0.889225 0.272582 0.499926 0.145715
H8    H     H_    0.110792 0.727422 0.500067 0.154258
C35   C     C_R   0.872054 0.500003 0.499890 -0.000674
C36   C     C_R   0.127944 0.500005 0.500126 -0.000783
C37   C     C_R   0.405495 0.074302 0.477795 0.061786
C38   C     C_R   0.594050 0.925582 0.522646 0.037856
C39   C     C_R   0.594508 0.074290 0.522201 0.061997
C40   C     C_R   0.405952 0.925593 0.477352 0.037597
H9    H     H_    0.329665 0.129851 0.459945 0.143513
H10   H     H_    0.669123 0.869897 0.541192 0.128797
H11   H     H_    0.670340 0.129827 0.540048 0.143453
H12   H     H_    0.330878 0.869916 0.458806 0.128899
N3    N     N_R   0.500000 0.852070 0.500000 -0.172898
N4    N     N_R   0.500000 0.147930 0.500000 -0.178492
N5    N     N_R   0.160427 0.454049 0.954723 0.205397
O13   O     O_R   0.136769 0.344096 0.924000 -0.207430
O14   O     O_R   0.079315 0.552150 0.962202 -0.217040
N6    N     N_R   0.841274 0.460435 0.045313 0.207899
O15   O     O_R   0.867585 0.347870 0.073939 -0.204581
O16   O     O_R   0.908017 0.572598 0.049780 -0.214800
S1    S     S_3+6 0.174109 0.363239 0.078597 0.145007
O17   O     O_2   0.091753 0.465510 0.109223 -0.132314
O18   O     O_2   0.100747 0.269842 0.041068 -0.160075
O19   O     O_3   0.242713 0.261203 0.126637 -0.517238
H13   H     H_    0.175880 0.225849 0.151732 0.408438
S2    S     S_3+6 0.828541 0.366923 0.921401 0.144423
O20   O     O_2   0.909414 0.470029 0.890323 -0.136562
O21   O     O_2   0.903328 0.275336 0.959010 -0.158455
O22   O     O_3   0.760812 0.262986 0.873740 -0.515338
H14   H     H_    0.827916 0.228073 0.848702 0.408347
N7    N     N_R   0.652542 0.704585 0.329111 0.154752
O23   O     O_R   0.726384 0.660541 0.367649 -0.350762
O24   O     O_R   0.661269 0.834070 0.311559 -0.293047
N8    N     N_R   0.348555 0.705417 0.670953 0.154590
O25   O     O_R   0.341433 0.835312 0.688189 -0.293004
O26   O     O_R   0.273925 0.661826 0.632661 -0.350458
S3    S     S_3+6 0.348492 0.269079 0.326119 0.037893
O27   O     O_2   0.267709 0.207943 0.281780 -0.247750
O28   O     O_2   0.424439 0.153334 0.350400 -0.266906
O29   O     O_3   0.260597 0.341479 0.377658 -0.553378
H15   H     H_    0.201780 0.266941 0.388844 0.362825
S4    S     S_3+6 0.651061 0.268459 0.673854 0.037823
O30   O     O_2   0.731670 0.206948 0.718184 -0.247847
O31   O     O_2   0.574801 0.153033 0.649548 -0.266209
O32   O     O_3   0.739163 0.340627 0.622332 -0.553635
H16   H     H_    0.798060 0.266063 0.611270 0.362716

loop_
_geom_bond_atom_site_label_1
_geom_bond_atom_site_label_2
_geom_bond_distance
_ccdc_geom_bond_type
C37   N4    1.366582 A    
N7    O23   1.301382 A    
S3    O27   1.503976 D    
C15   C17   1.409691 A    
C23   C25   1.421994 A    
C21   N7    1.437298 S    
O3    C2    1.295004 A    
C16   N6    1.422889 S    
C33   C35   1.404096 A    
C15   N5    1.423129 S    
C21   C23   1.424597 A    
C34   C36   1.404061 A    
S1    O17   1.501222 D    
O5    C3    1.297635 A    
O32   H16   0.990419 S    
N6    O16   1.299684 A    
O1    C1    1.295010 A    
C40   H12   1.081007 S    
C19   H1    1.083060 S    
C12   C14   1.403430 A    
C5    C13   1.404537 A    
C27   H3    1.082309 S    
O7    Cu1   1.946880 S    
C4    C24   1.481815 S    
N1    C7    1.367147 A    
C26   S4    1.773882 S    
C32   C34   1.393350 A    
C19   C29   1.395522 A    
C11   C12   1.412195 A    
C31   H5    1.083075 S    
O3    Cu1   1.992192 S    
C8    O12   1.347222 S    
C22   C24   1.424576 A    
C9    C15   1.416357 A    
S3    O28   1.502297 D    
C10   C16   1.416996 A    
Cu1   Cu2   2.674206 S    
Cu2   N4    2.009648 S    
O2    C2    1.295116 A    
C24   C26   1.422079 A    
C26   C28   1.394550 A    
C28   H4    1.082420 S    
S1    O18   1.501465 D    
C6    C14   1.403824 A    
C39   H11   1.079988 S    
N6    O15   1.301162 A    
C38   H10   1.081007 S    
C20   C22   1.402217 A    
O8    Cu2   1.946880 S    
N5    O14   1.298904 A    
C33   H7    1.083074 S    
O19   H13   0.990529 S    
O22   H14   0.990531 S    
C38   N3    1.366392 A    
C31   C33   1.393196 A    
C18   S2    1.781250 S    
C37   C40   1.413666 A    
C19   C21   1.402308 A    
C38   C39   1.413656 A    
C32   C35   1.404068 A    
N8    O26   1.301491 A    
C39   N4    1.366578 A    
C27   C29   1.396500 A    
O6    C4    1.296349 A    
O29   H15   0.990412 S    
C40   N3    1.366401 A    
C25   C27   1.394537 A    
C8    C10   1.420690 A    
S2    O20   1.501841 D    
S3    O29   1.681085 S    
S2    O21   1.501146 D    
C9    C11   1.411563 A    
C7    O11   1.347325 S    
C10   C12   1.411424 A    
O1    Cu1   1.992202 S    
S2    O22   1.682831 S    
C20   C30   1.395510 A    
C34   H8    1.083090 S    
S1    O19   1.682765 S    
C13   C18   1.408607 A    
C5    N1    1.363942 A    
O6    Cu2   1.946901 S    
C1    C36   1.470796 S    
C7    C9    1.419550 A    
C2    C35   1.470790 S    
O4    C1    1.295111 A    
N1    C30   1.440825 S    
C5    O9    1.348408 S    
C6    O10   1.348525 S    
S4    O32   1.681123 S    
C28   C30   1.396479 A    
S4    O31   1.502311 D    
C16   C18   1.410130 A    
N5    O13   1.301363 A    
N8    O25   1.301680 A    
Cu1   N3    2.009647 S    
C20   H2    1.083074 S    
C25   S3    1.773851 S    
C3    C23   1.481690 S    
N2    C8    1.367272 A    
C11   C13   1.403511 A    
O4    Cu2   1.992193 S    
O2    Cu2   1.992201 S    
O7    C4    1.297665 A    
O8    C3    1.296308 A    
C37   H9    1.080011 S    
O5    Cu1   1.946901 S    
C17   S1    1.781225 S    
C14   C17   1.407798 A    
C6    N2    1.363646 A    
S4    O30   1.503999 D    
N7    O24   1.301340 A    
C31   C36   1.404104 A    
C22   N8    1.437128 S    
C32   H6    1.083089 S    
N2    C29   1.440983 S    
