data_mof_unit_28439.cif
_audit_creation_date              2013-03-05T15:49:56-0500
_audit_creation_method            fapswitch 2.2
_symmetry_space_group_name_H-M    P1
_symmetry_Int_Tables_number       1
_space_group_crystal_system       triclinic
_cell_length_a                    12.031316
_cell_length_b                    12.863048
_cell_length_c                    14.978696
_cell_angle_alpha                 90.275826
_cell_angle_beta                  86.695869
_cell_angle_gamma                 93.873768
_cell_volume                      2308.95218408

loop_
_atom_site_label
_atom_site_type_symbol
_atom_site_description
_atom_site_fract_x
_atom_site_fract_y
_atom_site_fract_z
_atom_type_partial_charge
O1    O     O_R   0.421700 0.658830 0.504450 -0.613409
O2    O     O_R   0.578300 0.341170 0.495550 -0.613409
O3    O     O_R   0.609310 0.646410 0.493750 -0.560652
O4    O     O_R   0.390690 0.353590 0.506250 -0.560651
C1    C     C_R   0.522535 0.699989 0.497753 0.996877
C2    C     C_R   0.477465 0.300011 0.502247 0.996875
O5    O     O_R   0.406180 0.506230 0.637500 -0.615900
O6    O     O_R   0.593820 0.493770 0.362500 -0.615905
O7    O     O_R   0.593800 0.493820 0.626800 -0.608448
O8    O     O_R   0.406200 0.506180 0.373200 -0.608444
C3    C     C_R   0.500657 0.500797 0.673148 0.969719
C4    C     C_R   0.499343 0.499205 0.326852 0.969721
Zn1   Zn    Zn3+2 0.374730 0.508290 0.507150 1.080821
Zn2   Zn    Zn3+2 0.625270 0.491710 0.492850 1.080817
C5    C     C_R   0.586954 0.458557 0.181280 -0.112548
C6    C     C_R   0.413058 0.541472 0.818719 -0.112541
C7    C     C_R   0.498885 0.499701 0.231096 -0.050642
C8    C     C_R   0.501120 0.500315 0.768904 -0.050650
C9    C     C_R   0.411627 0.542471 0.189818 -0.103422
C10   C     C_R   0.588383 0.457556 0.810183 -0.103428
C11   C     C_R   0.411742 0.545817 0.097036 -0.011755
C12   C     C_R   0.588281 0.454230 0.902963 -0.011761
C13   C     C_R   0.499838 0.501077 0.046487 0.039512
C14   C     C_R   0.500185 0.498971 0.953512 0.039512
C15   C     C_R   0.587682 0.458146 0.089074 0.061677
C16   C     C_R   0.412339 0.541900 0.910926 0.061676
C17   C     C_R   0.325092 0.590110 0.053509 0.308529
C18   C     C_R   0.674942 0.409957 0.946491 0.308545
C19   C     C_R   0.325661 0.586120 0.960552 -0.207154
C20   C     C_R   0.674371 0.413941 0.039446 -0.207156
H1    H     H_    0.653982 0.424990 0.214397 0.177879
H2    H     H_    0.346028 0.575036 0.785601 0.177885
H3    H     H_    0.344250 0.572825 0.230744 0.221035
H4    H     H_    0.655754 0.427189 0.769256 0.221038
H5    H     H_    0.259488 0.620093 0.926775 0.200758
H6    H     H_    0.740550 0.379976 0.073222 0.200740
C21   C     C_R   0.463062 0.188847 0.508413 -0.255298
C22   C     C_R   0.536937 0.811153 0.491587 -0.255298
C23   C     C_R   0.598453 0.964089 0.406248 -0.135146
C24   C     C_R   0.401547 0.035912 0.593752 -0.135146
C25   C     C_R   0.601536 0.858014 0.419531 0.251829
C26   C     C_R   0.398464 0.141987 0.580469 0.251826
C27   C     C_R   0.473123 0.869784 0.551913 0.282116
C28   C     C_R   0.526875 0.130216 0.448086 0.282114
C29   C     C_R   0.468291 0.976227 0.536728 -0.045231
C30   C     C_R   0.531709 0.023773 0.463272 -0.045236
H7    H     H_    0.645147 0.997896 0.348453 0.233631
H8    H     H_    0.354853 0.002105 0.651548 0.233630
N1    N     N_R   0.207800 0.519350 0.516680 -0.168431
N2    N     N_R   0.792200 0.480650 0.483320 -0.168430
C31   C     C_R   0.953028 0.409777 0.410788 -0.172536
C32   C     C_R   0.046972 0.590223 0.589211 -0.172524
C33   C     C_R   0.837574 0.418117 0.419698 -0.000387
C34   C     C_R   0.162426 0.581884 0.580302 -0.000381
C35   C     C_R   0.858548 0.538207 0.539458 0.428305
C36   C     C_R   0.141452 0.461792 0.460543 0.428302
C37   C     C_R   0.976130 0.532592 0.532692 -0.055952
C38   C     C_R   0.023870 0.467407 0.467308 -0.055952
H9    H     H_    0.216123 0.624900 0.624869 0.201418
H10   H     H_    0.783877 0.375101 0.375130 0.201418
H11   H     H_    0.985904 0.358716 0.359600 0.223529
H12   H     H_    0.014096 0.641285 0.640399 0.223531
N3    N     N_R   0.237566 0.641085 0.101892 0.219179
O9    O     O_R   0.262277 0.715543 0.157965 -0.333951
O10   O     O_R   0.135477 0.627551 0.077592 -0.305209
N4    N     N_R   0.762491 0.359013 0.898103 0.219182
O11   O     O_R   0.737809 0.284524 0.842057 -0.333950
O12   O     O_R   0.864585 0.372623 0.922380 -0.305210
N5    N     N_R   0.587316 0.179831 0.372331 0.199497
O13   O     O_R   0.695843 0.184030 0.366240 -0.389794
O14   O     O_R   0.534664 0.231292 0.315314 -0.386104
N6    N     N_R   0.412679 0.820167 0.627668 0.199504
O15   O     O_R   0.304152 0.815975 0.633755 -0.389794
O16   O     O_R   0.465326 0.768706 0.684683 -0.386127
N7    N     N_R   0.335340 0.201540 0.644193 0.233234
O17   O     O_R   0.235644 0.166556 0.672663 -0.295238
O18   O     O_R   0.384319 0.278943 0.686132 -0.397474
N8    N     N_R   0.664662 0.798461 0.355807 0.233235
O19   O     O_R   0.764355 0.833449 0.327334 -0.295242
O20   O     O_R   0.615685 0.721055 0.313872 -0.397473
N9    N     N_R   0.191392 0.394650 0.395837 0.207722
O21   O     O_R   0.198603 0.421689 0.312039 -0.379342
O22   O     O_R   0.200990 0.297700 0.416421 -0.333233
N10   N     N_R   0.808607 0.605348 0.604165 0.207720
O23   O     O_R   0.801403 0.578309 0.687963 -0.379332
O24   O     O_R   0.799005 0.702297 0.583581 -0.333239

loop_
_geom_bond_atom_site_label_1
_geom_bond_atom_site_label_2
_geom_bond_distance
_ccdc_geom_bond_type
N4    O12   1.301340 A    
N3    O10   1.301330 A    
C3    C8    1.434670 S    
C27   N6    1.439755 S    
C17   C19   1.392712 A    
C31   H11   1.082133 S    
O7    Zn2   2.020647 S    
N9    O21   1.300599 A    
C36   N9    1.428704 S    
C23   C25   1.383104 A    
C29   C30   1.418967 A    
O5    C3    1.289617 A    
C26   N7    1.436210 S    
O1    C1    1.289134 A    
C9    C11   1.390549 A    
N10   O24   1.300330 A    
N8    O20   1.300202 A    
C5    C15   1.380640 A    
N1    C34   1.358369 A    
C21   C26   1.406604 A    
C24   H8    1.081069 S    
O4    Zn1   2.011933 S    
N5    O14   1.301265 A    
C28   C30   1.394653 A    
C4    C7    1.434672 S    
C13   C14   1.392550 A    
C10   H4    1.081008 S    
C24   C26   1.383106 A    
N4    O11   1.301371 A    
C11   C17   1.413748 A    
C12   C18   1.413751 A    
C1    C22   1.431478 S    
O2    C2    1.289135 A    
N9    O22   1.300330 A    
C33   H10   1.080295 S    
C32   C34   1.399083 A    
C34   H9    1.080295 S    
C6    C16   1.380659 A    
C24   C29   1.400615 A    
N2    C33   1.358371 A    
N10   O23   1.300601 A    
C22   C25   1.406607 A    
N6    O16   1.301220 A    
C9    H3    1.080992 S    
C25   N8    1.436212 S    
N8    O19   1.301175 A    
C31   C33   1.399083 A    
C18   N4    1.436983 S    
N7    O17   1.301173 A    
C27   C29   1.394652 A    
O6    C4    1.289616 A    
C2    C21   1.431473 S    
C28   N5    1.439732 S    
C31   C38   1.408707 A    
O7    C3    1.291953 A    
O3    Zn2   2.011933 S    
O8    C4    1.291954 A    
C23   C30   1.400611 A    
Zn1   N1    2.019802 S    
O4    C2    1.287694 A    
C10   C12   1.390516 A    
C35   C37   1.419153 A    
C12   C14   1.419023 A    
O1    Zn1   1.980128 S    
C23   H7    1.081067 S    
C15   C20   1.396564 A    
C5    C7    1.392988 A    
O6    Zn2   2.010732 S    
C14   C16   1.410255 A    
N6    O15   1.301135 A    
O3    C1    1.287695 A    
O8    Zn1   2.020647 S    
C5    H1    1.085387 S    
C6    H2    1.085391 S    
N1    C36   1.372564 A    
C19   H5    1.084600 S    
N2    C35   1.372564 A    
C20   H6    1.084598 S    
C21   C28   1.402311 A    
C11   C13   1.419011 A    
C22   C27   1.402308 A    
C32   H12   1.082134 S    
C37   C38   1.408704 A    
Zn2   N2    2.019802 S    
C18   C20   1.392679 A    
C7    C9    1.394001 A    
C36   C38   1.419153 A    
C8    C10   1.394000 A    
C13   C15   1.410256 A    
N5    O13   1.301133 A    
O2    Zn2   1.980128 S    
C32   C37   1.408708 A    
N3    O9    1.301412 A    
O5    Zn1   2.010730 S    
C16   C19   1.396551 A    
C6    C8    1.392988 A    
N7    O18   1.300202 A    
C17   N3    1.436960 S    
C35   N10   1.428703 S    
