data_mof_unit_50073.cif
_audit_creation_date              2012-10-26T19:59:11-0400
_audit_creation_method            fapswitch 2.2
_symmetry_space_group_name_H-M    P1
_symmetry_Int_Tables_number       1
_space_group_crystal_system       triclinic
_cell_length_a                    7.442825
_cell_length_b                    8.680224
_cell_length_c                    15.687174
_cell_angle_alpha                 94.112984
_cell_angle_beta                  75.02875
_cell_angle_gamma                 103.278274
_cell_volume                      952.816848244

loop_
_atom_site_label
_atom_site_type_symbol
_atom_type_description
_atom_site_fract_x
_atom_site_fract_y
_atom_site_fract_z
_atom_type_partial_charge
C1    C     C_R   0.545082 0.800189 0.502724 0.561747
C2    C     C_R   0.616926 0.518572 0.333850 0.605082
C3    C     C_R   0.310904 0.442832 0.760161 0.035460
C4    C     C_R   0.689094 0.557249 0.239844 0.035451
C5    C     C_R   0.118526 0.267147 0.878559 -0.110287
C6    C     C_R   0.881319 0.733154 0.121494 -0.110264
C7    C     C_R   0.163428 0.309773 0.790269 0.040898
C8    C     C_R   0.836519 0.690368 0.209763 0.040888
C9    C     C_R   0.413499 0.526270 0.818636 0.376481
C10   C     C_R   0.586486 0.473867 0.181360 0.376449
C11   C     C_R   0.396288 0.462977 0.901222 0.037081
C12   C     C_R   0.454917 0.199811 0.497277 0.561740
C13   C     C_R   0.603641 0.537247 0.098799 0.037054
C14   C     C_R   0.233037 0.343151 0.934141 -0.058482
C15   C     C_R   0.766828 0.657163 0.065901 -0.058479
C16   C     C_R   0.527899 0.520403 0.954236 0.022583
C17   C     C_R   0.472028 0.479834 0.045788 0.022614
C18   C     C_R   0.284654 0.387913 0.080486 0.162384
C19   C     C_R   0.715261 0.612365 0.919549 0.162403
C20   C     C_R   0.177492 0.308943 0.023562 -0.103902
C21   C     C_R   0.822356 0.691438 0.976484 -0.103858
C22   C     C_2   0.570509 0.968204 0.503930 -0.112511
C23   C     C_2   0.429489 0.031796 0.496071 -0.112515
C24   C     C_R   0.383076 0.481436 0.666149 0.605074
Cu1   Cu    Cu3+1 0.322120 0.483240 0.490330 1.073990
Cu2   Cu    Cu3+1 0.677880 0.516760 0.509670 1.073994
F1    F     F_    0.487006 0.323770 0.202061 -0.598756
F2    F     F_    0.513001 0.676341 0.797898 -0.598745
H1    H     H_    0.040502 0.231257 0.050614 0.148972
H2    H     H_    0.959314 0.769206 0.949440 0.148965
H3    H     H_    0.997248 0.171451 0.903139 0.160581
H4    H     H_    0.002536 0.828923 0.096934 0.160591
H5    H     H_    0.706377 0.039848 0.511227 0.156877
H6    H     H_    0.293621 0.960152 0.488775 0.156881
H7    H     H_    0.005256 0.617985 0.567766 0.265061
H8    H     H_    0.994742 0.382012 0.432235 0.265062
I1    I     I_    0.996331 0.835291 0.291718 -0.255475
I2    I     I_    0.003720 0.164690 0.708319 -0.255440
I3    I     I_    0.119537 0.393247 0.213755 -0.234995
I4    I     I_    0.880480 0.606926 0.786302 -0.234997
N1    N     N_2   0.945180 0.542040 0.524240 -0.239413
N2    N     N_2   0.054820 0.457960 0.475760 -0.239413
O1    O     O_R   0.384450 0.714270 0.493720 -0.518252
O2    O     O_R   0.615550 0.285730 0.506280 -0.518254
O3    O     O_R   0.684880 0.742590 0.510050 -0.474982
O4    O     O_R   0.315120 0.257410 0.489950 -0.474992
O5    O     O_R   0.265540 0.477900 0.617090 -0.489156
O6    O     O_R   0.734460 0.522100 0.382910 -0.489147
O7    O     O_R   0.565970 0.506210 0.633420 -0.451027
O8    O     O_R   0.434030 0.493790 0.366580 -0.451021

loop_
_geom_bond_atom_site_label_1
_geom_bond_atom_site_label_2
_ccdc_geom_bond_type
C10   F1    S    
Cu1   N2    S    
C6    H4    S    
C18   I3    S    
N1    N2    D    
C3    C9    A    
Cu2   O6    S    
C8    I1    S    
C21   H2    S    
Cu1   O5    S    
C2    C4    S    
C13   C17   A    
C4    C8    A    
C23   H6    S    
Cu1   O1    S    
C17   C18   A    
C3    C24   S    
Cu2   O2    S    
C1    C22   S    
C12   O2    A    
Cu1   Cu2   S    
C9    C11   A    
C12   C23   S    
C1    O3    A    
C5    C14   A    
C16   C19   A    
C19   C21   A    
C7    I2    S    
C3    C7    A    
C20   H1    S    
C13   C15   A    
H7    N1    S    
C11   C14   A    
C19   I4    S    
C4    C10   A    
C14   C20   A    
C15   C21   A    
Cu2   N1    S    
C18   C20   A    
C12   O4    A    
C11   C16   A    
Cu2   O7    S    
C24   O7    A    
C5    C7    A    
C22   H5    S    
C22   C23   D    
C6    C8    A    
C2    O8    A    
Cu2   O3    S    
C2    O6    A    
C6    C15   A    
Cu1   O8    S    
C24   O5    A    
H8    N2    S    
Cu1   O4    S    
C1    O1    A    
C9    F2    S    
C16   C17   A    
C5    H3    S    
C10   C13   A    
