data_mof_unit_42014.cif
_audit_creation_date              2012-12-11T15:48:04-0500
_audit_creation_method            fapswitch 2.2
_symmetry_space_group_name_H-M    P1
_symmetry_Int_Tables_number       1
_space_group_crystal_system       triclinic
_cell_length_a                    6.931174
_cell_length_b                    17.586307
_cell_length_c                    19.443691
_cell_angle_alpha                 108.490091
_cell_angle_beta                  89.527006
_cell_angle_gamma                 90.527469
_cell_volume                      2247.58741822

loop_
_atom_site_label
_atom_site_type_symbol
_atom_type_description
_atom_site_fract_x
_atom_site_fract_y
_atom_site_fract_z
_atom_type_partial_charge
O1    O     O_R   0.494330 0.415710 0.413720 -0.543743
O2    O     O_R   0.819360 0.430070 0.560210 -0.549239
O3    O     O_R   0.994320 0.584290 0.586280 -0.543460
C1    C     C_R   0.650231 0.415363 0.582187 0.717041
O4    O     O_R   0.823740 0.406290 0.412670 -0.544458
O5    O     O_R   0.998730 0.560340 0.437690 -0.539330
C2    C     C_R   0.654825 0.383105 0.384678 0.680468
O6    O     O_R   0.489920 0.439660 0.562310 -0.537531
O7    O     O_3   0.662330 0.550570 0.508380 -0.364893
V1    V     V_3+5 0.935370 0.490620 0.498440 1.406034
O8    O     O_R   0.328720 0.569930 0.439790 -0.542748
C3    C     C_R   0.160710 0.585203 0.418261 0.712446
O9    O     O_R   0.324340 0.593710 0.587330 -0.530801
C4    C     C_R   0.155165 0.614886 0.616569 0.684627
V2    V     V_3+5 0.435940 0.509380 0.501560 1.429909
O10   O     O_3   0.159110 0.449430 0.491620 -0.374784
C5    C     C_R   0.277982 0.745355 0.698774 -0.088452
H1    H     H_    0.387545 0.742858 0.658019 0.159096
C6    C     C_R   0.268072 0.813337 0.761080 0.004300
C7    C     C_R   0.121723 0.817635 0.813762 -0.161665
C8    C     C_R   0.987350 0.754539 0.801183 -0.088423
H2    H     H_    0.877784 0.757031 0.841936 0.159085
C9    C     C_R   0.997267 0.686555 0.738883 0.004300
C10   C     C_R   0.143583 0.682266 0.686190 -0.161739
C11   C     C_R   0.308362 0.634569 0.321759 -0.219623
C12   C     C_R   0.153287 0.634743 0.369070 -0.083473
C13   C     C_R   0.990006 0.681586 0.368415 -0.214039
C14   C     C_R   0.981792 0.728404 0.321844 0.088182
C15   C     C_R   0.136701 0.726947 0.273870 0.053934
C16   C     C_R   0.300004 0.679465 0.273556 0.090608
C17   C     C_R   0.821405 0.776754 0.322387 -0.185490
C18   C     C_R   0.813173 0.822438 0.275179 -0.182314
C19   C     C_R   0.964887 0.820462 0.226382 0.090607
C20   C     C_R   0.128193 0.772982 0.226069 0.053929
C21   C     C_R   0.283103 0.771526 0.178095 0.088188
C22   C     C_R   0.443490 0.723176 0.177552 -0.185486
C23   C     C_R   0.451719 0.677490 0.224759 -0.182313
C24   C     C_R   0.956524 0.865355 0.178176 -0.219628
C25   C     C_R   0.111601 0.865182 0.130866 -0.083429
C26   C     C_R   0.274887 0.818344 0.131523 -0.214045
H3    H     H_    0.434103 0.598235 0.321471 0.123318
H4    H     H_    0.870230 0.682410 0.404865 0.130941
H5    H     H_    0.701460 0.778852 0.359032 0.137365
H6    H     H_    0.687204 0.858925 0.276497 0.135986
H7    H     H_    0.830780 0.901686 0.178462 0.123313
H8    H     H_    0.394663 0.817522 0.095074 0.130895
H9    H     H_    0.563435 0.721079 0.140907 0.137366
H10   H     H_    0.577688 0.641002 0.223440 0.135986
C27   C     C_R   0.784430 0.181382 0.865951 -0.220474
C28   C     C_R   0.622616 0.133178 0.867835 -0.076876
C29   C     C_R   0.465614 0.131715 0.821850 -0.202006
C30   C     C_R   0.469554 0.177238 0.774213 0.089886
C31   C     C_R   0.630675 0.226559 0.773570 0.054010
C32   C     C_R   0.788256 0.228928 0.819857 0.090933
C33   C     C_R   0.315018 0.174377 0.727214 -0.178981
C34   C     C_R   0.318452 0.220983 0.680706 -0.184426
C35   C     C_R   0.476551 0.271260 0.680303 0.090954
C36   C     C_R   0.634132 0.273630 0.726591 0.053992
C37   C     C_R   0.795261 0.322946 0.725941 0.089882
C38   C     C_R   0.949794 0.325808 0.772941 -0.178949
C39   C     C_R   0.946355 0.279205 0.819453 -0.184414
C40   C     C_R   0.480386 0.318795 0.634201 -0.220525
C41   C     C_R   0.642214 0.366985 0.632303 -0.076850
C42   C     C_R   0.799218 0.368452 0.678289 -0.201868
H11   H     H_    0.905522 0.183127 0.901382 0.125564
H12   H     H_    0.340771 0.094354 0.822550 0.116318
H13   H     H_    0.190554 0.136488 0.726796 0.137795
H14   H     H_    0.196669 0.218057 0.645342 0.135180
H15   H     H_    0.359301 0.317042 0.598766 0.125500
H16   H     H_    0.924082 0.405795 0.677570 0.116249
H17   H     H_    0.074264 0.363693 0.773356 0.137811
H18   H     H_    0.068140 0.282130 0.854816 0.135197
C43   C     C_R   0.811626 0.276217 0.281509 -0.155509
H19   H     H_    0.952334 0.295334 0.304681 0.116371
C44   C     C_R   0.800452 0.212434 0.216544 -0.152350
H20   H     H_    0.933121 0.184267 0.191799 0.118153
C45   C     C_R   0.620903 0.185367 0.184124 -0.045183
C46   C     C_R   0.452832 0.223863 0.218547 -0.155496
H21   H     H_    0.312133 0.204740 0.195370 0.116354
C47   C     C_R   0.464007 0.287652 0.283517 -0.152419
H22   H     H_    0.331349 0.315824 0.308268 0.118025
C48   C     C_R   0.643564 0.314714 0.315935 -0.045367
O11   O     O_R   0.774940 0.060470 0.937800 -0.537578
O12   O     O_R   0.440880 0.093730 0.087350 -0.544373
O13   O     O_R   0.266130 0.939630 0.062280 -0.539331
C49   C     C_R   0.609735 0.116970 0.115382 0.680758
O14   O     O_R   0.445480 0.069960 0.939820 -0.549203
O15   O     O_R   0.270770 0.915690 0.913690 -0.543508
C50   C     C_R   0.614620 0.084748 0.917909 0.717004
O16   O     O_R   0.770300 0.084410 0.086380 -0.543962
O17   O     O_3   0.602600 0.949510 0.991670 -0.364964
V3    V     V_3+5 0.329470 0.009370 0.001550 1.406050
O18   O     O_R   0.940760 0.906160 0.912560 -0.531043
C51   C     C_R   0.110003 0.885035 0.883363 0.684376
O19   O     O_R   0.936150 0.929930 0.060100 -0.542820
C52   C     C_R   0.104162 0.914719 0.081673 0.712383
V4    V     V_3+5 0.828930 0.990450 0.998310 1.430153
O20   O     O_3   0.105670 0.050490 0.008320 -0.374697
C53   C     C_2   0.404835 0.880798 0.767374 0.377948
H23   H     H_    0.373127 0.940693 0.802748 0.038678
O21   O     O_2   0.554323 0.870476 0.732006 -0.532940
C54   C     C_2   0.860542 0.619084 0.732602 0.378069
H24   H     H_    0.892255 0.559195 0.697217 0.038643
O22   O     O_2   0.711093 0.629390 0.767993 -0.532943

loop_
_geom_bond_atom_site_label_1
_geom_bond_atom_site_label_2
_ccdc_geom_bond_type
C33   C34   A    
O18   C51   A    
C43   H19   S    
O19   C52   A    
C1    O6    A    
V4    O20   S    
V3    O20   S    
C35   C40   A    
C17   C18   A    
C45   C46   A    
C26   H8    S    
C1    C41   S    
C37   C42   A    
C40   C41   A    
C17   H5    S    
C22   C23   A    
O12   C49   A    
O5    C3    A    
C24   C25   A    
O13   C52   A    
C46   C47   A    
C9    C54   S    
C27   C32   A    
C34   C35   A    
C22   H9    S    
C20   C21   A    
C4    C10   S    
C24   H7    S    
O8    V2    S    
O15   V3    S    
C9    C10   A    
O1    V2    S    
C42   H16   S    
O7    V1    S    
O16   V4    S    
C30   C33   A    
C37   C38   A    
O9    C4    A    
C43   C44   A    
O13   V3    S    
C28   C29   A    
O11   C50   A    
O15   C51   A    
C5    C10   A    
C29   C30   A    
C47   C48   A    
C49   O16   A    
C11   H3    S    
O17   V3    S    
O4    C2    A    
C6    C53   S    
C46   H21   S    
C38   H17   S    
C36   C37   A    
C34   H14   S    
C15   C20   A    
C40   H15   S    
C3    C12   S    
C38   C39   A    
C21   C22   A    
O2    C1    A    
C44   H20   S    
C15   C16   A    
C28   C50   S    
C53   H23   S    
C31   C36   A    
C5    H1    S    
C18   H6    S    
O17   V4    S    
C23   H10   S    
C54   O22   D    
C44   C45   A    
O3    C4    A    
C27   H11   S    
C39   H18   S    
C53   O21   D    
C45   C49   S    
O6    V2    S    
C8    C9    A    
C12   C13   A    
O2    V1    S    
O18   V4    S    
C43   C48   A    
C25   C26   A    
O14   V3    S    
C30   C31   A    
C11   C16   A    
C7    C51   S    
C14   C15   A    
O1    C2    A    
C14   C17   A    
C47   H22   S    
O5    V1    S    
C33   H13   S    
O8    C3    A    
O19   V4    S    
C31   C32   A    
C32   C39   A    
C19   C24   A    
C18   C19   A    
C6    C7    A    
O9    V2    S    
C21   C26   A    
C11   C12   A    
O4    V1    S    
O3    V1    S    
V1    O10   S    
C13   H4    S    
C35   C36   A    
C5    C6    A    
C19   C20   A    
O7    V2    S    
C54   H24   S    
C25   C52   S    
C41   C42   A    
C2    C48   S    
C7    C8    A    
C16   C23   A    
C27   C28   A    
O11   V4    S    
C13   C14   A    
O14   C50   A    
O12   V3    S    
C8    H2    S    
C29   H12   S    
V2    O10   S    
