data_mof_unit_43333.cif
_audit_creation_date              2012-12-11T19:05:44-0500
_audit_creation_method            fapswitch 2.2
_symmetry_space_group_name_H-M    P1
_symmetry_Int_Tables_number       1
_space_group_crystal_system       triclinic
_cell_length_a                    8.230721
_cell_length_b                    15.085117
_cell_length_c                    22.801345
_cell_angle_alpha                 98.785033
_cell_angle_beta                  88.770628
_cell_angle_gamma                 99.16033
_cell_volume                      2762.1403149

loop_
_atom_site_label
_atom_site_type_symbol
_atom_type_description
_atom_site_fract_x
_atom_site_fract_y
_atom_site_fract_z
_atom_type_partial_charge
Ba1   Ba    Ba6+2 0.856840 0.543240 0.473380 1.641962
Ba2   Ba    Ba6+2 0.332990 0.456840 0.526630 1.645727
C1    C     C_3   0.733208 0.857098 0.362741 -0.298863
C2    C     C_R   0.114933 0.581902 0.940510 -0.095857
C3    C     C_R   0.065243 0.579008 0.880856 0.612135
C4    C     C_3   0.125872 0.730633 0.316959 0.326980
C5    C     C_R   0.912923 0.429743 0.880660 0.657231
C6    C     C_R   0.963852 0.429950 0.939668 -0.014030
C7    C     C_R   0.064830 0.506918 0.969981 -0.056285
C8    C     C_R   0.214829 0.658349 0.970962 -0.094511
C9    C     C_R   0.265285 0.662412 0.029959 0.449885
C10   C     C_R   0.212296 0.587113 0.061141 -0.110918
C11   C     C_R   0.114771 0.508812 0.029911 -0.097644
C12   C     C_3   0.629622 0.776611 0.324684 0.377208
C13   C     C_R   0.916427 0.354356 0.968911 -0.029910
C14   C     C_R   0.968235 0.354897 0.026866 -0.061485
C15   C     C_R   0.066743 0.431715 0.058202 -0.008308
C16   C     C_3   0.100299 0.753060 0.255299 -0.302332
C17   C     C_R   0.118469 0.432200 0.117029 0.596940
C18   C     C_R   0.250404 0.586842 0.122078 0.622899
C19   C     C_2   0.759081 0.479437 0.771326 -0.102451
C20   C     C_3   0.712080 0.482943 0.707590 -0.075528
C21   C     C_1   0.003578 0.519791 0.686366 0.026374
C22   C     C_2   0.047579 0.522493 0.742639 -0.061051
C23   C     C_3   0.493410 0.329432 0.344493 0.322836
C24   C     C_2   0.919445 0.500503 0.788979 0.225375
C25   C     C_R   0.414570 0.549045 0.231771 -0.114380
C26   C     C_R   0.456327 0.556328 0.291913 -0.031600
C27   C     C_R   0.185994 0.479485 0.312761 0.019274
C28   C     C_3   0.224956 0.736284 0.601729 0.284705
C29   C     C_R   0.139621 0.474917 0.252926 -0.097026
C30   C     C_R   0.253227 0.511046 0.211329 0.195699
C31   C     C_2   0.858425 0.476897 0.666943 -0.277462
C32   C     C_R   0.350227 0.823352 0.460205 -0.004299
C33   C     C_R   0.581342 0.790679 0.512254 0.075871
C34   C     C_3   0.511319 0.311720 0.277343 -0.354328
C35   C     C_R   0.773425 0.227917 0.508760 -0.268941
C36   C     C_R   0.862954 0.169668 0.531005 0.019583
C37   C     C_R   0.800572 0.077197 0.527161 -0.155499
C38   C     C_R   0.645001 0.041198 0.500657 0.017025
C39   C     C_R   0.556976 0.101873 0.476815 -0.016331
C40   C     C_3   0.234571 0.838758 0.617615 -0.371302
C41   C     C_R   0.574317 0.947116 0.496212 0.005216
C42   C     C_R   0.419712 0.916076 0.466840 -0.018280
C43   C     C_R   0.337124 0.978140 0.444875 -0.105519
C44   C     C_R   0.404326 0.068428 0.449889 -0.061649
C45   C     C_3   0.967403 0.257123 0.677258 0.343404
C46   C     C_R   0.650069 0.882783 0.520474 -0.143888
C47   C     C_R   0.435678 0.761173 0.480393 -0.284128
C48   C     C_R   0.622930 0.195156 0.480748 0.023765
C49   C     C_3   0.031344 0.249420 0.382486 0.249287
C50   C     C_3   0.122293 0.180338 0.344002 -0.202029
C51   C     C_3   0.727684 0.671752 0.653790 0.313312
C52   C     C_3   0.760098 0.706241 0.720112 -0.209234
C53   C     C_3   0.016404 0.086805 0.327953 -0.245864
C54   C     C_3   0.114105 0.021401 0.289861 -0.380062
C55   C     C_3   0.603705 0.696757 0.758292 -0.224273
C56   C     C_3   0.919637 0.222602 0.735777 0.347943
C57   C     C_3   0.495011 0.767561 0.751450 -0.314593
C58   C     C_3   0.543631 0.807239 0.273718 -0.210963
C59   C     C_3   0.660984 0.848096 0.228511 -0.281859
C60   C     C_3   0.492362 0.221449 0.649516 0.383980
C61   C     C_3   0.512876 0.128065 0.663017 -0.356247
C62   C     C_R   0.341379 0.523251 0.331749 -0.287127
H1    H     H_    0.530807 0.748751 0.354096 -0.046171
H2    H     H_    0.634187 0.609340 0.647445 0.028413
H3    H     H_    0.770393 0.835297 0.403965 0.143647
H4    H     H_    0.822739 0.778031 0.726402 0.144071
H5    H     H_    0.847108 0.666602 0.736598 0.060600
H6    H     H_    0.662179 0.913890 0.374632 0.051339
H7    H     H_    0.366740 0.342308 0.355652 -0.054708
H8    H     H_    0.582358 0.390852 0.361378 0.082240
H9    H     H_    0.429208 0.248575 0.258477 0.119325
H10   H     H_    0.478421 0.369143 0.257490 0.066411
H11   H     H_    0.640638 0.304285 0.265576 0.145642
H12   H     H_    0.320504 0.865127 0.655393 0.120033
H13   H     H_    0.846162 0.881824 0.339081 0.135356
H14   H     H_    0.205942 0.801444 0.242453 0.137996
H15   H     H_    0.043190 0.325585 0.686252 0.080113
H16   H     H_    0.851541 0.262940 0.654936 -0.160438
H17   H     H_    0.825332 0.260807 0.757953 0.070492
H18   H     H_    0.865301 0.149612 0.727226 0.019175
H19   H     H_    0.564508 0.232127 0.608820 -0.011957
H20   H     H_    0.360671 0.221684 0.641391 0.133093
H21   H     H_    0.442508 0.074656 0.630058 0.087124
H22   H     H_    0.467844 0.118703 0.708175 0.190740
H23   H     H_    0.279179 0.872771 0.579269 0.066944
H24   H     H_    0.030183 0.672846 0.324054 0.119163
H25   H     H_    0.644224 0.119686 0.659669 0.072116
H26   H     H_    0.929204 0.294794 0.047349 0.132189
H27   H     H_    0.839679 0.293905 0.946863 0.150569
H28   H     H_    0.507376 0.573516 0.201206 0.123225
H29   H     H_    0.254764 0.715843 0.948164 0.187722
H30   H     H_    0.176530 0.538874 0.755165 0.125363
H31   H     H_    0.662204 0.467076 0.803504 0.107919
H32   H     H_    0.016179 0.443630 0.239140 0.135118
H33   H     H_    0.376427 0.527716 0.377711 0.076785
H34   H     H_    0.110629 0.855592 0.630099 0.136140
H35   H     H_    0.248768 0.709942 0.319270 -0.070919
H36   H     H_    0.844834 0.437700 0.622727 0.077231
H37   H     H_    0.382288 0.690078 0.475215 0.069426
H38   H     H_    0.218640 0.958419 0.423331 0.111432
H39   H     H_    0.761082 0.902014 0.546594 0.088525
H40   H     H_    0.823341 0.299352 0.511964 0.068354
H41   H     H_    0.875915 0.035759 0.545320 0.083133
H42   H     H_    0.332047 0.111730 0.433077 0.089482
H43   H     H_    0.084869 0.689833 0.222663 0.120700
H44   H     H_    0.988526 0.784880 0.254220 0.139289
H45   H     H_    0.919332 0.213795 0.401669 -0.000297
H46   H     H_    0.348848 0.720200 0.590367 0.001355
H47   H     H_    0.141385 0.712858 0.563007 0.079426
H48   H     H_    0.159308 0.049105 0.249041 0.153292
H49   H     H_    0.220725 0.010021 0.315236 0.137129
H50   H     H_    0.034658 0.955220 0.276384 0.131255
H51   H     H_    0.976011 0.058532 0.369121 0.108246
H52   H     H_    0.905518 0.093392 0.302966 0.148161
H53   H     H_    0.564943 0.837201 0.762938 0.136261
H54   H     H_    0.448850 0.758122 0.705367 0.166916
H55   H     H_    0.387555 0.759698 0.781564 0.156780
H56   H     H_    0.105803 0.286547 0.420343 0.072632
H57   H     H_    0.531085 0.627668 0.747227 0.109308
H58   H     H_    0.640957 0.705549 0.805660 0.144861
H59   H     H_    0.588074 0.866553 0.193107 0.192986
H60   H     H_    0.738180 0.798088 0.207542 0.167700
H61   H     H_    0.740202 0.910776 0.249630 0.085754
H62   H     H_    0.463321 0.747238 0.249820 0.146324
H63   H     H_    0.464301 0.857749 0.292452 0.073898
H64   H     H_    0.270996 0.347691 0.825326 0.363577
H65   H     H_    0.529780 0.882748 0.029224 0.371781
H66   H     H_    0.165486 0.206526 0.302433 0.126381
H67   H     H_    0.232643 0.172632 0.367519 0.102636
H68   H     H_    0.844693 0.655988 0.633247 0.013654
N1    N     N_R   0.966256 0.503050 0.851093 -0.419315
N2    N     N_R   0.206339 0.509803 0.149203 -0.432629
O1    O     O_2   0.889550 0.449620 0.359410 -0.438132
O2    O     O_2   0.205705 0.177979 0.539844 -0.501767
O3    O     O_3   0.056194 0.196392 0.642193 -0.598762
O4    O     O_3   0.130120 0.450560 0.430480 -0.499254
O5    O     O_3   0.576410 0.610420 0.531990 -0.484129
O6    O     O_2   0.341630 0.276020 0.466390 -0.491094
O7    O     O_3   0.524248 0.252849 0.367886 -0.643585
O8    O     O_2   0.367080 0.419065 0.703906 -0.453308
O9    O     O_3   0.547874 0.288958 0.697580 -0.590961
O10   O     O_2   0.108414 0.644898 0.855776 -0.598985
O11   O     O_2   0.821967 0.363644 0.855515 -0.568539
O12   O     O_3   0.673167 0.739666 0.627739 -0.645701
O13   O     O_2   0.086622 0.362769 0.139307 -0.592831
O14   O     O_2   0.319624 0.656001 0.151638 -0.544126
O15   O     O_3   0.674100 0.616440 0.398760 -0.472822
O16   O     O_2   0.790246 0.547737 0.293762 -0.500819
O17   O     O_3   0.982240 0.306363 0.345881 -0.614210
O18   O     O_3   0.732777 0.713505 0.301223 -0.599748
O19   O     O_2   0.848070 0.724010 0.533650 -0.465882
O20   O     O_3   0.092910 0.663610 0.428710 -0.492074
O21   O     O_2   0.013644 0.825501 0.469639 -0.489861
O22   O     O_2   0.033287 0.206123 0.842278 -0.264361
O23   O     O_3   0.111655 0.806879 0.359355 -0.617976
O24   O     O_2   0.214466 0.178431 0.757066 -0.278911
O25   O     O_3   0.180443 0.345543 0.796977 -0.529080
O26   O     O_2   0.315153 0.814494 0.109932 -0.273212
O27   O     O_2   0.553121 0.736704 0.083635 -0.276866
O28   O     O_3   0.455581 0.829631 0.008376 -0.516001
O29   O     O_2   0.300150 0.550410 0.640630 -0.478530
O30   O     O_3   0.059590 0.549510 0.569530 -0.493235
O31   O     O_3   0.515610 0.383640 0.601250 -0.485407
O32   O     O_3   0.167685 0.696011 0.651100 -0.639949
O33   O     O_3   0.613300 0.389650 0.468010 -0.469044
O34   O     O_3   0.096810 0.336470 0.571300 -0.479662
P1    P     P_3+3 0.056010 0.422560 0.367570 0.989198
P2    P     P_3+3 0.670430 0.710550 0.550450 0.985635
P3    P     P_3+3 0.141696 0.780287 0.430065 0.928913
P4    P     P_3+3 0.133710 0.577520 0.632440 0.979488
P5    P     P_3+3 0.057568 0.218804 0.569106 0.956028
P6    P     P_3+3 0.662101 0.606503 0.321073 0.945752
P7    P     P_3+3 0.526006 0.276397 0.445522 0.943093
P8    P     P_3+3 0.533758 0.396029 0.678337 0.996092
S1    S     S_3+6 0.091766 0.236045 0.784471 -0.035346
S2    S     S_3+6 0.400406 0.762424 0.060279 -0.049101

loop_
_geom_bond_atom_site_label_1
_geom_bond_atom_site_label_2
_ccdc_geom_bond_type
C53   C54   S    
O32   P4    S    
C45   H15   S    
C60   O9    S    
C19   C24   D    
C5    C6    A    
C43   C44   A    
C17   N2    Am   
C14   H26   S    
C60   C61   S    
C28   H46   S    
C59   H60   S    
Ba2   O5    S    
O9    P8    S    
O24   S1    D    
C22   C24   S    
Ba1   Ba2   S    
C40   H34   S    
C47   H37   S    
C36   C37   A    
C55   C57   S    
C52   H4    S    
C53   H52   S    
Ba1   O33   S    
C13   C14   A    
Ba1   P2    S    
C23   H8    S    
C4    H24   S    
O5    P2    S    
O15   P6    S    
C54   H49   S    
C58   H62   S    
C7    C11   A    
C16   H43   S    
O20   P3    S    
C55   H58   S    
C38   C41   A    
C21   P4    S    
Ba1   O30   S    
C6    C7    A    
C21   C31   D    
O19   P2    D    
C33   C47   A    
C39   C44   A    
C18   O14   D    
Ba1   O15   S    
C23   H7    S    
C41   C46   A    
Ba1   O5    S    
C50   C53   S    
O18   P6    S    
C27   C62   A    
C49   O17   S    
C57   H53   S    
C19   C20   S    
C61   H21   S    
O4    P1    S    
C10   C18   A    
C45   H16   S    
O25   S1    S    
C33   C46   A    
O34   P5    S    
C4    C16   S    
C23   O7    S    
C49   C50   S    
Ba2   O4    S    
C1    H6    S    
C32   C42   A    
C28   O32   S    
C43   H38   S    
C56   H17   S    
Ba2   O30   S    
C37   C38   A    
C9    S2    S    
C14   C15   A    
C3    O10   D    
O8    P8    D    
C19   H31   S    
C8    H29   S    
C51   C52   S    
C46   H39   S    
C13   H27   S    
C17   O13   D    
C48   P7    S    
O31   P8    S    
C60   H19   S    
C3    N1    Am   
C41   C42   A    
O3    P5    S    
C35   C36   A    
C51   H2    S    
C34   H11   S    
C22   H30   S    
O22   S1    D    
C29   C30   A    
C16   H14   S    
C45   O3    S    
C49   H56   S    
C25   H28   S    
C51   H68   S    
Ba1   O19   S    
O29   P4    D    
Ba2   O31   S    
O26   S2    D    
C1    C12   S    
C34   H10   S    
C26   C62   A    
C62   H33   S    
O16   P6    D    
C57   H54   S    
C8    C9    A    
O12   P2    S    
C61   H22   S    
O30   P4    S    
C2    C8    A    
C1    H13   S    
Ba2   O34   S    
C39   C48   A    
C4    O23   S    
C42   C43   A    
O33   P7    S    
C37   H41   S    
C20   C31   S    
C60   H20   S    
O2    P5    D    
C38   C39   A    
C32   C47   A    
C57   H55   S    
C27   P1    S    
C25   C30   A    
C50   H67   S    
C58   H63   S    
C1    H3    S    
C2    C3    A    
C36   P5    S    
Ba2   O29   S    
C35   H40   S    
C20   P8    S    
C9    C10   A    
C5    N1    Am   
C6    C13   A    
C12   C58   S    
C40   H12   S    
O17   P1    S    
C11   C15   A    
C28   H47   S    
C59   H59   S    
C31   H36   S    
Ba2   O6    S    
C4    H35   S    
C56   H18   S    
O27   S2    D    
C50   H66   S    
C27   C29   A    
C24   N1    S    
C23   C34   S    
O23   P3    S    
C45   C56   S    
C30   N2    S    
C35   C48   A    
C26   P6    S    
C52   H5    S    
C53   H51   S    
O6    P7    D    
C44   H42   S    
Ba1   P1    S    
C51   O12   S    
C15   C17   A    
C12   H1    S    
H65   O28   S    
C56   S1    S    
C28   C40   S    
C61   H25   S    
O1    P1    D    
Ba1   O20   S    
C16   H44   S    
O28   S2    S    
C34   H9    S    
Ba1   O4    S    
C21   C22   D    
C55   H57   S    
O21   P3    D    
C10   C11   A    
C49   H45   S    
C12   O18   S    
C25   C26   A    
O7    P7    S    
C33   P2    S    
C54   H50   S    
C58   C59   S    
C59   H61   S    
C40   H23   S    
C18   N2    Am   
C2    C7    A    
Ba1   O1    S    
Ba2   O33   S    
C54   H48   S    
C32   P3    S    
C29   H32   S    
H64   O25   S    
Ba2   P4    S    
C5    O11   D    
C52   C55   S    
