data_mof_unit_11526.cif
_audit_creation_date              2012-10-26T19:46:04-0400
_audit_creation_method            fapswitch 2.2
_symmetry_space_group_name_H-M    P1
_symmetry_Int_Tables_number       1
_space_group_crystal_system       triclinic
_cell_length_a                    10.739058
_cell_length_b                    9.567096
_cell_length_c                    15.905229
_cell_angle_alpha                 89.937474
_cell_angle_beta                  90.95534
_cell_angle_gamma                 90.030716
_cell_volume                      1633.90031307

loop_
_atom_site_label
_atom_site_type_symbol
_atom_type_description
_atom_site_fract_x
_atom_site_fract_y
_atom_site_fract_z
_atom_type_partial_charge
C1    C     C_R   0.262641 0.499965 0.499994 0.612482
C2    C     C_R   0.937083 0.511390 0.576892 0.232544
C3    C     C_R   0.871250 0.499777 0.500238 -0.043673
C4    C     C_R   0.128777 0.499845 0.500095 -0.044792
C5    C     C_R   0.422895 0.074260 0.447001 -0.015948
C6    C     C_R   0.422905 0.925837 0.446994 -0.017510
C7    C     C_R   0.499797 0.500075 0.340442 0.587245
C8    C     C_R   0.577653 0.925826 0.553271 0.377979
C9    C     C_R   0.577683 0.074177 0.553262 0.377220
C10   C     C_R   0.737377 0.499981 0.500239 0.630072
C11   C     C_R   0.500229 0.499928 0.659554 0.611749
C12   C     C_3   0.638685 0.502318 0.951855 0.370808
C13   C     C_3   0.439098 0.649204 0.049022 -0.050761
C14   C     C_3   0.412642 0.368271 0.048718 -0.031075
C15   C     C_3   0.429453 0.360190 0.948604 0.372232
C16   C     C_3   0.424555 0.636294 0.948620 0.366931
C17   C     C_1   0.499775 0.499750 0.748783 0.202430
C18   C     C_3   0.495748 0.500627 0.083387 -0.043627
C19   C     C_3   0.497773 0.499661 0.916433 -0.044421
C20   C     C_3   0.315466 0.696676 0.093178 -0.317867
C21   C     C_3   0.272087 0.382913 0.072071 -0.311514
C22   C     C_3   0.444909 0.225088 0.093621 -0.297984
C23   C     C_3   0.637414 0.485652 0.051564 0.399716
C24   C     C_3   0.525131 0.776013 0.073991 -0.299120
C25   C     C_1   0.499013 0.499650 0.824066 0.195108
C26   C     C_1   0.497640 0.500438 0.175823 0.027630
C27   C     C_1   0.498896 0.500275 0.251154 0.068866
C28   C     C_R   0.062965 0.487076 0.423517 0.208925
C29   C     C_R   0.066899 0.511941 0.576787 0.211005
C30   C     C_R   0.933151 0.487148 0.423587 0.213088
Cl1   Cl    Cl    0.264145 0.636650 0.913379 -0.370298
Cl2   Cl    Cl    0.738506 0.376153 0.901611 -0.222685
Cl3   Cl    Cl    0.143208 0.472177 0.327614 -0.535210
Cl4   Cl    Cl    0.152019 0.526353 0.672643 -0.349578
Cl5   Cl    Cl    0.848070 0.472041 0.327776 -0.403627
Cl6   Cl    Cl    0.857026 0.522832 0.673010 -0.297826
Cl7   Cl    Cl    0.285670 0.324937 0.891073 -0.349975
Cl8   Cl    Cl    0.680025 0.838239 0.623235 -0.346390
Cl9   Cl    Cl    0.680184 0.161899 0.623140 -0.355165
Cl10  Cl    Cl    0.510278 0.204275 0.916129 -0.360961
Cl11  Cl    Cl    0.471241 0.793590 0.893766 -0.356491
Cl12  Cl    Cl    0.746916 0.600151 0.105229 -0.386312
Cl13  Cl    Cl    0.712011 0.327208 0.086331 -0.380699
Cl14  Cl    Cl    0.721501 0.655948 0.918158 -0.301033
Cu1   Cu    Cu3+1 0.500020 0.640660 0.500000 1.123457
Cu2   Cu    Cu3+1 0.500020 0.359340 0.500000 1.129447
H1    H     H_    0.360880 0.129911 0.404413 0.151260
H2    H     H_    0.532149 0.174060 0.076658 0.236293
H3    H     H_    0.443175 0.234732 0.163131 0.139415
H4    H     H_    0.479422 0.878682 0.062322 0.166488
H5    H     H_    0.550005 0.773805 0.142063 0.163964
H6    H     H_    0.610034 0.784736 0.037157 0.256536
H7    H     H_    0.360906 0.870273 0.404398 0.145223
H8    H     H_    0.229561 0.639555 0.080037 0.194987
H9    H     H_    0.327819 0.699475 0.162628 0.135423
H10   H     H_    0.288642 0.804045 0.073044 0.191925
H11   H     H_    0.261455 0.420580 0.137563 0.165725
H12   H     H_    0.217859 0.447209 0.027825 0.230584
H13   H     H_    0.220279 0.282429 0.068192 0.200316
H14   H     H_    0.376436 0.142498 0.075994 0.156907
N1    N     N_R   0.500030 0.852070 0.500020 -0.263471
N2    N     N_R   0.500030 0.147930 0.500020 -0.263516
O1    O     O_R   0.319660 0.618740 0.500000 -0.489146
O2    O     O_R   0.319660 0.381260 0.500000 -0.486219
O3    O     O_R   0.500020 0.618840 0.379440 -0.511180
O4    O     O_R   0.500020 0.381160 0.379440 -0.499628
O5    O     O_R   0.680370 0.618830 0.500010 -0.455720
O6    O     O_R   0.680370 0.381170 0.500010 -0.451180
O7    O     O_R   0.500010 0.618730 0.620560 -0.446591
O8    O     O_R   0.500010 0.381270 0.620560 -0.452786

loop_
_geom_bond_atom_site_label_1
_geom_bond_atom_site_label_2
_ccdc_geom_bond_type
Cu1   O5    S    
C3    C30   A    
C22   H2    S    
C11   O7    A    
C21   H11   S    
C6    N1    A    
C10   O6    A    
C7    O3    A    
C14   C18   S    
C4    C29   A    
C18   C26   S    
C8    N1    A    
C20   H10   S    
C1    C4    S    
C17   C25   T    
C14   C22   S    
C24   H5    S    
C28   C30   A    
C2    C3    A    
C11   O8    A    
C7    C27   S    
C21   H12   S    
C12   Cl14  S    
C3    C10   S    
C10   O5    A    
C12   Cl2   S    
C16   Cl1   S    
C15   C19   S    
C16   C19   S    
C5    H1    S    
C12   C23   S    
C26   C27   T    
C22   H14   S    
C23   Cl12  S    
C8    Cl8   S    
C30   Cl5   S    
Cu2   N2    S    
C2    C29   A    
C13   C18   S    
C12   C19   S    
Cu1   N1    S    
C4    C28   A    
C5    N2    A    
Cu2   O4    S    
C24   H6    S    
C22   H3    S    
Cu1   O3    S    
C5    C6    A    
C19   C25   S    
C15   Cl10  S    
Cu2   O8    S    
C20   H9    S    
C28   Cl3   S    
C6    H7    S    
C2    Cl6   S    
C18   C23   S    
C21   H13   S    
C1    O1    A    
C9    Cl9   S    
C23   Cl13  S    
C14   C21   S    
C20   H8    S    
C13   C16   S    
C1    O2    A    
C24   H4    S    
C14   C15   S    
C11   C17   S    
C13   C20   S    
Cu2   O6    S    
Cu1   Cu2   S    
Cu1   O7    S    
C29   Cl4   S    
Cu1   O1    S    
C15   Cl7   S    
C9    N2    A    
C13   C24   S    
Cu2   O2    S    
C8    C9    A    
C16   Cl11  S    
C7    O4    A    
