data_mof_unit_27071.cif
_audit_creation_date              2013-03-05T15:44:09-0500
_audit_creation_method            fapswitch 2.2
_symmetry_space_group_name_H-M    P1
_symmetry_Int_Tables_number       1
_space_group_crystal_system       monoclinic
_cell_length_a                    19.670167
_cell_length_b                    11.188862
_cell_length_c                    19.759478
_cell_angle_alpha                 90.0
_cell_angle_beta                  95.697867
_cell_angle_gamma                 90.0
_cell_volume                      4327.31370745

loop_
_atom_site_label
_atom_site_type_symbol
_atom_site_description
_atom_site_fract_x
_atom_site_fract_y
_atom_site_fract_z
_atom_type_partial_charge
O1    O     O_R   0.783100 0.287550 0.345460 -0.538460
O2    O     O_R   0.216900 0.287550 0.654540 -0.538460
O3    O     O_R   0.283100 0.787550 0.345460 -0.538463
O4    O     O_R   0.716900 0.787550 0.654540 -0.538461
O5    O     O_R   0.760020 0.037400 0.337700 -0.444343
O6    O     O_R   0.239980 0.037400 0.662300 -0.444343
O7    O     O_R   0.260020 0.537400 0.337700 -0.444342
O8    O     O_R   0.739980 0.537400 0.662300 -0.444343
C1    C     C_R   0.708496 0.993779 0.366288 0.558000
C2    C     C_R   0.291504 0.993779 0.633712 0.558001
C3    C     C_R   0.208496 0.493780 0.366288 0.558003
C4    C     C_R   0.791504 0.493780 0.633712 0.558001
O9    O     O_R   0.666600 0.921990 0.332020 -0.494020
O10   O     O_R   0.333400 0.921990 0.667980 -0.494020
O11   O     O_R   0.166600 0.421990 0.332020 -0.494019
O12   O     O_R   0.833400 0.421990 0.667980 -0.494020
O13   O     O_R   0.557260 0.082670 0.312540 -0.540034
O14   O     O_R   0.442740 0.082670 0.687460 -0.540035
O15   O     O_R   0.057260 0.582670 0.312540 -0.540035
O16   O     O_R   0.942740 0.582670 0.687460 -0.540035
C5    C     C_R   0.535154 0.179725 0.338118 0.562476
C6    C     C_R   0.464846 0.179725 0.661882 0.562476
C7    C     C_R   0.035154 0.679725 0.338118 0.562474
C8    C     C_R   0.964846 0.679725 0.661882 0.562473
O17   O     O_R   0.548410 0.285740 0.316480 -0.410704
O18   O     O_R   0.451590 0.285740 0.683520 -0.410702
O19   O     O_R   0.048410 0.785740 0.316480 -0.410706
O20   O     O_R   0.951590 0.785740 0.683520 -0.410705
O21   O     O_R   0.680500 0.375040 0.327000 -0.450107
O22   O     O_R   0.319500 0.375040 0.673000 -0.450104
O23   O     O_R   0.180500 0.875040 0.327000 -0.450109
O24   O     O_R   0.819500 0.875040 0.673000 -0.450109
C9    C     C_R   0.740115 0.365683 0.359913 0.599723
C10   C     C_R   0.259885 0.365683 0.640087 0.599724
C11   C     C_R   0.240115 0.865683 0.359913 0.599723
C12   C     C_R   0.759885 0.865683 0.640087 0.599722
O25   O     O_R   0.780350 0.286720 0.192720 -0.501953
O26   O     O_R   0.219650 0.286720 0.807280 -0.501953
O27   O     O_R   0.280350 0.786720 0.192720 -0.501953
O28   O     O_R   0.719650 0.786720 0.807280 -0.501953
O29   O     O_R   0.757470 0.036630 0.196110 -0.486048
O30   O     O_R   0.242530 0.036630 0.803890 -0.486049
O31   O     O_R   0.257470 0.536630 0.196110 -0.486047
O32   O     O_R   0.742530 0.536630 0.803890 -0.486048
C13   C     C_R   0.722143 0.955391 0.162915 0.575137
C14   C     C_R   0.277857 0.955391 0.837085 0.575138
C15   C     C_R   0.222143 0.455390 0.162915 0.575139
C16   C     C_R   0.777857 0.455391 0.837085 0.575138
O33   O     O_R   0.663840 0.921160 0.179280 -0.447356
O34   O     O_R   0.336160 0.921160 0.820720 -0.447357
O35   O     O_R   0.163840 0.421160 0.179280 -0.447356
O36   O     O_R   0.836160 0.421160 0.820720 -0.447357
O37   O     O_R   0.554710 0.081900 0.170950 -0.467619
O38   O     O_R   0.445290 0.081900 0.829050 -0.467619
O39   O     O_R   0.054710 0.581900 0.170950 -0.467619
O40   O     O_R   0.945290 0.581900 0.829050 -0.467619
C17   C     C_R   0.533455 0.180160 0.140546 0.564626
C18   C     C_R   0.466545 0.180160 0.859454 0.564626
C19   C     C_R   0.033455 0.680160 0.140546 0.564626
C20   C     C_R   0.966545 0.680160 0.859454 0.564626
O41   O     O_R   0.545650 0.284910 0.163740 -0.464076
O42   O     O_R   0.454350 0.284910 0.836260 -0.464076
O43   O     O_R   0.045650 0.784910 0.163740 -0.464076
O44   O     O_R   0.954350 0.784910 0.836260 -0.464076
O45   O     O_R   0.677950 0.374280 0.185410 -0.461247
O46   O     O_R   0.322050 0.374280 0.814590 -0.461247
O47   O     O_R   0.177950 0.874280 0.185410 -0.461247
O48   O     O_R   0.822050 0.874280 0.814590 -0.461247
C21   C     C_R   0.736721 0.358772 0.164130 0.556806
C22   C     C_R   0.263279 0.358772 0.835870 0.556806
C23   C     C_R   0.236721 0.858771 0.164130 0.556807
C24   C     C_R   0.763279 0.858772 0.835870 0.556807
Cr1   Cr    Cr6+3 0.765780 0.160710 0.267420 1.111018
Cr2   Cr    Cr6+3 0.234220 0.160710 0.732580 1.111018
Cr3   Cr    Cr6+3 0.265780 0.660710 0.267420 1.111015
Cr4   Cr    Cr6+3 0.734220 0.660710 0.732580 1.111017
Cr5   Cr    Cr6+3 0.612200 0.009560 0.248850 1.103425
Cr6   Cr    Cr6+3 0.387800 0.009560 0.751150 1.103425
Cr7   Cr    Cr6+3 0.112200 0.509560 0.248850 1.103425
Cr8   Cr    Cr6+3 0.887800 0.509560 0.751150 1.103425
Cr9   Cr    Cr6+3 0.616030 0.323720 0.248510 1.163281
Cr10  Cr    Cr6+3 0.383970 0.323720 0.751490 1.163282
Cr11  Cr    Cr6+3 0.116030 0.823720 0.248510 1.163279
Cr12  Cr    Cr6+3 0.883970 0.823720 0.751490 1.163279
O49   O     O_3   0.664670 0.164660 0.254930 -0.344698
O50   O     O_3   0.335330 0.164660 0.745070 -0.344698
O51   O     O_3   0.164670 0.664660 0.254930 -0.344698
O52   O     O_3   0.835330 0.664660 0.745070 -0.344699
C25   C     C_1   0.487741 0.169151 0.595061 0.069827
C26   C     C_1   0.512259 0.169151 0.404939 0.069826
C27   C     C_1   0.987741 0.669151 0.595061 0.069824
C28   C     C_1   0.012259 0.669151 0.404939 0.069825
C29   C     C_1   0.502968 0.163330 0.464510 0.022968
C30   C     C_1   0.497032 0.163330 0.535490 0.022968
C31   C     C_1   0.002968 0.663330 0.464510 0.022973
C32   C     C_1   0.997031 0.663330 0.535490 0.022972
C33   C     C_3   0.703408 0.504485 0.532071 0.105105
C34   C     C_3   0.296593 0.504483 0.467928 0.105102
C35   C     C_3   0.203408 0.004485 0.532071 0.105110
C36   C     C_3   0.796592 0.004486 0.467929 0.105109
H1    H     H_    0.704443 0.596913 0.541444 0.068721
H2    H     H_    0.295560 0.596911 0.458554 0.068726
H3    H     H_    0.204446 0.096913 0.541442 0.068714
H4    H     H_    0.795554 0.096914 0.458558 0.068714
C37   C     C_3   0.692179 0.487899 0.454283 0.094452
C38   C     C_3   0.307821 0.487899 0.545717 0.094451
C39   C     C_3   0.192178 0.987896 0.454283 0.094454
C40   C     C_3   0.807822 0.987898 0.545717 0.094454
H5    H     H_    0.692247 0.577419 0.429957 0.116509
H6    H     H_    0.307752 0.577419 0.570042 0.116508
H7    H     H_    0.192245 0.077415 0.429956 0.116509
H8    H     H_    0.807754 0.077416 0.570044 0.116510
H9    H     H_    0.343780 0.111615 0.529991 0.125819
H10   H     H_    0.656220 0.111615 0.470009 0.125821
H11   H     H_    0.843780 0.611617 0.529990 0.125825
H12   H     H_    0.156221 0.611618 0.470010 0.125828
C41   C     C_3   0.834016 0.516806 0.519807 -0.331176
C42   C     C_3   0.165984 0.516807 0.480193 -0.331177
C43   C     C_3   0.334016 0.016804 0.519807 -0.331176
C44   C     C_3   0.665984 0.016805 0.480193 -0.331176
C45   C     C_3   0.780613 0.327972 0.550804 -0.231846
C46   C     C_3   0.219385 0.327972 0.449196 -0.231846
C47   C     C_3   0.280612 0.827970 0.550804 -0.231845
C48   C     C_3   0.719388 0.827971 0.449196 -0.231846
C49   C     C_3   0.776690 0.462002 0.561052 -0.010195
C50   C     C_3   0.223310 0.462002 0.438948 -0.010195
C51   C     C_3   0.276690 0.962000 0.561052 -0.010195
C52   C     C_3   0.723310 0.962001 0.438948 -0.010196
H13   H     H_    0.831753 0.292277 0.570410 0.161681
H14   H     H_    0.168246 0.292279 0.429590 0.161681
H15   H     H_    0.331750 0.792274 0.570412 0.161683
H16   H     H_    0.668249 0.792275 0.429588 0.161682
H17   H     H_    0.743695 0.279907 0.578269 0.217475
H18   H     H_    0.256303 0.279906 0.421731 0.217475
H19   H     H_    0.243692 0.779908 0.578267 0.217476
H20   H     H_    0.756308 0.779908 0.421732 0.217476
C53   C     C_3   0.753273 0.415041 0.430212 0.035113
C54   C     C_3   0.246727 0.415041 0.569788 0.035114
C55   C     C_3   0.253273 0.915040 0.430212 0.035113
C56   C     C_3   0.746727 0.915040 0.569788 0.035112
C57   C     C_3   0.820580 0.489157 0.442077 -0.150512
C58   C     C_3   0.179420 0.489157 0.557923 -0.150512
C59   C     C_3   0.320580 0.989156 0.442078 -0.150514
C60   C     C_3   0.679420 0.989156 0.557922 -0.150513
C61   C     C_3   0.768305 0.303826 0.475624 -0.280963
C62   C     C_3   0.231694 0.303826 0.524375 -0.280965
C63   C     C_3   0.268307 0.803824 0.475624 -0.280959
C64   C     C_3   0.731694 0.803825 0.524376 -0.280960
H21   H     H_    0.726860 0.240414 0.465754 0.136998
H22   H     H_    0.273140 0.240415 0.534245 0.136998
H23   H     H_    0.226863 0.740410 0.465752 0.136995
H24   H     H_    0.773138 0.740412 0.534247 0.136996
H25   H     H_    0.817857 0.267864 0.462263 0.155099
H26   H     H_    0.182143 0.267863 0.537737 0.155099
H27   H     H_    0.317859 0.767864 0.462264 0.155091
H28   H     H_    0.682142 0.767864 0.537736 0.155095
H29   H     H_    0.883770 0.475208 0.538722 0.136058
H30   H     H_    0.116230 0.475210 0.461278 0.136057
H31   H     H_    0.383770 0.975205 0.538722 0.136060
H32   H     H_    0.616230 0.975205 0.461278 0.136060
H33   H     H_    0.864101 0.433405 0.428313 0.142428
H34   H     H_    0.135898 0.433405 0.571686 0.142427
H35   H     H_    0.364102 0.933405 0.428313 0.142428
H36   H     H_    0.635898 0.933405 0.571687 0.142428
C65   C     C_3   0.487714 0.317716 0.961028 -0.066785
C66   C     C_3   0.512286 0.317716 0.038971 -0.066785
C67   C     C_3   0.987714 0.817716 0.961028 -0.066785
C68   C     C_3   0.012286 0.817716 0.038971 -0.066785
H37   H     H_    0.379825 0.128580 0.949789 0.060092
H38   H     H_    0.620175 0.128580 0.050211 0.060093
H39   H     H_    0.879825 0.628580 0.949789 0.060092
H40   H     H_    0.120174 0.628580 0.050211 0.060093
H41   H     H_    0.400241 0.190135 0.059142 0.129933
H42   H     H_    0.599759 0.190135 0.940858 0.129933
H43   H     H_    0.900240 0.690135 0.059142 0.129932
H44   H     H_    0.099759 0.690135 0.940858 0.129933
C69   C     C_3   0.432382 0.101675 0.969874 0.056503
C70   C     C_3   0.567618 0.101675 0.030126 0.056503
C71   C     C_3   0.932382 0.601674 0.969874 0.056503
C72   C     C_3   0.067618 0.601675 0.030126 0.056503
C73   C     C_3   0.559069 0.127713 0.952734 -0.214589
C74   C     C_3   0.440931 0.127713 0.047266 -0.214589
C75   C     C_3   0.059069 0.627713 0.952734 -0.214589
C76   C     C_3   0.940931 0.627713 0.047266 -0.214589
C77   C     C_3   0.486935 0.180297 0.933757 -0.019657
C78   C     C_3   0.513065 0.180297 0.066243 -0.019657
C79   C     C_3   0.986935 0.680297 0.933757 -0.019657
C80   C     C_3   0.013065 0.680297 0.066243 -0.019657
H45   H     H_    0.568845 0.048625 0.921497 0.211696
H46   H     H_    0.431155 0.048625 0.078503 0.211696
H47   H     H_    0.068845 0.548625 0.921497 0.211696
H48   H     H_    0.931155 0.548625 0.078503 0.211695
C81   C     C_1   0.761930 0.431052 0.905228 0.069548
C82   C     C_1   0.238070 0.431052 0.094772 0.069547
C83   C     C_1   0.261930 0.931052 0.905228 0.069548
C84   C     C_1   0.738070 0.931052 0.094772 0.069547
C85   C     C_1   0.750882 0.411529 0.036044 0.012137
C86   C     C_1   0.249117 0.411528 0.963956 0.012137
C87   C     C_1   0.250882 0.911528 0.036044 0.012137
C88   C     C_1   0.749118 0.911529 0.963956 0.012137
C89   C     C_1   0.754558 0.421150 0.964973 0.029889
C90   C     C_1   0.245442 0.421150 0.035027 0.029889
C91   C     C_1   0.254557 0.921150 0.964973 0.029889
C92   C     C_1   0.745443 0.921150 0.035027 0.029889
C93   C     C_1   0.746482 0.395495 0.095969 0.047877
C94   C     C_1   0.253518 0.395495 0.904031 0.047877
C95   C     C_1   0.246482 0.895495 0.095969 0.047877
C96   C     C_1   0.753518 0.895495 0.904031 0.047877
C97   C     C_2   0.414738 0.368984 0.949470 0.219103
H49   H     H_    0.372879 0.320199 0.967366 0.079216
O53   O     O_2   0.403164 0.467872 0.924506 -0.478370
C98   C     C_2   0.585262 0.368984 0.050530 0.219103
H50   H     H_    0.627121 0.320199 0.032634 0.079216
O54   O     O_2   0.596836 0.467872 0.075495 -0.478370
C99   C     C_2   0.914738 0.868984 0.949470 0.219103
H51   H     H_    0.872879 0.820199 0.967366 0.079216
O55   O     O_2   0.903164 0.967872 0.924505 -0.478370
C100  C     C_2   0.085262 0.868984 0.050530 0.219103
H52   H     H_    0.127121 0.820199 0.032634 0.079216
O56   O     O_2   0.096836 0.967872 0.075495 -0.478370
C101  C     C_2   0.533683 0.404623 0.923523 0.313373
H53   H     H_    0.532256 0.499609 0.934761 0.181930
O57   O     O_2   0.572843 0.370725 0.883231 -0.505037
C102  C     C_2   0.466317 0.404623 0.076477 0.313373
H54   H     H_    0.467744 0.499609 0.065239 0.181930
O58   O     O_2   0.427157 0.370725 0.116769 -0.505037
C103  C     C_2   0.033683 0.904623 0.923523 0.313373
H55   H     H_    0.032256 0.999609 0.934762 0.181930
O59   O     O_2   0.072843 0.870725 0.883231 -0.505037
C104  C     C_2   0.966317 0.904623 0.076477 0.313373
H56   H     H_    0.967744 0.999609 0.065238 0.181930
O60   O     O_2   0.927157 0.870725 0.116769 -0.505037
N1    N     N_R   0.564212 0.970519 0.041194 0.127314
O61   O     O_R   0.601263 0.899719 0.007787 -0.318322
O62   O     O_R   0.525900 0.921514 0.083428 -0.255396
N2    N     N_R   0.435788 0.970519 0.958806 0.127314
O63   O     O_R   0.398737 0.899719 0.992212 -0.318322
O64   O     O_R   0.474100 0.921514 0.916572 -0.255396
N3    N     N_R   0.064212 0.470519 0.041194 0.127314
O65   O     O_R   0.101263 0.399719 0.007788 -0.318322
O66   O     O_R   0.025900 0.421514 0.083428 -0.255396
N4    N     N_R   0.935788 0.470519 0.958806 0.127314
O67   O     O_R   0.898737 0.399719 0.992213 -0.318322
O68   O     O_R   0.974100 0.421514 0.916572 -0.255396
N5    N     N_R   0.644838 0.462590 0.567614 0.137596
O69   O     O_R   0.587803 0.522331 0.559397 -0.228537
O70   O     O_R   0.650361 0.378787 0.613368 -0.312681
N6    N     N_R   0.355162 0.462582 0.432386 0.137588
O71   O     O_R   0.412199 0.522314 0.440606 -0.228526
O72   O     O_R   0.349636 0.378786 0.386628 -0.312683
N7    N     N_R   0.144838 0.962597 0.567614 0.137603
O73   O     O_R   0.087805 0.022344 0.559399 -0.228545
O74   O     O_R   0.150357 0.878789 0.613365 -0.312678
N8    N     N_R   0.855162 0.962598 0.432386 0.137604
O75   O     O_R   0.912194 0.022347 0.440601 -0.228547
O76   O     O_R   0.849643 0.878789 0.386635 -0.312678
N9    N     N_R   0.625519 0.433786 0.434569 0.126063
O77   O     O_R   0.612079 0.327803 0.456085 -0.365122
O78   O     O_R   0.577230 0.496128 0.401433 -0.243402
N10   N     N_R   0.374481 0.433788 0.565432 0.126065
O79   O     O_R   0.387921 0.327803 0.543918 -0.365123
O80   O     O_R   0.422770 0.496130 0.598568 -0.243402
N11   N     N_R   0.125520 0.933780 0.434571 0.126061
O81   O     O_R   0.112081 0.827797 0.456089 -0.365129
O82   O     O_R   0.077228 0.996119 0.401436 -0.243395
N12   N     N_R   0.874481 0.933782 0.565430 0.126061
O83   O     O_R   0.887920 0.827800 0.543912 -0.365125
O84   O     O_R   0.922771 0.996121 0.598565 -0.243396
C105  C     C_2   0.324461 0.097569 0.397822 0.178210
H57   H     H_    0.363972 0.162943 0.411179 0.180073
O85   O     O_2   0.286629 0.110383 0.345457 -0.480039
C106  C     C_2   0.675539 0.097568 0.602178 0.178209
H58   H     H_    0.636027 0.162942 0.588821 0.180072
O86   O     O_2   0.713371 0.110383 0.654543 -0.480041
C107  C     C_2   0.824462 0.597568 0.397821 0.178210
H59   H     H_    0.863974 0.662940 0.411177 0.180072
O87   O     O_2   0.786628 0.610384 0.345457 -0.480043
C108  C     C_2   0.175538 0.597567 0.602180 0.178211
H60   H     H_    0.136025 0.662940 0.588825 0.180071
O88   O     O_2   0.213372 0.610383 0.654543 -0.480043

loop_
_geom_bond_atom_site_label_1
_geom_bond_atom_site_label_2
_geom_bond_distance
_ccdc_geom_bond_type
C18   O42   1.272564 A    
H44   C75   1.104894 S    
Cr11  O51   2.018591 S    
O4    C12   1.268340 A    
C57   H33   1.114540 S    
C29   C30   1.418890 S    
C68   C80   1.628826 S    
O39   C19   1.301750 A    
C16   C81   1.438426 S    
O20   Cr12  2.026879 S    
C43   C59   1.563309 S    
O29   C13   1.284071 A    
C15   C82   1.438425 S    
C85   C93   1.209170 T    
C31   C32   1.418890 S    
C44   C60   1.563310 S    
C67   C99   1.541640 S    
C102  H54   1.086666 S    
C58   C108  1.501725 S    
C104  O60   1.221820 D    
O26   C22   1.268573 A    
C74   C78   1.547374 S    
C39   N11   1.461555 S    
C69   C77   1.608314 S    
N7    O73   1.302152 A    
C24   C96   1.439095 S    
O7    C3    1.303127 A    
C15   O35   1.280662 A    
C48   C64   1.505639 S    
C55   C63   1.545446 S    
O5    C1    1.303126 A    
C65   C66   1.567721 S    
C40   H8    1.111043 S    
C5    O17   1.296139 A    
H38   C70   1.111486 S    
O24   C12   1.287454 A    
C53   C61   1.545441 S    
C107  O87   1.221496 D    
N3    O65   1.299969 A    
O25   C21   1.268574 A    
C99   O55   1.223556 D    
O45   Cr9   1.913009 S    
C33   N5    1.483545 S    
N1    O62   1.299952 A    
N7    O74   1.299553 A    
C83   C91   1.208695 T    
H40   C72   1.111486 S    
C69   C74   1.549394 S    
C82   C90   1.208695 T    
O21   C9    1.287454 A    
C46   C62   1.505637 S    
C36   H4    1.050455 S    
O23   Cr11  1.988145 S    
N2    O63   1.299968 A    
C48   H16   1.115378 S    
N9    O77   1.295820 A    
O30   C14   1.284070 A    
C59   H35   1.114540 S    
C25   C30   1.210748 T    
O32   Cr4   1.973277 S    
C1    O9    1.293064 A    
C46   H18   1.090562 S    
C61   H21   1.083734 S    
N8    O76   1.299561 A    
C72   C80   1.608314 S    
C14   C83   1.438426 S    
C27   C32   1.210747 T    
H9    C43   1.093180 S    
C73   H45   1.106601 S    
C108  H60   1.080743 S    
O11   Cr7   2.111069 S    
C4    O12   1.293065 A    
C9    C53   1.493357 S    
C106  H58   1.080742 S    
H11   C41   1.093178 S    
C86   C90   1.417431 S    
N4    O68   1.299952 A    
C76   H48   1.106601 S    
C85   C89   1.417431 S    
C7    O19   1.296139 A    
C84   C92   1.208695 T    
O14   C6    1.291279 A    
O3    Cr3   2.098504 S    
N1    O61   1.299969 A    
Cr4   O52   1.980134 S    
O47   C23   1.280563 A    
O17   Cr9   2.026882 S    
C72   C75   1.549394 S    
O14   Cr6   1.921159 S    
C48   C52   1.516242 S    
C45   H17   1.090563 S    
C33   C37   1.542197 S    
C21   C93   1.439095 S    
O2    C10   1.268342 A    
C13   C84   1.438425 S    
C23   C95   1.439095 S    
O42   Cr10  2.109575 S    
Cr5   O49   2.016584 S    
C88   C96   1.209170 T    
C101  O57   1.221819 D    
C62   H22   1.083735 S    
C105  H57   1.080743 S    
C60   H36   1.114540 S    
C18   C77   1.483089 S    
C87   C91   1.417431 S    
H39   C71   1.111486 S    
C3    O11   1.293066 A    
C36   N8    1.483545 S    
O34   Cr6   2.043789 S    
H42   C73   1.104895 S    
Cr7   O51   2.016584 S    
N6    O72   1.299555 A    
Cr9   O49   2.018591 S    
O6    Cr2   1.968787 S    
C69   N2    1.486173 S    
C5    C26   1.441586 S    
C106  O86   1.221496 D    
O31   Cr3   1.973276 S    
C41   C57   1.563310 S    
O24   Cr12  1.988144 S    
O16   Cr8   1.921159 S    
O9    Cr5   2.111069 S    
C36   C40   1.542193 S    
C1    C52   1.479729 S    
O30   Cr2   1.973277 S    
O22   C10   1.287454 A    
N2    O64   1.299954 A    
O1    C9    1.268339 A    
O48   Cr12  1.913011 S    
C56   C60   1.560073 S    
N11   O81   1.295821 A    
C3    C50   1.479729 S    
C74   H46   1.106601 S    
C35   N7    1.483543 S    
C35   H3    1.050455 S    
C54   C58   1.560070 S    
C66   C102  1.563779 S    
C67   C68   1.567721 S    
C40   C56   1.564748 S    
N5    O69   1.302155 A    
C73   C77   1.547374 S    
C40   N12   1.461555 S    
C48   H20   1.090561 S    
O7    Cr3   1.968787 S    
C4    C49   1.479731 S    
C72   N3    1.486173 S    
C68   C104  1.563779 S    
C34   H2    1.050466 S    
C41   H29   1.114223 S    
C10   C54   1.493357 S    
C28   C31   1.210747 T    
C65   C77   1.628826 S    
C76   C80   1.547374 S    
O43   Cr11  2.109573 S    
O48   C24   1.280562 A    
O12   Cr8   2.111070 S    
Cr12  O52   2.018591 S    
C46   C50   1.516244 S    
C63   H23   1.083731 S    
C99   H51   1.076442 S    
O6    C2    1.303126 A    
C45   C49   1.516241 S    
N8    O75   1.302157 A    
C75   C79   1.547374 S    
C67   C103  1.563779 S    
O46   Cr10  1.913011 S    
C101  H53   1.086666 S    
O39   Cr7   1.989378 S    
O3    C11   1.268337 A    
C71   N4    1.486173 S    
C47   C51   1.516243 S    
C103  H55   1.086667 S    
C62   H26   1.110285 S    
C13   O33   1.280662 A    
O40   Cr8   1.989376 S    
O8    C4    1.303127 A    
C67   C79   1.628826 S    
N10   O80   1.301529 A    
C87   C95   1.209170 T    
C97   H49   1.076442 S    
C17   C78   1.483089 S    
C19   C80   1.483088 S    
N3    O66   1.299954 A    
H10   C44   1.093179 S    
O47   Cr11  1.913009 S    
Cr2   O50   1.980134 S    
N9    O78   1.301529 A    
O15   Cr7   1.921156 S    
C12   C56   1.493354 S    
Cr1   O49   1.980134 S    
C34   N6    1.483547 S    
N12   O84   1.301530 A    
C65   C101  1.563779 S    
C33   C49   1.570927 S    
C103  O59   1.221818 D    
C107  H59   1.080742 S    
C98   O54   1.223556 D    
H41   C74   1.104894 S    
C20   C79   1.483089 S    
O27   Cr3   2.081501 S    
N5    O70   1.299559 A    
O8    Cr4   1.968787 S    
C2    O10   1.293064 A    
O37   Cr5   1.989378 S    
O38   C18   1.301749 A    
C8    O20   1.296139 A    
C108  O88   1.221496 D    
C42   H30   1.114224 S    
C57   C107  1.501723 S    
C2    C51   1.479729 S    
C8    C27   1.441586 S    
C37   N9    1.461555 S    
C63   H27   1.110287 S    
N6    O71   1.302153 A    
O15   C7    1.291280 A    
C26   C29   1.210746 T    
C41   C49   1.579295 S    
C71   C76   1.549394 S    
C38   H6    1.111040 S    
O25   Cr1   2.081501 S    
Cr3   O51   1.980134 S    
N11   O82   1.301529 A    
C53   C57   1.560073 S    
O26   Cr2   2.081501 S    
O37   C17   1.301749 A    
O22   Cr10  1.988144 S    
O28   C24   1.268573 A    
C47   H15   1.115378 S    
C36   C52   1.570923 S    
C39   H7    1.111043 S    
O21   Cr9   1.988145 S    
C43   H31   1.114224 S    
C64   H24   1.083732 S    
C45   H13   1.115379 S    
N10   O79   1.295821 A    
C42   C58   1.563309 S    
C102  O58   1.221820 D    
C58   H34   1.114540 S    
C70   N1    1.486173 S    
C35   C51   1.570924 S    
C44   C52   1.579294 S    
C17   O41   1.272564 A    
C75   H47   1.106601 S    
C11   C55   1.493354 S    
C66   C98   1.541640 S    
C22   C94   1.439095 S    
C46   H14   1.115378 S    
C35   C39   1.542192 S    
C14   O34   1.280660 A    
C19   O43   1.272564 A    
C34   C38   1.542198 S    
O44   Cr12  2.109575 S    
C100  O56   1.223556 D    
C20   O44   1.272564 A    
O1    Cr1   2.098504 S    
C34   C50   1.570932 S    
C37   C53   1.564749 S    
C105  O85   1.221496 D    
O38   Cr6   1.989376 S    
C47   C63   1.505638 S    
C61   H25   1.110286 S    
Cr8   O52   2.016584 S    
Cr10  O50   2.018591 S    
O33   Cr5   2.043788 S    
O13   Cr5   1.921156 S    
C65   C97   1.541639 S    
C100  H52   1.076441 S    
O46   C22   1.280562 A    
C81   C89   1.208695 T    
C37   H5    1.111041 S    
C54   C62   1.545443 S    
O45   C21   1.280563 A    
N4    O67   1.299969 A    
O23   C11   1.287455 A    
O19   Cr11  2.026882 S    
C97   O53   1.223556 D    
C6    C25   1.441586 S    
H12   C42   1.093175 S    
H37   C69   1.111486 S    
C45   C61   1.505637 S    
O10   Cr6   2.111070 S    
O5    Cr1   1.968787 S    
C104  H56   1.086666 S    
C42   C50   1.579297 S    
O35   Cr7   2.043788 S    
C55   C59   1.560074 S    
O4    Cr4   2.098503 S    
C70   C73   1.549394 S    
C38   C54   1.564751 S    
N12   O83   1.295821 A    
C66   C78   1.628826 S    
O29   Cr1   1.973276 S    
C70   C78   1.608314 S    
C38   N10   1.461556 S    
O40   C20   1.301749 A    
C16   O36   1.280660 A    
C71   C79   1.608314 S    
C98   H50   1.076441 S    
O18   Cr10  2.026879 S    
Cr6   O50   2.016584 S    
C6    O18   1.296140 A    
O28   Cr4   2.081501 S    
C47   H19   1.090561 S    
C44   H32   1.114222 S    
O27   C23   1.268574 A    
C7    C28   1.441584 S    
C86   C94   1.209170 T    
O41   Cr9   2.109573 S    
C88   C92   1.417431 S    
C64   H28   1.110286 S    
O2    Cr2   2.098503 S    
C68   C100  1.541640 S    
O36   Cr8   2.043789 S    
C56   C64   1.545444 S    
O31   C15   1.284071 A    
C59   C105  1.501723 S    
O16   C8    1.291279 A    
C39   C55   1.564748 S    
C33   H1    1.050459 S    
O32   C16   1.284070 A    
C43   C51   1.579292 S    
H43   C76   1.104895 S    
C60   C106  1.501722 S    
O13   C5    1.291281 A    
