data_mof_unit_18264.cif
_audit_creation_date              2012-12-10T16:53:59-0500
_audit_creation_method            fapswitch 2.2
_symmetry_space_group_name_H-M    P1
_symmetry_Int_Tables_number       1
_space_group_crystal_system       triclinic
_cell_length_a                    7.767575
_cell_length_b                    8.572908
_cell_length_c                    10.616424
_cell_angle_alpha                 91.14417
_cell_angle_beta                  85.206238
_cell_angle_gamma                 93.850381
_cell_volume                      702.818781546

loop_
_atom_site_label
_atom_site_type_symbol
_atom_type_description
_atom_site_fract_x
_atom_site_fract_y
_atom_site_fract_z
_atom_type_partial_charge
C1    C     C_R   0.545942 0.794824 0.496833 0.965820
C2    C     C_3   0.313130 0.518853 0.940991 -0.389580
C3    C     C_3   0.311409 0.517846 0.083758 -0.410656
C4    C     C_3   0.574147 0.342785 0.923160 -0.043358
C5    C     C_3   0.617714 0.637030 0.922071 -0.478265
C6    C     C_3   0.499652 0.496321 0.878589 0.180123
C7    C     C_3   0.512448 0.184125 0.862703 -0.433874
C8    C     C_3   0.315976 0.144084 0.873257 -0.319160
C9    C     C_3   0.274171 0.969329 0.854128 -0.928527
C10   C     C_3   0.496899 0.498825 0.121826 0.166658
C11   C     C_3   0.558120 0.340127 0.068727 -0.428010
C12   C     C_3   0.619539 0.635826 0.066594 -0.406714
C13   C     C_2   0.570048 0.958420 0.494970 -0.405195
C14   C     C_2   0.429892 0.041625 0.504461 -0.394508
C15   C     C_R   0.500432 0.498722 0.742187 0.833855
C16   C     C_R   0.454029 0.205191 0.502871 0.963045
C17   C     C_R   0.498719 0.500249 0.257906 0.840352
H1    H     H_    0.215461 0.429820 0.909677 0.167003
H2    H     H_    0.262078 0.629289 0.123276 0.181808
H3    H     H_    0.221136 0.420116 0.121448 0.167588
H4    H     H_    0.465899 0.243484 0.105349 0.164156
H5    H     H_    0.752448 0.631160 0.878083 0.174399
H6    H     H_    0.570271 0.749116 0.892304 0.173009
H7    H     H_    0.577776 0.749409 0.107024 0.161716
H8    H     H_    0.339605 0.927130 0.764069 0.276959
H9    H     H_    0.317215 0.904886 0.934230 0.253560
H10   H     H_    0.132194 0.945514 0.851590 0.248005
H11   H     H_    0.256484 0.177716 0.967683 0.221294
H12   H     H_    0.754307 0.623313 0.091504 0.183965
H13   H     H_    0.256701 0.206995 0.799108 0.226563
H14   H     H_    0.560434 0.181593 0.761180 0.201338
H15   H     H_    0.577440 0.090532 0.907939 0.207409
H16   H     H_    0.715884 0.353231 0.894304 0.138520
H17   H     H_    0.686373 0.317582 0.101890 0.159085
H18   H     H_    0.702291 0.009846 0.485860 0.180578
H19   H     H_    0.297641 0.990225 0.513813 0.183161
H20   H     H_    0.014121 0.382637 0.404485 0.185866
H21   H     H_    0.985900 0.617357 0.595537 0.186933
H22   H     H_    0.268913 0.632622 0.912367 0.180346
N1    N     N_2   0.950330 0.457950 0.465890 -0.177715
N2    N     N_2   0.049670 0.542050 0.534110 -0.177788
O1    O     O_R   0.389250 0.738570 0.508370 -0.611522
O2    O     O_R   0.678390 0.711620 0.486510 -0.626885
O3    O     O_R   0.355430 0.513500 0.696140 -0.632750
O4    O     O_R   0.644580 0.486550 0.674270 -0.640315
O5    O     O_R   0.321610 0.288380 0.513490 -0.630319
O6    O     O_R   0.610750 0.261430 0.491630 -0.615084
O7    O     O_R   0.355420 0.513450 0.325730 -0.634223
O8    O     O_R   0.644570 0.486500 0.303860 -0.628027
Zn1   Zn    Zn3+2 0.306940 0.517990 0.514600 0.919106
Zn2   Zn    Zn3+2 0.693060 0.482010 0.485400 0.920255

loop_
_geom_bond_atom_site_label_1
_geom_bond_atom_site_label_2
_ccdc_geom_bond_type
N2    Zn1   S    
C15   O3    A    
C3    H2    S    
C12   H12   S    
C2    H1    S    
N1    Zn2   S    
O5    Zn1   S    
C5    H6    S    
C17   O7    A    
C8    H13   S    
O7    Zn1   S    
C2    C3    S    
C9    H8    S    
C7    C8    S    
C3    C10   S    
C13   C14   D    
C4    C11   S    
O2    Zn2   S    
C2    C6    S    
C10   C12   S    
O1    Zn1   S    
C4    C7    S    
C16   O6    A    
N1    N2    D    
C1    O2    A    
C9    H9    S    
C13   H18   S    
H20   N1    S    
C14   H19   S    
C5    C6    S    
C8    H11   S    
C14   C16   S    
C7    H14   S    
C10   C11   S    
O4    Zn2   S    
C10   C17   S    
C17   O8    A    
C1    O1    A    
C3    H3    S    
C1    C13   S    
C9    H10   S    
H21   N2    S    
C4    C6    S    
O3    Zn1   S    
C12   H7    S    
C4    H16   S    
C16   O5    A    
O6    Zn2   S    
C7    H15   S    
C6    C15   S    
C2    H22   S    
C11   H4    S    
C11   H17   S    
C5    H5    S    
C8    C9    S    
O8    Zn2   S    
C15   O4    A    
C5    C12   S    
