data_mof_unit_6891.cif
_audit_creation_date              2012-12-10T18:11:45-0500
_audit_creation_method            fapswitch 2.2
_symmetry_space_group_name_H-M    P1
_symmetry_Int_Tables_number       1
_space_group_crystal_system       triclinic
_cell_length_a                    10.523921
_cell_length_b                    12.610892
_cell_length_c                    13.137011
_cell_angle_alpha                 82.433236
_cell_angle_beta                  90.156282
_cell_angle_gamma                 102.09665
_cell_volume                      1689.37725744

loop_
_atom_site_label
_atom_site_type_symbol
_atom_type_description
_atom_site_fract_x
_atom_site_fract_y
_atom_site_fract_z
_atom_type_partial_charge
C1    C     C_R   0.489960 0.438874 0.691152 0.838595
C2    C     C_R   0.503588 0.446934 0.973686 0.087746
C3    C     C_R   0.547774 0.467054 0.870520 0.094714
C4    C     C_R   0.742091 0.500748 0.498609 0.909392
C5    C     C_R   0.544824 0.529673 0.036686 0.086217
C6    C     C_R   0.643106 0.622897 0.001046 0.175984
C7    C     C_R   0.699392 0.632560 0.903567 -0.252583
C8    C     C_R   0.652905 0.555083 0.839198 -0.211631
C9    C     C_R   0.489469 0.522906 0.133917 -0.262687
C10   C     C_R   0.635483 0.690384 0.164629 -0.145000
C11   C     C_R   0.484069 0.399330 0.800767 -0.111135
C12   C     C_3   0.063173 0.593170 0.531072 -0.007399
C13   C     C_R   0.321443 0.088904 0.346167 -0.302388
C14   C     C_R   0.654332 0.799768 0.628788 0.049110
C15   C     C_R   0.685868 0.904094 0.657106 -0.245908
C16   C     C_R   0.515240 0.561014 0.308837 0.878893
C17   C     C_R   0.627027 0.985460 0.608572 -0.193278
C18   C     C_R   0.536525 0.962611 0.530457 0.018048
C19   C     C_R   0.508154 0.854839 0.504265 0.246444
C20   C     C_R   0.473573 0.041919 0.477374 -0.011770
C21   C     C_R   0.384393 0.012037 0.399323 0.199671
C22   C     C_R   0.359245 0.905934 0.374681 -0.281301
C23   C     C_3   0.957373 0.507981 0.594933 -0.251200
C24   C     C_R   0.420630 0.828720 0.426262 -0.194128
C25   C     C_R   0.495425 0.150508 0.498093 -0.053109
C26   C     C_R   0.347536 0.194791 0.370338 0.015104
C27   C     C_R   0.257866 0.499406 0.501560 0.856887
C28   C     C_3   0.935932 0.407292 0.468436 -0.126728
C29   C     C_3   0.018732 0.414289 0.565701 -0.158964
C30   C     C_3   0.122934 0.500360 0.502158 -0.016816
C31   C     C_3   0.042752 0.493517 0.404850 -0.276823
C32   C     C_3   0.981877 0.586512 0.434675 0.002651
C33   C     C_2   0.967115 0.683669 0.360234 0.372376
C34   C     C_3   0.877238 0.501278 0.497578 0.001076
C35   C     C_1   0.129748 0.694899 0.568097 0.178330
C36   C     C_R   0.685315 0.704017 0.064482 -0.206796
C37   C     C_R   0.541229 0.596953 0.200106 -0.069010
C38   C     C_R   0.399492 0.299937 0.836959 -0.193942
C39   C     C_R   0.371296 0.271540 0.941329 -0.150289
C40   C     C_R   0.419857 0.345097 0.009264 -0.188872
H1    H     H_    0.037946 0.343914 0.619191 0.140607
H2    H     H_    0.561299 0.181055 0.555437 0.126443
H3    H     H_    0.700412 0.736506 0.665605 0.126255
H4    H     H_    0.880346 0.330976 0.442579 0.152477
H5    H     H_    0.654772 0.064940 0.633493 0.136450
H6    H     H_    0.755724 0.921865 0.716441 0.146104
H7    H     H_    0.397207 0.748910 0.403572 0.204357
H8    H     H_    0.081221 0.487628 0.327628 0.138282
H9    H     H_    0.918922 0.514324 0.672052 0.135421
H10   H     H_    0.675202 0.749281 0.215471 0.199112
H11   H     H_    0.778004 0.700835 0.876449 0.141659
H12   H     H_    0.409010 0.457550 0.162300 0.140494
H13   H     H_    0.760324 0.775361 0.038099 0.139449
H14   H     H_    0.052733 0.736886 0.321875 0.046700
H15   H     H_    0.351739 0.245907 0.784323 0.159300
H16   H     H_    0.392692 0.318949 0.089154 0.129876
H17   H     H_    0.306927 0.194332 0.969239 0.141342
H18   H     H_    0.700662 0.563994 0.764832 0.147521
H19   H     H_    0.300405 0.255727 0.329806 0.126552
H20   H     H_    0.291635 0.882350 0.315154 0.145062
H21   H     H_    0.253302 0.067392 0.286445 0.141929
N1    N     N_R   0.432930 0.222190 0.444670 -0.102016
N2    N     N_R   0.566370 0.776980 0.554790 -0.127077
N3    N     N_1   0.181669 0.774945 0.597618 -0.199376
O1    O     O_R   0.467970 0.366730 0.627150 -0.620283
O2    O     O_R   0.510820 0.544830 0.662520 -0.613641
O3    O     O_R   0.664630 0.410960 0.482340 -0.634833
O4    O     O_R   0.707470 0.589060 0.517710 -0.593293
O5    O     O_R   0.489180 0.455170 0.337480 -0.615884
O6    O     O_R   0.532030 0.633270 0.372850 -0.621740
O7    O     O_R   0.292530 0.410940 0.482290 -0.616694
O8    O     O_R   0.335370 0.589040 0.517660 -0.638881
O9    O     O_2   0.860214 0.703596 0.342366 -0.578698
Zn1   Zn    Zn3+2 0.471390 0.381080 0.476380 0.937661
Zn2   Zn    Zn3+2 0.528610 0.618920 0.523620 0.959881

loop_
_geom_bond_atom_site_label_1
_geom_bond_atom_site_label_2
_ccdc_geom_bond_type
C1    C11   S    
C7    C8    A    
O4    Zn2   S    
C12   C23   S    
C10   C37   A    
C23   C29   S    
C28   C29   S    
C17   H5    S    
C22   H20   S    
C38   C39   A    
C23   H9    S    
C20   C25   A    
O2    Zn2   S    
C39   H17   S    
C18   C19   A    
C36   H13   S    
C8    H18   S    
C38   H15   S    
C19   N2    A    
C40   H16   S    
C1    O1    A    
C35   N3    T    
C26   H19   S    
C16   C37   S    
C12   C30   S    
C28   C34   S    
C21   C22   A    
C12   C32   S    
C27   C30   S    
C9    H12   S    
O8    Zn2   S    
C17   C18   A    
C4    C34   S    
C16   O6    A    
C3    C8    A    
C39   C40   A    
C4    O4    A    
C28   H4    S    
O1    Zn1   S    
C32   C34   S    
C11   C38   A    
C5    C9    A    
C29   C30   S    
C4    O3    A    
C31   C32   S    
C30   C31   S    
C23   C34   S    
C9    C37   A    
C1    O2    A    
C13   C21   A    
O5    Zn1   S    
O3    Zn1   S    
C12   C35   S    
C33   O9    D    
C31   H8    S    
C22   C24   A    
C13   C26   A    
C2    C5    A    
C10   H10   S    
C27   O7    A    
C33   H14   S    
C15   C17   A    
C29   H1    S    
C24   H7    S    
C28   C31   S    
C16   O5    A    
C25   H2    S    
O7    Zn1   S    
C6    C7    A    
C32   C33   S    
C19   C24   A    
C26   N1    A    
C7    H11   S    
C5    C6    A    
N2    Zn2   S    
C14   N2    A    
C6    C36   A    
C2    C3    A    
C18   C20   A    
C25   N1    A    
C3    C11   A    
C2    C40   A    
C13   H21   S    
C20   C21   A    
O6    Zn2   S    
C14   C15   A    
N1    Zn1   S    
C10   C36   A    
C15   H6    S    
C27   O8    A    
C14   H3    S    
