data_mof_unit_25280.cif
_audit_creation_date              2012-12-11T14:49:45-0500
_audit_creation_method            fapswitch 2.2
_symmetry_space_group_name_H-M    P1
_symmetry_Int_Tables_number       1
_space_group_crystal_system       triclinic
_cell_length_a                    16.906895
_cell_length_b                    7.026896
_cell_length_c                    17.004731
_cell_angle_alpha                 89.99801
_cell_angle_beta                  100.899318
_cell_angle_gamma                 89.998373
_cell_volume                      1983.77023795

loop_
_atom_site_label
_atom_site_type_symbol
_atom_type_description
_atom_site_fract_x
_atom_site_fract_y
_atom_site_fract_z
_atom_type_partial_charge
O1    O     O_R   0.579510 0.506290 0.439030 -0.544231
O2    O     O_R   0.420490 0.006290 0.560970 -0.544111
O3    O     O_R   0.412540 0.170090 0.405290 -0.546175
O4    O     O_R   0.587460 0.670090 0.594710 -0.546211
C1    C     C_R   0.386063 0.345709 0.381535 0.645425
C2    C     C_R   0.613946 0.845688 0.618460 0.645663
O5    O     O_R   0.578390 0.176230 0.429330 -0.532558
O6    O     O_R   0.421610 0.676230 0.570670 -0.532724
O7    O     O_R   0.587530 0.011250 0.585190 -0.548154
O8    O     O_R   0.412470 0.511250 0.414810 -0.548420
C3    C     C_R   0.605217 0.346352 0.414137 0.696310
C4    C     C_R   0.394777 0.846353 0.585854 0.695869
O9    O     O_3   0.502800 0.340940 0.551110 -0.372907
O10   O     O_3   0.497200 0.840940 0.448890 -0.373032
V1    V     V_3+5 0.499480 0.064020 0.490520 1.405490
V2    V     V_3+5 0.500520 0.564020 0.509480 1.405090
C5    C     C_R   0.168955 0.897473 0.863142 -0.181591
C6    C     C_R   0.831032 0.397488 0.136841 -0.181636
C7    C     C_R   0.331331 0.868577 0.635902 -0.096057
C8    C     C_R   0.668655 0.368571 0.364078 -0.095550
C9    C     C_R   0.226604 0.073511 0.671761 -0.099027
C10   C     C_R   0.773378 0.573493 0.328214 -0.099152
C11   C     C_R   0.280341 0.028092 0.621695 -0.181116
C12   C     C_R   0.719631 0.528101 0.378269 -0.181004
C13   C     C_R   0.324841 0.748994 0.701342 0.162651
C14   C     C_R   0.675157 0.248965 0.298649 0.162498
C15   C     C_R   0.273477 0.801843 0.755128 0.100584
C16   C     C_R   0.726511 0.301832 0.244851 0.100531
C17   C     C_R   0.223735 0.965790 0.741005 0.067512
C18   C     C_R   0.776255 0.465770 0.258978 0.067641
C19   C     C_R   0.171015 0.013930 0.794919 -0.018700
C20   C     C_R   0.828983 0.513904 0.205072 -0.018734
C21   C     C_R   0.224103 0.742515 0.878831 -0.027669
C22   C     C_R   0.775859 0.242597 0.121124 -0.027723
C23   C     C_R   0.273187 0.694821 0.824220 -0.050871
C24   C     C_R   0.726786 0.194856 0.175744 -0.050908
H1    H     H_    0.188375 0.195933 0.655568 0.187920
H2    H     H_    0.811604 0.695910 0.344408 0.187828
H3    H     H_    0.313508 0.574371 0.837401 0.202573
H4    H     H_    0.686453 0.074437 0.162553 0.202573
H5    H     H_    0.282317 0.120787 0.571241 0.167161
H6    H     H_    0.717640 0.620834 0.428703 0.166493
C25   C     C_3   0.763338 0.719199 0.820126 0.046419
C26   C     C_3   0.236763 0.219373 0.179841 0.046263
H7    H     H_    0.805275 0.605226 0.810970 0.122902
H8    H     H_    0.194940 0.105289 0.189143 0.123313
C27   C     C_3   0.686465 0.696968 0.751968 0.031426
C28   C     C_3   0.313773 0.197522 0.247868 0.031142
H9    H     H_    0.690925 0.559297 0.720968 0.125386
H10   H     H_    0.309639 0.059528 0.278746 0.125671
C29   C     C_3   0.840310 0.906980 0.730852 -0.270758
C30   C     C_3   0.159697 0.406690 0.269179 -0.270767
C31   C     C_3   0.746869 0.074556 0.811903 0.058798
C32   C     C_3   0.253007 0.574767 0.188176 0.059152
C33   C     C_3   0.810369 0.910395 0.813100 -0.121424
C34   C     C_3   0.189616 0.410393 0.186913 -0.121690
H11   H     H_    0.722567 0.059187 0.867532 0.192912
H12   H     H_    0.277450 0.559372 0.132626 0.192714
C35   C     C_3   0.684310 0.864270 0.690134 -0.150433
C36   C     C_3   0.315695 0.364348 0.309867 -0.150593
C37   C     C_3   0.767832 0.865807 0.658424 0.102229
C38   C     C_3   0.232160 0.364950 0.341549 0.102245
C39   C     C_3   0.677015 0.056487 0.737437 -0.122789
C40   C     C_3   0.322746 0.557010 0.262753 -0.122061
H13   H     H_    0.682924 0.176499 0.696561 0.094394
H14   H     H_    0.316500 0.676644 0.303699 0.094076
H15   H     H_    0.865192 0.049757 0.722536 0.125259
H16   H     H_    0.134945 0.549517 0.277660 0.125211
O11   O     O_R   0.087500 0.266000 0.085220 -0.531047
O12   O     O_R   0.912500 0.766000 0.914780 -0.531107
O13   O     O_R   0.921600 0.589950 0.070670 -0.530993
O14   O     O_R   0.078400 0.089950 0.929330 -0.530928
C41   C     C_R   0.894419 0.420201 0.085809 0.687669
C42   C     C_R   0.105578 0.920198 0.914186 0.687943
O15   O     O_R   0.087460 0.596020 0.094710 -0.557351
O16   O     O_R   0.912540 0.096020 0.905290 -0.557365
O17   O     O_R   0.079520 0.760970 0.939020 -0.540877
O18   O     O_R   0.920480 0.260970 0.060980 -0.540906
C43   C     C_R   0.117753 0.427018 0.116212 0.741736
C44   C     C_R   0.882232 0.927029 0.883802 0.741772
O19   O     O_3   0.997180 0.425140 0.948910 -0.375398
O20   O     O_3   0.002820 0.925140 0.051090 -0.375423
V3    V     V_3+5 0.000520 0.702080 0.009480 1.466322
V4    V     V_3+5 0.999480 0.202080 0.990520 1.466413
C45   C     C_2   0.116473 0.180976 0.779505 0.442318
H17   H     H_    0.052803 0.165276 0.780328 0.073489
O21   O     O_2   0.142833 0.338877 0.769176 -0.521986
C46   C     C_2   0.883544 0.680904 0.220503 0.442185
H18   H     H_    0.947213 0.665160 0.219678 0.073480
O22   O     O_2   0.857201 0.838819 0.230841 -0.522033
C47   C     C_2   0.912449 0.776168 0.732203 0.457096
H19   H     H_    0.909825 0.627046 0.747799 0.042660
O23   O     O_2   0.974973 0.837810 0.716013 -0.533452
C48   C     C_2   0.087493 0.276081 0.267751 0.457174
H20   H     H_    0.090012 0.127070 0.251950 0.042938
O24   O     O_2   0.025042 0.337762 0.284098 -0.533428
N1    N     N_3   0.780763 0.683153 0.619117 -0.615202
H21   H     H_    0.731466 0.649058 0.574452 0.240529
H22   H     H_    0.789898 0.569756 0.659369 0.192693
N2    N     N_3   0.219316 0.181672 0.380427 -0.615518
H23   H     H_    0.268610 0.147229 0.425042 0.240667
H24   H     H_    0.210248 0.068812 0.339908 0.192813
N3    N     N_3   0.780077 0.267203 0.813861 -0.724668
H25   H     H_    0.804714 0.306762 0.872443 0.239811
H26   H     H_    0.823629 0.282586 0.778520 0.219697
N4    N     N_3   0.219650 0.767298 0.186089 -0.724401
H27   H     H_    0.195432 0.806947 0.127410 0.239647
H28   H     H_    0.175656 0.782271 0.220948 0.220065
C49   C     C_2   0.593940 0.088775 0.758204 0.426538
H29   H     H_    0.540968 0.091159 0.711038 0.054452
O25   O     O_2   0.584580 0.115918 0.826797 -0.515822
C50   C     C_2   0.405821 0.590483 0.242152 0.425844
H30   H     H_    0.458739 0.593205 0.289369 0.055131
O26   O     O_2   0.415232 0.618273 0.173617 -0.516031
C51   C     C_2   0.767587 0.023165 0.596113 0.488756
H31   H     H_    0.770059 0.171648 0.613885 -0.009842
O27   O     O_2   0.765764 0.986172 0.525567 -0.521141
C52   C     C_2   0.232279 0.521415 0.404211 0.488416
H32   H     H_    0.229859 0.670137 0.386800 -0.009251
O28   O     O_2   0.233943 0.483415 0.474641 -0.521257
C53   C     C_2   0.234449 0.630629 0.954112 0.462642
H33   H     H_    0.217196 0.690494 0.006870 -0.000527
O29   O     O_2   0.263009 0.470565 0.958016 -0.525736
C54   C     C_2   0.765465 0.130901 0.045791 0.462689
H34   H     H_    0.782791 0.190822 0.993078 -0.000552
O30   O     O_2   0.736770 0.970968 0.041786 -0.525615
N5    N     N_3   0.370341 0.575763 0.714960 -0.661287
H35   H     H_    0.353487 0.486765 0.665366 0.266744
H36   H     H_    0.431441 0.607719 0.721798 0.227832
N6    N     N_3   0.629701 0.075669 0.285067 -0.661239
H37   H     H_    0.646602 0.986710 0.334670 0.266754
H38   H     H_    0.568592 0.107516 0.278255 0.227727
N7    N     N_3   0.746508 0.692735 0.901397 -0.623727
H39   H     H_    0.729529 0.551843 0.908517 0.237023
H40   H     H_    0.698715 0.778185 0.910755 0.306752
N8    N     N_3   0.253437 0.192787 0.098523 -0.623829
H41   H     H_    0.270683 0.052043 0.091522 0.237075
H42   H     H_    0.301028 0.278665 0.088978 0.306513
N9    N     N_3   0.611989 0.686712 0.784536 -0.627972
H43   H     H_    0.610412 0.555267 0.813075 0.260080
H44   H     H_    0.562606 0.684304 0.737496 0.211584
N10   N     N_3   0.388194 0.188553 0.215165 -0.627740
H45   H     H_    0.390080 0.057249 0.186598 0.260168
H46   H     H_    0.437642 0.186782 0.262148 0.211261

loop_
_geom_bond_atom_site_label_1
_geom_bond_atom_site_label_2
_ccdc_geom_bond_type
C26   N8    S    
C39   H13   S    
O4    V2    S    
C19   C45   S    
C15   C17   A    
C12   H6    S    
N6    H38   S    
O1    C3    A    
O2    C4    A    
O16   V4    S    
C2    O7    A    
C50   O26   D    
N1    H21   S    
C27   H9    S    
C45   H17   S    
O5    C3    A    
C34   C43   S    
C8    C14   A    
C49   O25   D    
C40   C50   S    
N4    H27   S    
O17   V3    S    
C51   H31   S    
C20   C46   S    
C36   C38   S    
C25   N7    S    
C52   H32   S    
C29   C47   S    
C30   C34   S    
C8    C12   A    
C51   O27   D    
C42   O17   A    
C29   C37   S    
C37   C51   S    
C41   O18   A    
C30   C48   S    
C22   C24   A    
C14   N6    S    
C28   H10   S    
O6    V2    S    
C21   C53   S    
O15   C43   A    
C5    C21   A    
C50   H30   S    
N1    H22   S    
C26   H8    S    
C28   C36   S    
O13   V3    S    
C31   C33   S    
C32   C34   S    
C3    C8    S    
C35   C37   S    
C38   C52   S    
C32   N4    S    
C45   O21   D    
O12   C44   A    
C24   H4    S    
O14   C42   A    
C47   H19   S    
O13   C41   A    
C31   H11   S    
C7    C11   A    
C15   C23   A    
C9    C17   A    
C40   H14   S    
C39   C49   S    
C23   H3    S    
N5    H36   S    
O2    V1    S    
C47   O23   D    
C6    C22   A    
C26   C34   S    
O6    C4    A    
N2    H24   S    
C28   N10   S    
N3    H26   S    
O1    V2    S    
C29   H15   S    
N9    H44   S    
C48   O24   D    
O12   V3    S    
C25   H7    S    
C16   C24   A    
C53   H33   S    
O14   V4    S    
C38   N2    S    
N8    H42   S    
C46   O22   D    
C6    C41   S    
O20   V4    S    
C9    C11   A    
N7    H39   S    
C5    C19   A    
C10   C12   A    
O11   C43   A    
O4    C2    A    
C6    C20   A    
N5    H35   S    
O19   V4    S    
O3    V1    S    
C54   O30   D    
C32   H12   S    
C25   C33   S    
C22   C54   S    
C10   C18   A    
C1    C36   S    
O10   V1    S    
C14   C16   A    
C2    C35   S    
C37   N1    S    
O16   C44   A    
N8    H41   S    
O3    C1    A    
C30   H16   S    
O19   V3    S    
N9    H43   S    
C13   C15   A    
C35   C39   S    
C11   H5    S    
C36   C40   S    
C16   C18   A    
N6    H37   S    
C13   N5    S    
C1    O8    A    
C17   C19   A    
O11   V4    S    
O8    V2    S    
C49   H29   S    
C18   C20   A    
C33   C44   S    
C31   C39   S    
O15   V3    S    
C5    C42   S    
N4    H28   S    
C31   N3    S    
C4    C7    S    
O5    V1    S    
N2    H23   S    
C21   C23   A    
C29   C33   S    
O7    V1    S    
C48   H20   S    
C7    C13   A    
C52   O28   D    
C53   O29   D    
C27   C35   S    
O18   V4    S    
C9    H1    S    
C46   H18   S    
C32   C40   S    
O20   V3    S    
O9    V2    S    
C27   N9    S    
N3    H25   S    
N7    H40   S    
N10   H45   S    
C30   C38   S    
C25   C27   S    
N10   H46   S    
C26   C28   S    
C54   H34   S    
C10   H2    S    
