data_mof_unit_64036.cif
_audit_creation_date              2012-10-26T20:54:46-0400
_audit_creation_method            fapswitch 2.2
_symmetry_space_group_name_H-M    P1
_symmetry_Int_Tables_number       1
_space_group_crystal_system       triclinic
_cell_length_a                    17.792469
_cell_length_b                    16.57837
_cell_length_c                    19.419826
_cell_angle_alpha                 90.619328
_cell_angle_beta                  94.165162
_cell_angle_gamma                 90.454257
_cell_volume                      5712.58751669

loop_
_atom_site_label
_atom_site_type_symbol
_atom_type_description
_atom_site_fract_x
_atom_site_fract_y
_atom_site_fract_z
_atom_type_partial_charge
C1    C     C_R   0.355346 0.499663 0.502074 0.594169
C2    C     C_R   0.452351 0.168489 0.453282 -0.046532
C3    C     C_R   0.452616 0.828486 0.450933 -0.014833
C4    C     C_R   0.546218 0.171430 0.549839 -0.015257
C5    C     C_R   0.545860 0.745593 0.547591 0.134979
C6    C     C_R   0.455174 0.254478 0.451549 0.133651
C7    C     C_R   0.452743 0.742220 0.453078 0.136740
C8    C     C_R   0.546373 0.257696 0.547591 0.136871
C9    C     C_R   0.501249 0.873571 0.497638 -0.051786
C10   C     C_R   0.499146 0.126395 0.501800 -0.050569
C11   C     C_1   0.500393 0.963030 0.498729 -0.037690
C12   C     C_R   0.644667 0.500340 0.497997 0.594766
C13   C     C_1   0.499994 0.036933 0.500637 -0.036712
C14   C     C_R   0.507743 0.499727 0.367932 0.516718
C15   C     C_R   0.492274 0.500295 0.632075 0.517305
C16   C     C_R   0.525476 0.573279 0.255765 -0.004652
C17   C     C_R   0.473294 0.426785 0.744015 -0.005144
C18   C     C_R   0.476106 0.574396 0.745950 0.005649
C19   C     C_R   0.525161 0.425665 0.254309 0.005230
C20   C     C_R   0.518155 0.572190 0.183459 -0.073533
C21   C     C_R   0.480606 0.427512 0.816343 -0.073301
C22   C     C_R   0.483364 0.572719 0.818268 -0.071945
C23   C     C_R   0.727768 0.501310 0.493497 0.022576
C24   C     C_R   0.517817 0.426966 0.181966 -0.071814
C25   C     C_R   0.512229 0.499579 0.146276 -0.025370
C26   C     C_R   0.487712 0.499912 0.853740 -0.025409
C27   C     C_R   0.520566 0.499410 0.292404 -0.062150
C28   C     C_R   0.479452 0.500671 0.707610 -0.062452
C29   C     C_R   0.494275 0.499716 0.929947 0.346773
C30   C     C_R   0.505633 0.499599 0.070069 0.346770
C31   C     C_R   0.848271 0.573363 0.503637 -0.101170
C32   C     C_R   0.151610 0.427035 0.496197 -0.101659
C33   C     C_R   0.154737 0.570512 0.519031 -0.096019
C34   C     C_R   0.272278 0.498730 0.506779 0.022410
C35   C     C_R   0.845533 0.429602 0.482235 -0.096671
C36   C     C_R   0.769542 0.574608 0.501590 0.236034
C37   C     C_R   0.230334 0.425607 0.498116 0.235770
C38   C     C_R   0.233624 0.570691 0.521645 0.247085
C39   C     C_R   0.766624 0.429220 0.479446 0.246545
C40   C     C_2   0.545990 0.651629 0.290384 0.209505
C41   C     C_2   0.451446 0.348971 0.709078 0.209031
C42   C     C_2   0.457303 0.653169 0.713376 0.207996
C43   C     C_2   0.545461 0.347476 0.287240 0.206210
C44   C     C_3   0.731329 0.691099 0.450286 -0.062412
C45   C     C_R   0.885859 0.501167 0.494747 -0.054730
C46   C     C_3   0.267822 0.308104 0.548132 -0.062194
C47   C     C_3   0.271307 0.660460 0.606659 -0.090308
C48   C     C_3   0.730438 0.337041 0.395792 -0.089994
C49   C     C_2   0.604593 0.878269 0.591735 0.227254
C50   C     C_2   0.399879 0.121634 0.404260 0.227804
C51   C     C_2   0.404569 0.872636 0.398064 0.259475
C52   C     C_2   0.592415 0.127228 0.604003 0.256171
C53   C     C_2   0.584147 0.708206 0.609588 0.360874
C54   C     C_2   0.416810 0.292345 0.389841 0.360254
C55   C     C_2   0.401059 0.697062 0.403620 0.381760
C56   C     C_R   0.114215 0.499193 0.505852 -0.054862
C57   C     C_2   0.597516 0.302725 0.597575 0.383325
C58   C     C_1   0.966280 0.500537 0.498637 0.006295
C59   C     C_1   0.033799 0.499996 0.502044 0.006293
C60   C     C_R   0.549515 0.831517 0.545014 -0.048371
Cu1   Cu    Cu3+1 0.500000 0.580420 0.500000 1.026534
Cu2   Cu    Cu3+1 0.500000 0.419580 0.500000 1.027202
H1    H     H_    0.519849 0.628565 0.155884 0.196471
H2    H     H_    0.419261 0.347959 0.659539 0.117869
H3    H     H_    0.429307 0.656046 0.662192 0.123293
H4    H     H_    0.573247 0.345462 0.338558 0.123523
H5    H     H_    0.704193 0.655373 0.406224 0.082270
H6    H     H_    0.788499 0.711665 0.438212 0.119560
H7    H     H_    0.696589 0.745541 0.456924 0.172382
H8    H     H_    0.210521 0.287160 0.559432 0.119702
H9    H     H_    0.294460 0.343114 0.592848 0.082810
H10   H     H_    0.302736 0.253878 0.541104 0.172540
H11   H     H_    0.294795 0.610232 0.639007 0.081176
H12   H     H_    0.477936 0.371111 0.843767 0.196446
H13   H     H_    0.213452 0.675158 0.620682 0.124405
H14   H     H_    0.307072 0.714663 0.618451 0.164059
H15   H     H_    0.788408 0.320581 0.383342 0.125095
H16   H     H_    0.708687 0.386768 0.361938 0.081910
H17   H     H_    0.693874 0.283348 0.384384 0.164387
H18   H     H_    0.590726 0.937821 0.609846 0.123950
H19   H     H_    0.416536 0.063803 0.384423 0.121690
H20   H     H_    0.425804 0.927267 0.376134 0.108758
H21   H     H_    0.570296 0.072551 0.625194 0.109068
H22   H     H_    0.577284 0.735239 0.659778 0.137660
H23   H     H_    0.482988 0.628853 0.847310 0.198445
H24   H     H_    0.424646 0.266677 0.339336 0.137007
H25   H     H_    0.419611 0.677130 0.354565 0.124815
H26   H     H_    0.578709 0.321439 0.646879 0.125092
H27   H     H_    0.519162 0.370790 0.153083 0.198225
H28   H     H_    0.880014 0.629002 0.512857 0.149668
H29   H     H_    0.119713 0.371581 0.486473 0.149079
H30   H     H_    0.125182 0.626364 0.527112 0.147737
H31   H     H_    0.875283 0.373713 0.474879 0.146781
H32   H     H_    0.578610 0.653491 0.339700 0.117909
N1    N     N_R   0.501846 0.429199 0.033588 -0.205544
N2    N     N_R   0.498064 0.570095 0.966438 -0.205953
N3    N     N_R   0.496292 0.429250 0.964928 -0.205085
N4    N     N_R   0.503606 0.570045 0.035078 -0.205539
N5    N     N_R   0.500000 0.701220 0.500000 -0.286527
N6    N     N_R   0.500000 0.298780 0.500000 -0.285817
O1    O     O_R   0.391260 0.567930 0.500000 -0.447673
O2    O     O_2   0.467296 0.284625 0.736303 -0.501663
O3    O     O_2   0.470127 0.716629 0.744768 -0.511384
O4    O     O_2   0.534089 0.283638 0.256060 -0.511977
O5    O     O_3   0.734317 0.647179 0.512190 -0.484750
O6    O     O_3   0.265399 0.353112 0.486821 -0.485076
O7    O     O_3   0.272488 0.642231 0.535660 -0.492609
O8    O     O_3   0.727895 0.357412 0.466268 -0.493022
O9    O     O_2   0.666957 0.851662 0.608629 -0.454680
O10   O     O_2   0.336829 0.146263 0.387172 -0.454292
O11   O     O_2   0.340824 0.849862 0.379552 -0.424479
O12   O     O_R   0.608740 0.432070 0.500000 -0.446537
O13   O     O_2   0.655570 0.150056 0.624501 -0.427572
O14   O     O_2   0.628370 0.653088 0.606222 -0.397585
O15   O     O_2   0.371516 0.346363 0.393742 -0.397477
O16   O     O_2   0.335232 0.687006 0.415257 -0.394620
O17   O     O_2   0.663268 0.313763 0.586146 -0.395465
O18   O     O_R   0.608740 0.567930 0.500000 -0.432923
O19   O     O_R   0.391260 0.432070 0.500000 -0.433357
O20   O     O_R   0.499990 0.567930 0.400140 -0.554524
O21   O     O_R   0.500010 0.432070 0.599860 -0.553814
O22   O     O_R   0.500010 0.567930 0.599860 -0.499708
O23   O     O_R   0.499990 0.432070 0.400140 -0.500732
O24   O     O_2   0.528545 0.715520 0.263107 -0.501883

loop_
_geom_bond_atom_site_label_1
_geom_bond_atom_site_label_2
_ccdc_geom_bond_type
C21   C26   A    
C15   O22   A    
C34   C37   A    
Cu1   O1    S    
C7    C55   S    
C4    C8    A    
C24   H27   S    
Cu1   N5    S    
C44   O5    S    
C12   C23   S    
C49   C60   S    
C7    N5    A    
C4    C52   S    
C53   H22   S    
C48   H17   S    
C5    C53   S    
C47   H14   S    
C3    C7    A    
C18   C42   S    
C32   H29   S    
C20   C25   A    
C50   O10   D    
C41   O2    D    
C1    O19   A    
C22   H23   S    
C48   H16   S    
C38   O7    S    
C43   O4    D    
C2    C50   S    
C5    N5    A    
N2    N4    A    
C42   H3    S    
C14   C27   S    
C19   C27   A    
C46   H10   S    
C16   C27   A    
C36   O5    S    
C34   C38   A    
C42   O3    D    
Cu1   O20   S    
C2    C6    A    
C6    C54   S    
Cu2   O23   S    
C19   C43   S    
C1    C34   S    
C35   H31   S    
C39   O8    S    
C40   O24   D    
C45   C58   S    
C18   C28   A    
C24   C25   A    
C47   H11   S    
C33   H30   S    
C54   H24   S    
C3    C51   S    
C58   C59   T    
C52   O13   D    
C21   H12   S    
C17   C21   A    
Cu1   O22   S    
C6    N6    A    
C48   H15   S    
C52   H21   S    
C35   C39   A    
C30   N1    A    
C3    C9    A    
C8    C57   S    
C16   C20   A    
C31   H28   S    
C54   O15   D    
C46   H9    S    
C44   H7    S    
C32   C37   A    
C9    C11   S    
C51   H20   S    
Cu2   O19   S    
C16   C40   S    
Cu2   N6    S    
C47   O7    S    
C22   C26   A    
C12   O18   A    
C44   H6    S    
C4    C10   A    
C35   C45   A    
C1    O1    A    
C12   O12   A    
C53   O14   D    
C57   H26   S    
C57   O17   D    
C25   C30   S    
C51   O11   D    
C14   O23   A    
C15   O21   A    
C5    C60   A    
Cu1   O18   S    
C18   C22   A    
C17   C28   A    
C40   H32   S    
C10   C13   S    
C29   N2    A    
N1    N3    A    
C31   C45   A    
C30   N4    A    
C14   O20   A    
C33   C38   A    
C56   C59   S    
C29   N3    A    
C9    C60   A    
C20   H1    S    
C19   C24   A    
C8    N6    A    
C49   O9    D    
C47   H13   S    
C37   O6    S    
C11   C13   T    
C15   C28   S    
C48   O8    S    
C33   C56   A    
C43   H4    S    
C23   C39   A    
C46   O6    S    
C55   H25   S    
Cu1   Cu2   S    
C17   C41   S    
C46   H8    S    
Cu2   O12   S    
C26   C29   S    
C23   C36   A    
C55   O16   D    
C49   H18   S    
C31   C36   A    
C44   H5    S    
C41   H2    S    
C32   C56   A    
Cu2   O21   S    
C50   H19   S    
C2    C10   A    
