data_mof_unit_13698.cif
_audit_creation_date              2012-12-11T15:37:08-0500
_audit_creation_method            fapswitch 2.2
_symmetry_space_group_name_H-M    P1
_symmetry_Int_Tables_number       1
_space_group_crystal_system       triclinic
_cell_length_a                    15.053187
_cell_length_b                    15.071657
_cell_length_c                    34.820053
_cell_angle_alpha                 91.380581
_cell_angle_beta                  91.784603
_cell_angle_gamma                 60.094927
_cell_volume                      6844.35012009

loop_
_atom_site_label
_atom_site_type_symbol
_atom_type_description
_atom_site_fract_x
_atom_site_fract_y
_atom_site_fract_z
_atom_type_partial_charge
C1    C     C_R   0.610928 0.302216 0.444096 0.548604
C2    C     C_R   0.593601 0.108839 0.764589 -0.104530
C3    C     C_R   0.097132 0.764619 0.887231 -0.119698
C4    C     C_R   0.128320 0.752072 0.849365 -0.112264
C5    C     C_R   0.131545 0.672423 0.826689 0.028551
C6    C     C_R   0.110670 0.600929 0.843227 -0.118100
C7    C     C_R   0.079967 0.613137 0.881191 -0.120476
C8    C     C_R   0.207740 0.575773 0.766249 -0.114943
C9    C     C_R   0.216178 0.572631 0.726531 -0.114069
C10   C     C_R   0.164178 0.663027 0.705174 0.027259
C11   C     C_R   0.104739 0.756815 0.724019 -0.108034
C12   C     C_R   0.095877 0.759936 0.763750 -0.104693
C13   C     C_R   0.593018 0.182441 0.790298 0.027556
C14   C     C_R   0.658764 0.769606 0.165610 -0.119838
C15   C     C_R   0.147060 0.669367 0.785125 0.030624
C16   C     C_R   0.204417 0.724246 0.646141 -0.113235
C17   C     C_R   0.235903 0.707129 0.608193 -0.116040
C18   C     C_R   0.202616 0.565357 0.603612 -0.113200
C19   C     C_R   0.171413 0.582394 0.641520 -0.116608
C20   C     C_R   0.176604 0.658887 0.663468 0.024128
C21   C     C_R   0.239986 0.624322 0.587291 0.014604
C22   C     C_R   0.670773 0.082783 0.906550 0.025333
C23   C     C_R   0.587653 0.079690 0.887507 0.231435
C24   C     C_R   0.554727 0.192013 0.641775 -0.078004
C25   C     C_R   0.558376 0.117926 0.850257 -0.075432
C26   C     C_R   0.830124 0.623399 0.161593 -0.121758
C27   C     C_R   0.558526 0.210854 0.602897 0.231989
C28   C     C_R   0.684029 0.263298 0.618865 -0.161162
C29   C     C_R   0.679571 0.244583 0.657440 -0.135717
C30   C     C_R   0.611893 0.212830 0.669393 -0.014680
C31   C     C_R   0.620212 0.251520 0.591358 0.032715
C32   C     C_R   0.044822 0.739480 0.048832 0.541059
C33   C     C_R   0.746380 0.691188 0.183784 0.030857
C34   C     C_R   0.747636 0.747086 0.064246 0.538858
C35   C     C_R   0.751694 0.039702 0.050915 0.537074
C36   C     C_R   0.017455 0.722236 0.939887 0.547127
C37   C     C_R   0.717102 0.729765 0.954996 0.549397
C38   C     C_R   0.828238 0.637326 0.122000 -0.125884
C39   C     C_R   0.720998 0.024676 0.942003 0.563703
C40   C     C_R   0.780165 0.585592 0.242237 -0.117465
C41   C     C_R   0.770626 0.578335 0.281577 -0.115930
C42   C     C_R   0.730686 0.666281 0.305194 0.027392
C43   C     C_R   0.706004 0.760582 0.289081 -0.096015
C44   C     C_R   0.609172 0.160903 0.831783 -0.016275
C45   C     C_R   0.715045 0.767876 0.249708 -0.102808
C46   C     C_R   0.749292 0.680950 0.225856 0.022901
C47   C     C_R   0.608734 0.735662 0.359406 -0.113715
C48   C     C_R   0.593480 0.610168 0.449416 0.544680
C49   C     C_R   0.575002 0.722091 0.394468 -0.117569
C50   C     C_R   0.734052 0.562091 0.403047 -0.123547
C51   C     C_R   0.767875 0.575848 0.368035 -0.115580
C52   C     C_R   0.704078 0.660987 0.345271 0.034960
C53   C     C_R   0.635851 0.633385 0.415959 0.022957
C54   C     C_R   0.097858 0.730890 0.086102 0.022673
C55   C     C_R   0.684772 0.172396 0.851962 -0.133291
C56   C     C_R   0.139981 0.638585 0.106367 -0.123167
C57   C     C_R   0.157954 0.637336 0.145855 -0.123370
C58   C     C_R   0.135660 0.727883 0.165684 0.029209
C59   C     C_R   0.104326 0.817848 0.145017 -0.119598
C60   C     C_R   0.303422 0.591699 0.442482 0.535929
C61   C     C_R   0.085457 0.819405 0.105381 -0.126968
C62   C     C_R   0.192734 0.765962 0.229058 -0.110598
C63   C     C_R   0.200623 0.757808 0.269054 -0.102581
C64   C     C_R   0.151540 0.713938 0.288550 0.052833
C65   C     C_R   0.090416 0.683116 0.267405 -0.079307
C66   C     C_R   0.715147 0.133846 0.888855 -0.161702
C67   C     C_R   0.083604 0.690163 0.227485 -0.105341
C68   C     C_R   0.136809 0.729186 0.207995 0.025536
C69   C     C_R   0.191070 0.596091 0.343834 -0.119537
C70   C     C_R   0.227036 0.566577 0.381389 -0.122453
C71   C     C_R   0.221375 0.728412 0.392908 -0.123153
C72   C     C_R   0.605811 0.300057 0.553632 0.573282
C73   C     C_R   0.184858 0.758154 0.355376 -0.098797
C74   C     C_R   0.172766 0.690830 0.330046 0.044071
C75   C     C_R   0.246123 0.630899 0.405849 0.020591
C76   C     C_R   0.727933 0.092527 0.088418 0.025280
C77   C     C_R   0.589873 0.270029 0.775827 -0.113448
C78   C     C_R   0.807364 0.089929 0.111526 -0.123408
C79   C     C_R   0.793646 0.111052 0.150782 -0.121760
C80   C     C_R   0.699818 0.136915 0.167288 0.031683
C81   C     C_R   0.617580 0.148724 0.143627 -0.116448
C82   C     C_R   0.631675 0.126186 0.104475 -0.123911
C83   C     C_R   0.604691 0.225709 0.226332 -0.133046
C84   C     C_R   0.587194 0.606456 0.559360 0.564879
C85   C     C_R   0.595533 0.231360 0.266092 -0.161113
C86   C     C_R   0.671096 0.154671 0.289551 0.032987
C87   C     C_R   0.755463 0.070093 0.272458 0.236166
C88   C     C_R   0.592794 0.281201 0.736378 -0.113095
C89   C     C_R   0.764639 0.065397 0.232555 -0.084444
C90   C     C_R   0.690069 0.143614 0.209341 -0.014121
C91   C     C_R   0.742851 0.175226 0.352193 -0.072121
C92   C     C_R   0.728290 0.211028 0.390022 -0.123089
C93   C     C_R   0.557583 0.232363 0.387757 -0.124695
C94   C     C_R   0.572426 0.196160 0.349905 -0.120358
C95   C     C_R   0.663945 0.170415 0.331520 0.067883
C96   C     C_R   0.298047 0.589191 0.551726 0.538142
C97   C     C_R   0.633975 0.243871 0.407644 0.021382
C98   C     C_R   0.691338 0.688248 0.920221 -0.025578
C99   C     C_R   0.599240 0.204812 0.710765 0.028484
C100  C     C_R   0.765620 0.595530 0.903821 -0.143988
C101  C     C_R   0.753008 0.569696 0.866128 -0.168072
C102  C     C_R   0.666312 0.636115 0.844012 0.028312
C103  C     C_R   0.587477 0.725210 0.861479 0.247566
C104  C     C_R   0.599843 0.749458 0.899531 -0.062057
C105  C     C_R   0.582326 0.620325 0.782824 -0.066123
C106  C     C_R   0.578038 0.617746 0.742740 -0.108258
C107  C     C_R   0.659037 0.610660 0.721449 0.024040
C108  C     C_R   0.742239 0.718937 0.104032 0.021694
C109  C     C_R   0.746019 0.602287 0.740580 -0.107677
C110  C     C_R   0.596643 0.119970 0.725086 -0.106510
C111  C     C_R   0.749436 0.606924 0.780635 -0.108850
C112  C     C_R   0.666452 0.618676 0.802036 0.054377
C113  C     C_R   0.719697 0.535780 0.656443 -0.141727
C114  C     C_R   0.703312 0.537419 0.616740 -0.166412
C115  C     C_R   0.552796 0.706627 0.622227 0.233040
C116  C     C_R   0.569026 0.703114 0.662005 -0.077474
C117  C     C_R   0.650081 0.616750 0.679332 -0.017007
C118  C     C_R   0.617283 0.620460 0.599129 0.029430
C119  C     C_R   0.069157 0.697387 0.902961 0.022544
C120  C     C_R   0.656496 0.783148 0.126116 -0.121958
Cl1   Cl    Cl    0.849078 0.967235 0.299810 -0.645304
Cl2   Cl    Cl    0.478369 0.816081 0.835641 -0.596042
Cl3   Cl    Cl    0.448378 0.819834 0.603760 -0.571214
Cl4   Cl    Cl    0.520830 0.024199 0.907381 -0.577914
Cl5   Cl    Cl    0.483026 0.184461 0.570051 -0.560133
Cr1   Cr    Cr6+3 0.426010 0.422500 0.497000 1.080601
Cr2   Cr    Cr6+3 0.651300 0.426310 0.501970 1.018984
Cr3   Cr    Cr6+3 0.422670 0.651170 0.501050 1.066223
Cr4   Cr    Cr6+3 0.905130 0.911420 0.992650 1.017891
Cr5   Cr    Cr6+3 0.911860 0.682710 0.002320 1.016563
Cr6   Cr    Cr6+3 0.682710 0.906840 0.004710 1.074450
H1    H     H_    0.589084 0.846712 0.113196 0.131725
H2    H     H_    0.895807 0.587042 0.105819 0.127629
H3    H     H_    0.037992 0.663599 0.211684 0.110616
H4    H     H_    0.183610 0.541932 0.324951 0.097545
H5    H     H_    0.245535 0.490914 0.390461 0.129627
H6    H     H_    0.087366 0.888350 0.159882 0.105531
H7    H     H_    0.234434 0.780092 0.411223 0.129388
H8    H     H_    0.882498 0.063764 0.099971 0.121738
H9    H     H_    0.569265 0.128717 0.087265 0.121935
H10   H     H_    0.510576 0.193170 0.334290 0.106214
H11   H     H_    0.530677 0.297473 0.278690 0.114030
H12   H     H_    0.499064 0.778453 0.403692 0.134842
H13   H     H_    0.546232 0.286539 0.208877 0.116949
H14   H     H_    0.842398 0.518010 0.358086 0.106349
H15   H     H_    0.829336 0.999887 0.219579 0.143675
H16   H     H_    0.788698 0.218810 0.404595 0.133412
H17   H     H_    0.544513 0.168729 0.155823 0.105280
H18   H     H_    0.484183 0.256854 0.400591 0.132524
H19   H     H_    0.836683 0.546136 0.919152 0.138675
H20   H     H_    0.541061 0.820665 0.911784 0.211206
H21   H     H_    0.789003 0.504856 0.293082 0.104919
H22   H     H_    0.518761 0.626715 0.798795 0.148828
H23   H     H_    0.898381 0.562192 0.175087 0.100667
H24   H     H_    0.814028 0.500605 0.853397 0.115758
H25   H     H_    0.809179 0.596508 0.724495 0.116369
H26   H     H_    0.783560 0.469000 0.669490 0.120067
H27   H     H_    0.090715 0.829465 0.903638 0.132472
H28   H     H_    0.806463 0.517698 0.224333 0.106603
H29   H     H_    0.058730 0.560285 0.892656 0.132786
H30   H     H_    0.148123 0.532570 0.654319 0.116325
H31   H     H_    0.264485 0.499742 0.712507 0.115665
H32   H     H_    0.248704 0.505235 0.782222 0.112021
H33   H     H_    0.146244 0.806788 0.837353 0.127473
H34   H     H_    0.783204 0.493457 0.419204 0.128693
H35   H     H_    0.064119 0.827213 0.707943 0.113777
H36   H     H_    0.047024 0.832816 0.777657 0.111790
H37   H     H_    0.208825 0.783760 0.662698 0.129074
H38   H     H_    0.263920 0.754047 0.596256 0.174807
H39   H     H_    0.112069 0.539191 0.826187 0.108977
H40   H     H_    0.592394 0.821378 0.182101 0.104890
H41   H     H_    0.203677 0.501849 0.587973 0.152715
H42   H     H_    0.777492 0.139582 0.902764 0.141001
H43   H     H_    0.726748 0.258220 0.678161 0.120626
H44   H     H_    0.592026 0.348683 0.725893 0.108971
H45   H     H_    0.053022 0.891704 0.090578 0.123309
H46   H     H_    0.588206 0.328302 0.795109 0.108030
H47   H     H_    0.498174 0.110813 0.835139 0.159752
H48   H     H_    0.601737 0.060056 0.705896 0.123120
H49   H     H_    0.597492 0.039908 0.775105 0.130783
H50   H     H_    0.503635 0.165429 0.650559 0.151025
H51   H     H_    0.676779 0.829169 0.306741 0.132062
H52   H     H_    0.725353 0.205151 0.838300 0.120697
H53   H     H_    0.732522 0.293917 0.611080 0.138124
H54   H     H_    0.692907 0.841904 0.237697 0.122750
H55   H     H_    0.557400 0.801574 0.342315 0.103833
H56   H     H_    0.169456 0.832407 0.345767 0.120207
H57   H     H_    0.151296 0.568910 0.092313 0.127371
H58   H     H_    0.184301 0.566660 0.161292 0.102904
H59   H     H_    0.857562 0.103021 0.168553 0.106456
H60   H     H_    0.813268 0.157627 0.338303 0.146965
H61   H     H_    0.516916 0.767360 0.679666 0.158154
H62   H     H_    0.510977 0.622692 0.728259 0.115889
H63   H     H_    0.815191 0.605388 0.794886 0.112028
H64   H     H_    0.755031 0.470553 0.600156 0.137517
H65   H     H_    0.249248 0.781192 0.284477 0.098830
H66   H     H_    0.233912 0.796646 0.214461 0.104930
H67   H     H_    0.049914 0.651171 0.281656 0.119176
O1    O     O_R   0.324990 0.503440 0.453910 -0.517608
O2    O     O_R   0.675430 0.831160 0.051290 -0.517949
O3    O     O_R   0.698870 0.998880 0.039560 -0.501071
O4    O     O_R   0.522030 0.339050 0.458320 -0.494231
O5    O     O_R   0.811290 0.006780 0.950620 -0.528701
O6    O     O_R   0.980960 0.812920 0.953200 -0.499924
O7    O     O_R   0.001480 0.656720 0.955830 -0.516744
O8    O     O_R   0.809240 0.683250 0.968050 -0.503702
O9    O     O_R   0.652500 0.818540 0.967340 -0.476370
O10   O     O_R   0.677620 0.987170 0.961730 -0.435776
O11   O     O_3   0.833240 0.833660 0.999890 -0.247199
O12   O     O_R   0.639980 0.519500 0.542640 -0.519129
O13   O     O_R   0.676180 0.324490 0.458320 -0.517846
O14   O     O_R   0.643570 0.521510 0.464260 -0.504435
O15   O     O_R   0.504630 0.675350 0.460920 -0.509740
O16   O     O_R   0.339850 0.642450 0.459830 -0.504177
O17   O     O_R   0.321120 0.501280 0.538470 -0.498459
O18   O     O_R   0.518440 0.337050 0.536710 -0.438779
O19   O     O_R   0.672300 0.322330 0.542880 -0.528773
O20   O     O_R   0.500750 0.673190 0.545480 -0.437631
O21   O     O_R   0.336260 0.640450 0.538210 -0.497874
O22   O     O_3   0.499990 0.499990 0.500010 -0.260394
O23   O     O_R   0.834210 0.019400 0.034570 -0.522044
O24   O     O_R   0.002210 0.824620 0.031030 -0.502554
O25   O     O_R   0.024400 0.669340 0.039790 -0.518326
O26   O     O_R   0.830490 0.694950 0.045870 -0.504642

loop_
_geom_bond_atom_site_label_1
_geom_bond_atom_site_label_2
_ccdc_geom_bond_type
Cr1   O1    S    
C105  H22   S    
C55   H52   S    
C93   C94   A    
C39   O5    A    
C1    O13   A    
C18   C21   A    
C37   O9    A    
C37   O8    A    
C108  C120  A    
C40   H28   S    
C93   H18   S    
C111  C112  A    
C24   C27   A    
C29   H43   S    
Cr6   O9    S    
C78   H8    S    
C32   O25   A    
C14   C33   A    
C81   C82   A    
C47   C49   A    
C41   H21   S    
C85   C86   A    
Cr1   O4    S    
C40   C46   A    
C72   O19   A    
Cr2   O19   S    
C101  C102  A    
C96   O17   A    
C104  H20   S    
C28   C29   A    
C76   C78   A    
C35   O23   A    
C19   H30   S    
C5    C6    A    
C84   O12   A    
Cr5   O25   S    
C106  C107  A    
C51   H14   S    
C115  C116  A    
C23   Cl4   S    
C116  C117  A    
C18   C19   A    
C41   C42   A    
C38   H2    S    
C88   H44   S    
C2    C13   A    
C109  H25   S    
C60   O16   A    
C22   C66   A    
C82   H9    S    
Cr2   O12   S    
C60   O1    A    
Cr4   O6    S    
C102  C112  S    
C94   C95   A    
C6    C7    A    
C56   H57   S    
C77   C88   A    
C10   C20   S    
C8    C9    A    
C65   C67   A    
C79   H59   S    
Cr6   O11   S    
C11   H35   S    
C4    H33   S    
C66   H42   S    
C31   C72   S    
C106  H62   S    
C29   C30   A    
C9    C10   A    
Cr3   O22   S    
Cr3   O15   S    
C81   H17   S    
C116  H61   S    
C69   H4    S    
C92   H16   S    
C70   H5    S    
C33   C46   S    
C107  C109  A    
C102  C103  A    
C61   H45   S    
C2    H49   S    
C12   H36   S    
Cr6   O10   S    
C25   C44   A    
C32   C54   S    
C37   C98   S    
C73   H56   S    
Cr1   O22   S    
Cr2   O22   S    
C54   C61   A    
C71   H7    S    
C13   C77   A    
C22   C23   A    
C73   C74   A    
C48   C53   S    
C54   C56   A    
C35   C76   S    
C59   C61   A    
C50   C53   A    
C115  Cl3   S    
C114  H64   S    
C63   C64   A    
C27   C31   A    
C51   C52   A    
C48   O14   A    
C67   H3    S    
Cr4   O23   S    
Cr1   O17   S    
C76   C82   A    
C91   C92   A    
C87   Cl1   S    
C78   C79   A    
C16   C17   A    
C7    H29   S    
C100  H19   S    
C58   C59   A    
C45   C46   A    
C99   C110  A    
C91   H60   S    
C30   C99   S    
C77   H46   S    
C67   C68   A    
C59   H6    S    
C57   H58   S    
C62   C63   A    
Cr5   O8    S    
C7    C119  A    
C3    H27   S    
C26   C33   A    
C98   C104  A    
Cr4   O24   S    
C12   C15   A    
C16   C20   A    
C115  C118  A    
C39   O10   A    
C50   H34   S    
C50   C51   A    
C69   C74   A    
C14   H40   S    
C47   H55   S    
C89   H15   S    
C43   C45   A    
Cr3   O21   S    
C114  C118  A    
C3    C119  A    
C9    H31   S    
C113  C117  A    
C58   C68   S    
C40   C41   A    
C72   O18   A    
C105  C112  A    
C8    C15   A    
C98   C100  A    
C10   C11   A    
C87   C89   A    
C25   H47   S    
C26   H23   S    
C42   C43   A    
C1    O4    A    
C1    C97   S    
C3    C4    A    
C93   C97   A    
C103  C104  A    
C55   C66   A    
C86   C87   A    
C71   C73   A    
C113  C114  A    
C6    H39   S    
Cr2   O13   S    
C56   C57   A    
C83   C90   A    
C48   O15   A    
C2    C110  A    
C64   C74   S    
C60   C75   S    
C83   C85   A    
C24   H50   S    
C120  H1    S    
C94   H10   S    
Cr3   O20   S    
C28   C31   A    
C35   O3    A    
C65   H67   S    
C62   H66   S    
C80   C81   A    
C8    H32   S    
C85   H11   S    
C32   O24   A    
C11   C12   A    
C47   C52   A    
C84   O20   A    
C21   C96   S    
C18   H41   S    
C36   C119  S    
C96   O21   A    
C105  C106  A    
C43   H51   S    
C14   C120  A    
C62   C68   A    
Cr1   O18   S    
C26   C38   A    
C64   C65   A    
C34   O26   A    
C19   C20   A    
C109  C111  A    
Cr6   O2    S    
C28   H53   S    
C34   C108  S    
Cr5   O7    S    
C71   C75   A    
C27   Cl5   S    
C44   C55   A    
C45   H54   S    
C57   C58   A    
C83   H13   S    
C110  H48   S    
C16   H37   S    
C49   C53   A    
C22   C39   S    
C49   H12   S    
Cr5   O26   S    
C100  C101  A    
C17   H38   S    
C36   O7    A    
C23   C25   A    
C38   C108  A    
C69   C70   A    
Cr6   O3    S    
C24   C30   A    
C5    C15   S    
C88   C99   A    
C86   C95   S    
C111  H63   S    
C91   C95   A    
C79   C80   A    
Cr4   O5    S    
C34   O2    A    
Cr2   O14   S    
C4    C5    A    
C92   C97   A    
C84   C118  S    
C42   C52   S    
C70   C75   A    
C101  H24   S    
C63   H65   S    
Cr5   O11   S    
C36   O6    A    
C113  H26   S    
C89   C90   A    
C103  Cl2   S    
Cr4   O11   S    
C80   C90   S    
C107  C117  S    
C13   C44   S    
Cr3   O16   S    
C17   C21   A    
