data_mof_unit_14852.cif
_audit_creation_date              2012-10-26T20:21:49-0400
_audit_creation_method            fapswitch 2.2
_symmetry_space_group_name_H-M    P1
_symmetry_Int_Tables_number       1
_space_group_crystal_system       triclinic
_cell_length_a                    15.644131
_cell_length_b                    15.042591
_cell_length_c                    9.507777
_cell_angle_alpha                 89.999978
_cell_angle_beta                  90.000036
_cell_angle_gamma                 90.271516
_cell_volume                      2237.42353486

loop_
_atom_site_label
_atom_site_type_symbol
_atom_type_description
_atom_site_fract_x
_atom_site_fract_y
_atom_site_fract_z
_atom_type_partial_charge
C1    C     C_R   0.112750 0.374597 0.500189 0.536391
C2    C     C_R   0.069327 0.530222 0.925724 -0.014447
C3    C     C_R   0.069670 0.529360 0.074350 -0.006740
C4    C     C_R   0.930673 0.469778 0.925724 -0.014447
C5    C     C_R   0.479187 0.925091 0.074352 -0.003961
C6    C     C_R   0.522599 0.074519 0.925632 -0.005409
C7    C     C_R   0.520814 0.074908 0.074352 -0.003962
C8    C     C_R   0.477401 0.925481 0.925632 -0.005411
C9    C     C_R   0.731722 0.339899 0.460997 0.005844
C10   C     C_R   0.166935 0.773160 0.548908 -0.000517
C11   C     C_R   0.268278 0.660101 0.460998 0.005844
C12   C     C_R   0.887250 0.625403 0.500189 0.536391
C13   C     C_R   0.833065 0.226840 0.548909 -0.000517
C14   C     C_R   0.206702 0.268854 0.631594 -0.004242
C15   C     C_R   0.792753 0.732998 0.374073 0.014102
C16   C     C_R   0.793298 0.731145 0.631595 -0.004242
C17   C     C_R   0.207246 0.267002 0.374073 0.014103
C18   C     C_R   0.332507 0.725941 0.451470 -0.003140
C19   C     C_R   0.767869 0.161769 0.545474 0.003935
C20   C     C_R   0.667493 0.274059 0.451469 -0.003140
C21   C     C_R   0.232131 0.838231 0.545473 0.003935
C22   C     C_R   0.713983 0.775021 0.633227 0.000257
C23   C     C_R   0.882018 0.380563 0.500563 0.543135
C24   C     C_R   0.290142 0.231651 0.375013 0.001784
C25   C     C_R   0.286017 0.224979 0.633226 0.000259
C26   C     C_R   0.709857 0.768349 0.375013 0.001786
C27   C     C_R   0.185427 0.685715 0.502985 0.012370
C28   C     C_R   0.814573 0.314284 0.502985 0.012370
C29   C     C_R   0.826313 0.700159 0.501736 -0.015124
C30   C     C_R   0.173687 0.299841 0.501736 -0.015124
C31   C     C_R   0.685511 0.186504 0.498669 0.009301
C32   C     C_R   0.314489 0.813495 0.498669 0.009302
C33   C     C_R   0.323429 0.198503 0.503224 -0.027574
C34   C     C_R   0.117982 0.619437 0.500563 0.543135
C35   C     C_R   0.676570 0.801497 0.503224 -0.027573
C36   C     C_3   0.711701 0.438771 0.437938 -0.270512
C37   C     C_3   0.697042 0.486086 0.577917 -0.441850
C38   C     C_3   0.078729 0.796305 0.606180 -0.264934
C39   C     C_3   0.079030 0.795616 0.767364 -0.439972
C40   C     C_3   0.288299 0.561229 0.437940 -0.270513
C41   C     C_3   0.302958 0.513914 0.577919 -0.441850
C42   C     C_3   0.921271 0.203695 0.606181 -0.264934
C43   C     C_3   0.920970 0.204385 0.767365 -0.439971
C44   C     C_3   0.149152 0.265137 0.761227 -0.235094
C45   C     C_R   0.613356 0.874725 0.500546 0.528281
C46   C     C_3   0.169182 0.335386 0.873038 -0.409622
C47   C     C_3   0.846653 0.738599 0.239885 -0.253430
C48   C     C_3   0.931765 0.786737 0.263835 -0.434407
C49   C     C_3   0.850848 0.734862 0.761227 -0.235094
C50   C     C_3   0.830818 0.664612 0.873038 -0.409620
C51   C     C_3   0.153346 0.261399 0.239886 -0.253430
C52   C     C_3   0.068235 0.213260 0.263839 -0.434409
C53   C     C_3   0.417759 0.704187 0.382329 -0.262145
C54   C     C_3   0.406222 0.697198 0.222567 -0.441404
C55   C     C_3   0.787096 0.064230 0.580148 -0.274002
C56   C     C_R   0.386644 0.125275 0.500546 0.528280
C57   C     C_3   0.808050 0.011631 0.447322 -0.437810
C58   C     C_3   0.582241 0.295812 0.382328 -0.262145
C59   C     C_3   0.593778 0.302801 0.222566 -0.441403
C60   C     C_3   0.212903 0.935770 0.580147 -0.274002
C61   C     C_3   0.191950 0.988369 0.447321 -0.437810
C62   C     C_3   0.663357 0.778577 0.770642 -0.232426
C63   C     C_3   0.688875 0.856464 0.866332 -0.394093
C64   C     C_3   0.345897 0.240884 0.243771 -0.260409
C65   C     C_3   0.350833 0.337115 0.191149 -0.468163
C66   C     C_3   0.336644 0.221425 0.770640 -0.232426
C67   C     C_R   0.381939 0.880337 0.499662 0.540953
C68   C     C_3   0.311129 0.143539 0.866334 -0.394092
C69   C     C_3   0.654102 0.759114 0.243772 -0.260410
C70   C     C_3   0.649165 0.662882 0.191157 -0.468165
C71   C     C_R   0.618061 0.119663 0.499662 0.540953
C72   C     C_R   0.930330 0.470640 0.074350 -0.006740
Cu1   Cu    Cu3+1 1.000000 0.500000 0.640660 0.884270
Cu2   Cu    Cu3+1 1.000000 0.500000 0.359340 0.888651
Cu3   Cu    Cu3+1 0.500000 1.000000 0.640660 0.888786
Cu4   Cu    Cu3+1 0.500000 1.000000 0.359340 0.898078
H1    H     H_    0.873935 0.448082 0.129717 0.110986
H2    H     H_    0.754418 0.481734 0.645993 0.172453
H3    H     H_    0.683098 0.557384 0.558533 0.136755
H4    H     H_    0.763613 0.472758 0.379347 0.167333
H5    H     H_    0.654867 0.450716 0.372251 0.130130
H6    H     H_    0.078393 0.726123 0.806653 0.167358
H7    H     H_    0.136370 0.829539 0.810817 0.145745
H8    H     H_    0.021647 0.830392 0.807736 0.114124
H9    H     H_    0.057048 0.861582 0.565757 0.130307
H10   H     H_    0.028741 0.749812 0.568726 0.134011
H11   H     H_    0.358247 0.544242 0.633686 0.135212
H12   H     H_    0.125435 0.553562 0.870408 0.107026
H13   H     H_    0.245582 0.518266 0.645995 0.172453
H14   H     H_    0.316902 0.442616 0.558536 0.136754
H15   H     H_    0.236387 0.527242 0.379348 0.167333
H16   H     H_    0.345133 0.549284 0.372253 0.130129
H17   H     H_    0.921607 0.273877 0.806653 0.167359
H18   H     H_    0.863630 0.170461 0.810817 0.145745
H19   H     H_    0.978352 0.169608 0.807737 0.114124
H20   H     H_    0.942952 0.138418 0.565758 0.130307
H21   H     H_    0.971259 0.250188 0.568726 0.134011
H22   H     H_    0.215783 0.310559 0.950661 0.113614
H23   H     H_    0.126065 0.551917 0.129717 0.110986
H24   H     H_    0.194547 0.397397 0.825198 0.163790
H25   H     H_    0.109917 0.350599 0.932221 0.146521
H26   H     H_    0.081743 0.272309 0.729817 0.159267
H27   H     H_    0.149138 0.197655 0.807278 0.121516
H28   H     H_    0.964447 0.796815 0.161308 0.129050
H29   H     H_    0.974726 0.747330 0.331915 0.167000
H30   H     H_    0.920840 0.852733 0.312818 0.132907
H31   H     H_    0.857726 0.672280 0.193084 0.169579
H32   H     H_    0.813613 0.777425 0.157671 0.129090
H33   H     H_    0.784217 0.689438 0.950661 0.113614
H34   H     H_    0.874565 0.446437 0.870408 0.107026
H35   H     H_    0.805453 0.602602 0.825196 0.163790
H36   H     H_    0.890083 0.649399 0.932220 0.146522
H37   H     H_    0.918257 0.727690 0.729818 0.159267
H38   H     H_    0.850861 0.802344 0.807279 0.121517
H39   H     H_    0.079160 0.147266 0.312827 0.132908
H40   H     H_    0.025273 0.252669 0.331916 0.167000
H41   H     H_    0.035552 0.203179 0.161313 0.129050
H42   H     H_    0.142270 0.327718 0.193084 0.169580
H43   H     H_    0.186385 0.222574 0.157671 0.129090
H44   H     H_    0.369506 0.637097 0.192194 0.135594
H45   H     H_    0.464724 0.864784 0.130283 0.105291
H46   H     H_    0.370832 0.755679 0.182381 0.153506
H47   H     H_    0.469124 0.694081 0.169827 0.120247
H48   H     H_    0.467151 0.755035 0.404280 0.144430
H49   H     H_    0.445723 0.642478 0.426117 0.126691
H50   H     H_    0.821993 0.941595 0.475836 0.136836
H51   H     H_    0.753208 0.012177 0.373282 0.183032
H52   H     H_    0.864993 0.040415 0.394136 0.136089
H53   H     H_    0.840196 0.056285 0.655693 0.132712
H54   H     H_    0.733006 0.031802 0.634807 0.170757
H55   H     H_    0.629170 0.244321 0.182381 0.153507
H56   H     H_    0.539513 0.134746 0.869949 0.105959
H57   H     H_    0.530876 0.305915 0.169825 0.120246
H58   H     H_    0.630492 0.362903 0.192192 0.135593
H59   H     H_    0.532849 0.244965 0.404279 0.144430
H60   H     H_    0.554277 0.357522 0.426115 0.126691
H61   H     H_    0.246793 0.987823 0.373282 0.183033
H62   H     H_    0.135008 0.959585 0.394134 0.136089
H63   H     H_    0.178008 0.058405 0.475836 0.136836
H64   H     H_    0.159803 0.943715 0.655692 0.132712
H65   H     H_    0.266994 0.968198 0.634807 0.170756
H66   H     H_    0.743069 0.839352 0.935457 0.110890
H67   H     H_    0.535277 0.135216 0.130283 0.105291
H68   H     H_    0.705764 0.916620 0.804835 0.170868
H69   H     H_    0.635443 0.872508 0.937534 0.138038
H70   H     H_    0.593639 0.780244 0.749610 0.145059
H71   H     H_    0.669052 0.714927 0.827960 0.122631
H72   H     H_    0.389769 0.339987 0.093639 0.120800
H73   H     H_    0.381296 0.379992 0.272256 0.146934
H74   H     H_    0.287172 0.364471 0.165857 0.145217
H75   H     H_    0.412878 0.222888 0.264713 0.164432
H76   H     H_    0.323125 0.196000 0.159550 0.139052
H77   H     H_    0.256930 0.160646 0.935450 0.110894
H78   H     H_    0.460487 0.865254 0.869949 0.105959
H79   H     H_    0.294252 0.083377 0.804841 0.170878
H80   H     H_    0.364560 0.127505 0.937547 0.138027
H81   H     H_    0.406362 0.219759 0.749606 0.145058
H82   H     H_    0.330949 0.285076 0.827957 0.122632
H83   H     H_    0.712826 0.635522 0.165875 0.145219
H84   H     H_    0.618696 0.620009 0.272264 0.146932
H85   H     H_    0.610232 0.660009 0.093643 0.120801
H86   H     H_    0.587121 0.777111 0.264714 0.164432
H87   H     H_    0.676873 0.803995 0.159548 0.139052
H88   H     H_    0.641753 0.455758 0.633684 0.135211
N1    N     N_R   1.000000 0.500000 0.852070 -0.223949
N2    N     N_R   1.000000 0.500000 0.147930 -0.223955
N3    N     N_R   0.500000 1.000000 0.852070 -0.223385
N4    N     N_R   0.500000 1.000000 0.147930 -0.221173
O1    O     O_R   0.090170 0.409820 0.618740 -0.500746
O2    O     O_R   0.409830 0.090180 0.381260 -0.508807
O3    O     O_R   0.409830 0.090180 0.618740 -0.500322
O4    O     O_R   0.590170 0.909820 0.381260 -0.508806
O5    O     O_R   0.409830 0.909820 0.381260 -0.505283
O6    O     O_R   0.590170 0.090180 0.618740 -0.517000
O7    O     O_R   0.590170 0.090180 0.381260 -0.505283
O8    O     O_R   0.409830 0.909820 0.618740 -0.517001
O9    O     O_R   0.909830 0.590180 0.381260 -0.505630
O10   O     O_R   0.909830 0.590180 0.618740 -0.500746
O11   O     O_R   0.090170 0.409820 0.381260 -0.505630
O12   O     O_R   0.909830 0.409820 0.381260 -0.517475
O13   O     O_R   0.090170 0.590180 0.618740 -0.512171
O14   O     O_R   0.090170 0.590180 0.381260 -0.517475
O15   O     O_R   0.909830 0.409820 0.618740 -0.512171
O16   O     O_R   0.590170 0.909820 0.618740 -0.500320

loop_
_geom_bond_atom_site_label_1
_geom_bond_atom_site_label_2
_ccdc_geom_bond_type
C10   C27   A    
C66   C68   S    
C7    N4    A    
C45   O4    A    
C11   C18   A    
C54   H44   S    
C12   C29   S    
Cu1   Cu2   S    
C49   H37   S    
C15   C47   S    
C54   H47   S    
C68   H79   S    
C19   C31   A    
C17   C51   S    
C57   H52   S    
C7    H67   S    
C53   C54   S    
C22   C35   A    
C37   H3    S    
C59   H55   S    
C62   C63   S    
C38   H10   S    
C42   H20   S    
Cu4   O5    S    
C39   H8    S    
C38   C39   S    
Cu1   O15   S    
C61   H62   S    
C48   H28   S    
C5    H45   S    
C43   H18   S    
C4    N1    A    
C34   O13   A    
C70   H83   S    
C5    N4    A    
C66   H82   S    
C65   H74   S    
Cu4   O4    S    
C1    C30   S    
C46   H24   S    
C69   H86   S    
C18   C53   S    
C48   H30   S    
Cu2   O11   S    
C47   C48   S    
C55   H53   S    
C9    C36   S    
C43   H19   S    
C63   H68   S    
C13   C28   A    
C2    H12   S    
C8    H78   S    
C67   O8    A    
C52   H41   S    
C33   C56   S    
C31   C71   S    
C12   O9    A    
C46   H22   S    
C10   C21   A    
Cu3   O6    S    
C17   C30   A    
C11   C40   S    
C14   C30   A    
Cu3   O16   S    
C13   C42   S    
C21   C32   A    
C44   H27   S    
C44   C46   S    
C15   C29   A    
C52   H40   S    
C27   C34   S    
C41   H11   S    
C46   H25   S    
C17   C24   A    
C13   C19   A    
C38   H9    S    
C51   C52   S    
C16   C49   S    
C21   C60   S    
Cu1   N1    S    
C68   H77   S    
C36   H4    S    
C42   H21   S    
C57   H50   S    
C44   H26   S    
C61   H63   S    
C15   C26   A    
C64   H75   S    
C58   H60   S    
C16   C29   A    
C59   H57   S    
C50   H33   S    
C60   C61   S    
Cu3   Cu4   S    
C23   O15   A    
C72   H1    S    
C8    N3    A    
C60   H65   S    
C22   C62   S    
Cu1   O13   S    
C9    C20   A    
C51   H43   S    
C48   H29   S    
C11   C27   A    
C36   H5    S    
C55   H54   S    
C50   H36   S    
C9    C28   A    
C34   O14   A    
C23   C28   S    
C40   H16   S    
C65   H72   S    
Cu4   O2    S    
C2    N1    A    
C23   O12   A    
Cu4   N4    S    
C53   H49   S    
C60   H64   S    
C32   C67   S    
Cu1   O10   S    
C6    H56   S    
C40   C41   S    
C64   H76   S    
C49   C50   S    
C47   H31   S    
C62   H71   S    
C37   H88   S    
C56   O3    A    
Cu3   O3    S    
C18   C32   A    
C42   C43   S    
Cu1   O1    S    
C35   C45   S    
C70   H85   S    
C4    C72   A    
C14   C44   S    
C52   H39   S    
C19   C55   S    
C4    H34   S    
C6    N3    A    
C36   C37   S    
C16   C22   A    
C56   O2    A    
C41   H13   S    
C72   N2    A    
Cu4   O7    S    
C25   C66   S    
C69   H87   S    
C39   H6    S    
C68   H80   S    
C53   H48   S    
C57   H51   S    
C5    C8    A    
C6    C7    A    
Cu2   O14   S    
C58   H59   S    
C37   H2    S    
C59   H58   S    
C24   C33   A    
C71   O6    A    
C10   C38   S    
C64   C65   S    
C55   C57   S    
C2    C3    A    
C58   C59   S    
C39   H7    S    
C14   C25   A    
C49   H38   S    
C1    O11   A    
C61   H61   S    
Cu2   O9    S    
C67   O5    A    
C1    O1    A    
C50   H35   S    
C43   H17   S    
C63   H66   S    
C71   O7    A    
C41   H14   S    
C70   H84   S    
C40   H15   S    
C65   H73   S    
C69   C70   S    
C51   H42   S    
C3    H23   S    
C26   C35   A    
C54   H46   S    
Cu2   N2    S    
Cu2   O12   S    
C3    N2    A    
C24   C64   S    
C47   H32   S    
C62   H70   S    
C26   C69   S    
Cu3   N3    S    
C12   O10   A    
Cu3   O8    S    
C20   C58   S    
C63   H69   S    
C66   H81   S    
C45   O16   A    
C25   C33   A    
C20   C31   A    
