data_mof_unit_64035.cif
_audit_creation_date              2012-12-10T16:59:24-0500
_audit_creation_method            fapswitch 2.2
_symmetry_space_group_name_H-M    P1
_symmetry_Int_Tables_number       1
_space_group_crystal_system       triclinic
_cell_length_a                    13.162474
_cell_length_b                    13.122954
_cell_length_c                    17.89694
_cell_angle_alpha                 110.227877
_cell_angle_beta                  72.707061
_cell_angle_gamma                 91.49419
_cell_volume                      2759.40155685

loop_
_atom_site_label
_atom_site_type_symbol
_atom_type_description
_atom_site_fract_x
_atom_site_fract_y
_atom_site_fract_z
_atom_type_partial_charge
C1    C     C_R   0.217082 0.543393 0.531621 0.518864
C2    C     C_R   0.573524 0.392252 0.902531 -0.070119
C3    C     C_R   0.627305 0.331718 0.931195 -0.116651
C4    C     C_R   0.781932 0.456514 0.468308 0.516123
C5    C     C_R   0.608619 0.357805 0.016740 0.047037
C6    C     C_R   0.529352 0.442271 0.075150 0.036427
C7    C     C_R   0.667290 0.298817 0.044519 -0.116056
C8    C     C_R   0.649226 0.323416 0.129755 -0.115017
C9    C     C_R   0.513220 0.465932 0.161051 -0.109516
C10   C     C_2   0.895738 0.441339 0.454775 -0.074991
C11   C     C_2   0.937800 0.496141 0.514832 -0.129012
C12   C     C_R   0.322302 0.644385 0.866699 -0.164506
C13   C     C_2   0.101351 0.557018 0.548271 -0.092866
C14   C     C_2   0.053771 0.486680 0.497858 -0.146406
C15   C     C_2   0.541393 0.896074 0.532004 -0.095206
C16   C     C_R   0.469260 0.217365 0.476345 0.497713
C17   C     C_2   0.466763 0.953218 0.522644 -0.103045
C18   C     C_2   0.447681 0.104595 0.472457 0.243887
C19   C     C_2   0.487107 0.062004 0.517914 -0.138019
C20   C     C_R   0.529481 0.782601 0.524502 0.524011
C21   C     C_R   0.552267 0.432830 0.276717 0.504822
C22   C     C_R   0.449363 0.566840 0.723488 0.548570
C23   C     C_R   0.491898 0.553451 0.847456 0.228330
C24   C     C_R   0.422010 0.590322 0.813975 0.022563
C25   C     C_R   0.572317 0.406821 0.187652 0.043025
C26   C     C_R   0.290809 0.659292 0.951323 -0.136213
C27   C     C_R   0.450470 0.547996 0.928770 0.031266
C28   C     C_R   0.353445 0.610459 0.982651 0.015527
C29   C     C_R   0.500982 0.482341 0.958370 0.064409
C30   C     C_R   0.470367 0.500497 0.045432 0.034251
C31   C     C_R   0.379058 0.572227 0.098826 -0.113436
C32   C     C_R   0.319515 0.622815 0.067106 -0.106595
H1    H     H_    0.246608 0.672440 0.109127 0.130860
H2    H     H_    0.694959 0.277453 0.150615 0.119543
H3    H     H_    0.215120 0.704823 0.991522 0.132120
H4    H     H_    0.268749 0.675767 0.842524 0.149784
H5    H     H_    0.347400 0.585409 0.164611 0.122282
H6    H     H_    0.394137 0.916806 0.513912 0.205243
H7    H     H_    0.281836 0.134425 0.375773 0.359079
H8    H     H_    0.684034 0.264248 0.886084 0.123750
H9    H     H_    0.773730 0.564748 0.840279 0.368858
H10   H     H_    0.586280 0.365068 0.836076 0.171210
H11   H     H_    0.727288 0.233824 0.000253 0.122657
H12   H     H_    0.101157 0.421345 0.442240 0.164050
H13   H     H_    0.886940 0.550527 0.575101 0.169450
H14   H     H_    0.054540 0.623849 0.602886 0.123566
H15   H     H_    0.946620 0.392679 0.392641 0.098600
H16   H     H_    0.539215 0.107930 0.552166 0.132493
H17   H     H_    0.618056 0.928085 0.533516 0.111795
H18   H     H_    0.457598 0.531728 0.208878 0.109639
O1    O     O_3   0.500000 0.500000 0.500000 -0.458629
O2    O     O_R   0.474570 0.394560 0.317400 -0.528766
O3    O     O_R   0.403380 0.624270 0.695980 -0.552935
O4    O     O_R   0.609140 0.497770 0.314440 -0.532598
O5    O     O_R   0.512900 0.483390 0.672170 -0.480823
O6    O     O_2   0.424255 0.916846 0.357687 -0.249137
O7    O     O_2   0.262554 0.017627 0.466213 -0.306599
O8    O     O_3   0.350712 0.089223 0.345295 -0.467293
O9    O     O_2   0.675307 0.444392 0.731157 -0.290518
O10   O     O_2   0.653709 0.641049 0.764417 -0.279158
O11   O     O_3   0.696862 0.573539 0.872300 -0.516235
O12   O     O_R   0.526170 0.271940 0.521690 -0.569566
O13   O     O_R   0.451880 0.756290 0.574830 -0.527970
O14   O     O_R   0.271960 0.460780 0.472050 -0.541779
O15   O     O_R   0.749980 0.510990 0.431420 -0.539832
O16   O     O_R   0.262540 0.611050 0.579000 -0.535871
O17   O     O_R   0.715520 0.417170 0.517520 -0.495497
O18   O     O_R   0.426070 0.262540 0.438550 -0.504181
O19   O     O_R   0.595870 0.709230 0.464930 -0.520211
S1    S     S_3+6 0.369262 0.028807 0.409846 0.027008
S2    S     S_3+6 0.632608 0.551878 0.800450 0.005980
Zn1   Zn    Zn3+2 0.562560 0.419520 0.551940 0.998671
Zn2   Zn    Zn3+2 0.419550 0.406100 0.433160 0.965950
Zn3   Zn    Zn3+2 0.611810 0.553570 0.428930 0.971314
Zn4   Zn    Zn3+2 0.406080 0.620810 0.585960 0.964526

loop_
_geom_bond_atom_site_label_1
_geom_bond_atom_site_label_2
_ccdc_geom_bond_type
C18   S1    S    
C27   C29   A    
O1    Zn3   S    
H9    O11   S    
C6    C9    A    
C9    C25   A    
C7    C8    A    
C2    C29   A    
C5    C6    A    
O1    Zn4   S    
O17   Zn1   S    
C30   C31   A    
C11   C14   S    
C18   C19   D    
C4    O15   A    
O4    Zn3   S    
C23   C24   A    
C16   O18   A    
C23   C27   A    
O7    S1    D    
C12   H4    S    
O5    Zn1   S    
O11   S2    S    
C13   C14   D    
C8    C25   A    
O3    Zn4   S    
C16   O12   A    
C22   O3    A    
C15   C20   S    
C23   S2    S    
C28   C32   A    
O2    Zn2   S    
C5    C7    A    
C19   H16   S    
O8    S1    S    
O10   S2    D    
O18   Zn2   S    
H7    O8    S    
O15   Zn3   S    
C31   H5    S    
C12   C26   A    
C29   C30   A    
C31   C32   A    
O14   Zn2   S    
C1    O16   A    
O12   Zn1   S    
O19   Zn3   S    
C8    H2    S    
C6    C30   A    
C3    H8    S    
O6    S1    D    
C22   C24   S    
C20   O19   A    
C11   H13   S    
C1    C13   S    
O1    Zn1   S    
C4    C10   S    
C1    O14   A    
C10   H15   S    
C14   H12   S    
C7    H11   S    
C15   C17   D    
C21   C25   S    
C9    H18   S    
O1    Zn2   S    
C3    C5    A    
C4    O17   A    
C22   O5    A    
C12   C24   A    
C26   C28   A    
C32   H1    S    
C20   O13   A    
C2    C3    A    
C21   O4    A    
O13   Zn4   S    
C2    H10   S    
O16   Zn4   S    
C17   C19   S    
C17   H6    S    
C15   H17   S    
C10   C11   D    
C26   H3    S    
C16   C18   S    
C27   C28   A    
C13   H14   S    
C21   O2    A    
O9    S2    D    
