data_mof_unit_47640.cif
_audit_creation_date              2012-12-10T18:54:28-0500
_audit_creation_method            fapswitch 2.2
_symmetry_space_group_name_H-M    P1
_symmetry_Int_Tables_number       1
_space_group_crystal_system       triclinic
_cell_length_a                    19.455303
_cell_length_b                    18.165696
_cell_length_c                    9.080932
_cell_angle_alpha                 89.981133
_cell_angle_beta                  90.195863
_cell_angle_gamma                 89.999137
_cell_volume                      3209.35606868

loop_
_atom_site_label
_atom_site_type_symbol
_atom_type_description
_atom_site_fract_x
_atom_site_fract_y
_atom_site_fract_z
_atom_type_partial_charge
C1    C     C_R   0.367562 0.500000 0.499776 0.800640
C2    C     C_R   0.632462 0.499999 0.500228 0.800397
C3    C     C_R   0.454975 0.720984 0.412257 0.088276
C4    C     C_R   0.545054 0.279016 0.587675 0.089137
C5    C     C_R   0.545021 0.720955 0.587750 0.088663
C6    C     C_R   0.454943 0.279047 0.412331 0.089278
C7    C     C_R   0.454071 0.798292 0.410689 -0.284084
C8    C     C_R   0.545949 0.201708 0.589259 -0.283300
C9    C     C_R   0.545916 0.798262 0.589333 -0.283436
C10   C     C_R   0.454040 0.201740 0.410760 -0.283935
C11   C     C_R   0.499992 0.838440 0.500014 0.110471
C12   C     C_R   0.499993 0.161560 0.500012 0.109954
C13   C     C_R   0.561688 0.961316 0.514344 -0.178484
C14   C     C_R   0.438293 0.038682 0.485690 -0.178533
C15   C     C_R   0.438293 0.961323 0.485687 -0.178035
C16   C     C_R   0.561689 0.038674 0.514341 -0.178004
C17   C     C_R   0.499991 0.078713 0.500015 0.120747
C18   C     C_R   0.499991 0.921285 0.500016 0.120699
C19   C     C_R   0.499965 0.500007 0.220432 0.852874
C20   C     C_R   0.500034 0.499993 0.779568 0.852837
C21   C     C_1   0.499986 0.500010 0.065487 -0.193079
C22   C     C_1   0.500012 0.499990 0.934513 -0.193084
C23   C     C_R   0.744218 0.433458 0.505285 -0.232869
C24   C     C_R   0.255903 0.565813 0.520098 -0.235285
C25   C     C_R   0.255862 0.434201 0.478462 -0.233197
C26   C     C_R   0.744206 0.566543 0.496202 -0.233455
C27   C     C_R   0.816004 0.432747 0.504008 0.006067
C28   C     C_R   0.184113 0.566276 0.522353 0.005938
C29   C     C_R   0.184061 0.433724 0.476046 0.006705
C30   C     C_R   0.815995 0.567250 0.497626 0.006072
C31   C     C_R   0.852652 0.499998 0.500746 -0.005333
C32   C     C_R   0.147673 0.499990 0.499259 -0.006384
C33   C     C_R   0.707993 0.499999 0.500568 -0.067171
C34   C     C_R   0.292077 0.500003 0.499446 -0.064614
C35   C     C_R   0.964303 0.531496 0.382320 -0.158700
C36   C     C_R   0.036528 0.467933 0.617075 -0.165498
C37   C     C_R   0.035890 0.532004 0.382514 -0.166171
C38   C     C_R   0.964944 0.468482 0.618067 -0.159345
C39   C     C_R   0.072118 0.499958 0.499594 0.109428
C40   C     C_R   0.928484 0.500000 0.500395 0.105129
Cu1   Cu    Cu3+1 0.500000 0.573360 0.500000 0.937181
Cu2   Cu    Cu3+1 0.500000 0.426640 0.500000 0.937800
H1    H     H_    0.716691 0.381570 0.507533 0.158121
H2    H     H_    0.283488 0.616881 0.538357 0.159018
H3    H     H_    0.283417 0.383150 0.460163 0.154695
H4    H     H_    0.716674 0.618433 0.494021 0.158568
H5    H     H_    0.936764 0.555462 0.290217 0.127011
H6    H     H_    0.064277 0.443273 0.708184 0.124522
H7    H     H_    0.063140 0.556664 0.291118 0.124214
H8    H     H_    0.937907 0.444525 0.710464 0.127077
H9    H     H_    0.419638 0.690793 0.342659 0.118500
H10   H     H_    0.580421 0.309206 0.657207 0.117167
H11   H     H_    0.580361 0.690740 0.657342 0.118655
H12   H     H_    0.419578 0.309263 0.342795 0.117544
H13   H     H_    0.418316 0.826281 0.338276 0.127809
H14   H     H_    0.581726 0.173721 0.661623 0.128200
H15   H     H_    0.581668 0.826226 0.661752 0.128768
H16   H     H_    0.418261 0.173779 0.338400 0.128985
H17   H     H_    0.610414 0.932853 0.523027 0.127040
H18   H     H_    0.389566 0.067142 0.477011 0.126255
H19   H     H_    0.389567 0.932865 0.477002 0.126207
H20   H     H_    0.610416 0.067129 0.523019 0.127070
N1    N     N_R   0.500000 0.683620 0.500000 -0.171672
N2    N     N_R   0.500000 0.316380 0.500000 -0.171406
O1    O     O_R   0.400190 0.561980 0.499980 -0.592563
O2    O     O_R   0.599810 0.438020 0.500020 -0.592247
O3    O     O_R   0.599810 0.561980 0.500020 -0.592556
O4    O     O_R   0.400190 0.438020 0.499980 -0.591911
O5    O     O_R   0.500000 0.561940 0.288400 -0.581292
O6    O     O_R   0.500000 0.438060 0.711600 -0.581190
O7    O     O_R   0.500000 0.561940 0.711600 -0.581318
O8    O     O_R   0.500000 0.438060 0.288400 -0.581165
C41   C     C_R   0.850950 0.360611 0.499966 0.112778
C42   C     C_R   0.848809 0.313818 0.622922 -0.174816
C43   C     C_R   0.879729 0.244408 0.617112 -0.137258
C44   C     C_R   0.911758 0.220908 0.487867 -0.100938
C45   C     C_R   0.913221 0.266957 0.364567 -0.120123
C46   C     C_R   0.883608 0.336972 0.370834 -0.121976
H21   H     H_    0.823392 0.331217 0.722977 0.121179
H22   H     H_    0.878351 0.208604 0.712339 0.119449
H23   H     H_    0.935111 0.166893 0.482978 0.108544
H24   H     H_    0.936956 0.248201 0.263813 0.112362
H25   H     H_    0.884947 0.372160 0.274562 0.116108
C47   C     C_R   0.148795 0.636292 0.555689 0.116744
C48   C     C_R   0.113076 0.644643 0.688687 -0.120225
C49   C     C_R   0.083099 0.712201 0.724180 -0.136282
C50   C     C_R   0.087895 0.771478 0.626540 -0.104955
C51   C     C_R   0.122914 0.763327 0.493410 -0.129095
C52   C     C_R   0.153751 0.696084 0.458330 -0.164797
H26   H     H_    0.109565 0.599313 0.765810 0.115716
H27   H     H_    0.056321 0.718639 0.827634 0.111619
H28   H     H_    0.064463 0.823705 0.654063 0.106599
H29   H     H_    0.126607 0.809268 0.417941 0.117505
H30   H     H_    0.181483 0.690560 0.355703 0.120082
C53   C     C_R   0.148647 0.363714 0.442564 0.114644
C54   C     C_R   0.112254 0.355531 0.309833 -0.122011
C55   C     C_R   0.082132 0.288006 0.274210 -0.136743
C56   C     C_R   0.087467 0.228586 0.371449 -0.106916
C57   C     C_R   0.123166 0.236565 0.504306 -0.130160
C58   C     C_R   0.154136 0.303778 0.539516 -0.163434
H31   H     H_    0.108318 0.400969 0.233008 0.115807
H32   H     H_    0.054811 0.281706 0.170978 0.112006
H33   H     H_    0.063916 0.176387 0.343840 0.106868
H34   H     H_    0.127270 0.190515 0.579471 0.118600
H35   H     H_    0.182375 0.309170 0.641945 0.123443
C59   C     C_R   0.850956 0.639381 0.501874 0.111204
C60   C     C_R   0.848398 0.686281 0.379085 -0.171288
C61   C     C_R   0.879293 0.755706 0.385144 -0.136594
C62   C     C_R   0.911718 0.779113 0.514471 -0.101986
C63   C     C_R   0.913621 0.732948 0.637592 -0.121305
C64   C     C_R   0.884029 0.662918 0.631075 -0.124885
H36   H     H_    0.822668 0.668957 0.278972 0.123096
H37   H     H_    0.877587 0.791596 0.290048 0.119997
H38   H     H_    0.935045 0.833143 0.519553 0.108563
H39   H     H_    0.937687 0.751622 0.738398 0.112351
H40   H     H_    0.885701 0.627644 0.727218 0.116120

loop_
_geom_bond_atom_site_label_1
_geom_bond_atom_site_label_2
_ccdc_geom_bond_type
C15   C18   A    
C50   C51   A    
C11   C18   S    
Cu2   N2    S    
C28   C47   S    
Cu1   Cu2   S    
C53   C54   A    
C7    H13   S    
C4    C8    A    
C35   H5    S    
C8    H14   S    
C55   C56   A    
Cu1   O3    S    
C45   C46   A    
C31   C40   S    
C7    C11   A    
C58   H35   S    
C13   C18   A    
C4    H10   S    
C21   C22   T    
C10   H16   S    
C29   C32   A    
C3    C7    A    
C49   H27   S    
C30   C31   A    
C59   C60   A    
C56   H33   S    
Cu2   O6    S    
C1    O4    A    
C23   H1    S    
C61   C62   A    
C5    N1    A    
C60   H36   S    
C32   C39   S    
C6    N2    A    
C52   H30   S    
C63   C64   A    
C46   H25   S    
C16   C17   A    
C23   C33   A    
C12   C17   S    
C1    O1    A    
C41   C46   A    
C20   O7    A    
C64   H40   S    
C23   C27   A    
C43   H22   S    
C55   H32   S    
C25   C34   A    
Cu1   O7    S    
C57   H34   S    
C54   H31   S    
C30   C59   S    
Cu2   O4    S    
C14   C17   A    
C20   O6    A    
C19   O8    A    
C16   H20   S    
C6    H12   S    
C1    C34   S    
C59   C64   A    
C41   C42   A    
C25   C29   A    
C42   C43   A    
C27   C31   A    
C28   C32   A    
C47   C48   A    
C2    O3    A    
C29   C53   S    
C3    H9    S    
C49   C50   A    
Cu1   O1    S    
C48   C49   A    
C24   C34   A    
C61   H37   S    
C43   C44   A    
C5    C9    A    
C37   H7    S    
C26   C33   A    
C57   C58   A    
C8    C12   A    
C54   C55   A    
Cu2   O8    S    
C15   H19   S    
C44   C45   A    
C9    C11   A    
C10   C12   A    
C62   H38   S    
C13   H17   S    
C2    C33   S    
C20   C22   S    
C26   C30   A    
C42   H21   S    
C24   H2    S    
C19   O5    A    
C47   C52   A    
Cu1   N1    S    
C60   C61   A    
C25   H3    S    
Cu1   O5    S    
C5    H11   S    
C51   H29   S    
C35   C37   A    
C53   C58   A    
C36   C39   A    
C24   C28   A    
C2    O2    A    
C44   H23   S    
C6    C10   A    
C48   H26   S    
C38   H8    S    
C3    N1    A    
C14   H18   S    
C4    N2    A    
C36   C38   A    
C35   C40   A    
C37   C39   A    
C27   C41   S    
C62   C63   A    
C38   C40   A    
C45   H24   S    
C36   H6    S    
C9    H15   S    
C26   H4    S    
C51   C52   A    
C56   C57   A    
C13   C16   A    
Cu2   O2    S    
C14   C15   A    
C50   H28   S    
C63   H39   S    
C19   C21   S    
