data_mof_unit_58338.cif
_audit_creation_date              2012-12-10T17:08:45-0500
_audit_creation_method            fapswitch 2.2
_symmetry_space_group_name_H-M    P1
_symmetry_Int_Tables_number       1
_space_group_crystal_system       triclinic
_cell_length_a                    27.7895
_cell_length_b                    10.974682
_cell_length_c                    10.006249
_cell_angle_alpha                 110.272934
_cell_angle_beta                  98.407805
_cell_angle_gamma                 94.451788
_cell_volume                      2804.7127138

loop_
_atom_site_label
_atom_site_type_symbol
_atom_type_description
_atom_site_fract_x
_atom_site_fract_y
_atom_site_fract_z
_atom_type_partial_charge
C1    C     C_R   0.496142 0.254426 0.440926 0.848164
C2    C     C_R   0.504310 0.745616 0.559089 0.851638
C3    C     C_R   0.101092 0.488201 0.489218 -0.043964
C4    C     C_R   0.898006 0.492077 0.503895 -0.044098
C5    C     C_R   0.124919 0.385290 0.508739 -0.020082
C6    C     C_R   0.875293 0.601037 0.498481 -0.020421
C7    C     C_R   0.098065 0.283215 0.530607 -0.147743
C8    C     C_R   0.903220 0.708845 0.490696 -0.147932
C9    C     C_R   0.128443 0.590797 0.467178 -0.022790
C10   C     C_R   0.869614 0.384089 0.512706 -0.021756
C11   C     C_R   0.355071 0.503898 0.501712 -0.049852
C12   C     C_R   0.644787 0.491196 0.496817 -0.089147
C13   C     C_R   0.971503 0.381549 0.509404 0.042660
C14   C     C_R   0.027063 0.595607 0.476850 0.042561
C15   C     C_R   0.976662 0.599254 0.486889 0.043911
C16   C     C_R   0.022807 0.382799 0.511071 0.043547
C17   C     C_R   0.948943 0.490976 0.500121 0.067679
C18   C     C_R   0.050096 0.488796 0.492257 0.067948
C19   C     C_R   0.941623 0.273973 0.515997 -0.203651
C20   C     C_R   0.055437 0.695070 0.450806 -0.204488
C21   C     C_R   0.891807 0.275616 0.517884 -0.144499
C22   C     C_R   0.105064 0.692607 0.446469 -0.144804
C23   C     C_R   0.407925 0.502587 0.501006 0.790877
C24   C     C_R   0.592084 0.497042 0.498878 0.775261
C25   C     C_R   0.048124 0.281805 0.531991 -0.204645
C26   C     C_R   0.952855 0.708410 0.485420 -0.204464
C27   C     C_2   0.489911 0.113997 0.408337 -0.349869
C28   C     C_2   0.510780 0.886066 0.591768 -0.352395
C29   C     C_2   0.507399 0.067939 0.509542 -0.157776
C30   C     C_2   0.493095 0.932369 0.490987 -0.166875
C31   C     C_2   0.504578 0.514245 0.080482 0.220092
C32   C     C_2   0.495468 0.485590 0.919465 0.221754
C33   C     C_R   0.175497 0.387913 0.508106 0.536839
C34   C     C_R   0.824855 0.599543 0.500685 0.537995
C35   C     C_R   0.178840 0.589175 0.466221 0.538424
C36   C     C_R   0.819290 0.386611 0.514823 0.536280
C37   C     C_R   0.285686 0.590492 0.606915 -0.134348
C38   C     C_R   0.712963 0.405263 0.384176 -0.094461
C39   C     C_R   0.336616 0.598479 0.612647 0.115799
C40   C     C_R   0.661878 0.401972 0.377941 0.099352
C41   C     C_R   0.322132 0.407064 0.387652 -0.260984
C42   C     C_R   0.678632 0.576090 0.618154 -0.240445
C43   C     C_R   0.271698 0.401507 0.383483 -0.099652
C44   C     C_R   0.728854 0.576434 0.622181 -0.100111
C45   C     C_R   0.253347 0.493018 0.493081 0.321810
C46   C     C_R   0.746139 0.491635 0.505137 0.305293
Cu1   Cu    Cu3+1 0.508480 0.521810 0.644910 0.920981
Cu2   Cu    Cu3+1 0.491520 0.478190 0.355090 0.915998
H1    H     H_    0.335566 0.334472 0.302070 0.159862
H2    H     H_    0.666115 0.643852 0.709677 0.162684
H3    H     H_    0.532655 0.950785 0.695026 0.152443
H4    H     H_    0.468213 0.049069 0.304894 0.151204
H5    H     H_    0.552107 0.617737 0.922660 0.197150
H6    H     H_    0.447916 0.382188 0.077309 0.197818
H7    H     H_    0.246798 0.326347 0.294663 0.152410
H8    H     H_    0.754448 0.643039 0.716229 0.151819
H9    H     H_    0.115618 0.203590 0.547449 0.184983
H10   H     H_    0.886793 0.794687 0.488570 0.184300
H11   H     H_    0.727943 0.341655 0.295806 0.152990
H12   H     H_    0.270703 0.661766 0.689748 0.140905
H13   H     H_    0.870658 0.190647 0.522971 0.188830
H14   H     H_    0.125113 0.771630 0.427014 0.188676
H15   H     H_    0.955254 0.185178 0.517281 0.136492
H16   H     H_    0.040352 0.775862 0.430796 0.138040
H17   H     H_    0.030739 0.200717 0.552632 0.136415
H18   H     H_    0.971628 0.796838 0.482743 0.135380
H19   H     H_    0.468344 0.868859 0.392859 0.182205
H20   H     H_    0.531942 0.131646 0.608009 0.183263
N1    N     N_R   0.201361 0.489270 0.487785 -0.462226
N2    N     N_R   0.797961 0.493093 0.508173 -0.463270
N3    N     N_2   0.478780 0.445430 0.137360 -0.311799
N4    N     N_2   0.521220 0.554570 0.862640 -0.312738
O1    O     O_R   0.504520 0.332330 0.577400 -0.573115
O2    O     O_R   0.495480 0.667670 0.422600 -0.574424
O3    O     O_R   0.490210 0.295500 0.332650 -0.576213
O4    O     O_R   0.509790 0.704500 0.667350 -0.568036
O5    O     O_R   0.437420 0.518430 0.622370 -0.605733
O6    O     O_R   0.562580 0.481570 0.377630 -0.613174
O7    O     O_R   0.423110 0.481600 0.377610 -0.569782
O8    O     O_R   0.576890 0.518400 0.622390 -0.566187
O9    O     O_2   0.198775 0.290906 0.529456 -0.540551
O10   O     O_2   0.802709 0.702876 0.493494 -0.538806
O11   O     O_2   0.791882 0.283706 0.523935 -0.538012
O12   O     O_2   0.205176 0.686585 0.443748 -0.537541
C47   C     C_3   0.455926 0.370730 0.826040 -0.334768
C48   C     C_3   0.471533 0.238153 0.820746 -0.857921
H21   H     H_    0.511491 0.239558 0.821234 0.254114
H22   H     H_    0.463610 0.211921 0.913291 0.233942
H23   H     H_    0.450822 0.158946 0.721306 0.257198
H24   H     H_    0.420649 0.383802 0.865348 0.151494
H25   H     H_    0.445963 0.363668 0.714717 0.265809
C49   C     C_3   0.544101 0.629100 0.173897 -0.339183
C50   C     C_3   0.528417 0.761590 0.179258 -0.849761
H26   H     H_    0.536067 0.787628 0.086363 0.234617
H27   H     H_    0.488501 0.760202 0.179523 0.251692
H28   H     H_    0.549274 0.840858 0.278383 0.258641
H29   H     H_    0.554062 0.636178 0.285217 0.267597
H30   H     H_    0.579381 0.616120 0.134584 0.150731
C51   C     C_3   0.625629 0.303862 0.248724 -0.363675
C52   C     C_3   0.647414 0.193283 0.144967 -0.857962
H31   H     H_    0.671553 0.232730 0.085999 0.252406
H32   H     H_    0.668286 0.139993 0.205045 0.269935
H33   H     H_    0.617214 0.122488 0.063323 0.244431
H34   H     H_    0.597486 0.256331 0.290116 0.213136
H35   H     H_    0.606895 0.357390 0.184889 0.222905
C53   C     C_3   0.369168 0.713167 0.732447 -0.412946
C54   C     C_3   0.387369 0.816629 0.674639 -0.772262
H36   H     H_    0.406574 0.773156 0.583311 0.238828
H37   H     H_    0.355864 0.859928 0.636086 0.259365
H38   H     H_    0.413212 0.896004 0.762319 0.236746
H39   H     H_    0.348515 0.761093 0.819260 0.195558
H40   H     H_    0.400473 0.680407 0.786664 0.229459

loop_
_geom_bond_atom_site_label_1
_geom_bond_atom_site_label_2
_ccdc_geom_bond_type
C39   C53   S    
C20   H16   S    
C50   H26   S    
C27   C29   D    
C8    C26   A    
C14   C18   A    
C40   C51   S    
C47   H25   S    
C49   H30   S    
C32   N4    D    
C53   H40   S    
C47   C48   S    
Cu2   O7    S    
C19   C21   A    
Cu1   O4    S    
C28   H3    S    
C48   H22   S    
C9    C22   A    
C53   C54   S    
C36   O11   S    
C3    C18   A    
Cu2   O6    S    
C49   C50   S    
C12   C42   A    
C8    H10   S    
C24   O8    A    
H6    N3    S    
C31   C32   S    
C36   N2    A    
C5    C33   A    
C54   H36   S    
C34   N2    A    
C21   H13   S    
C30   H19   S    
C2    O2    A    
C33   N1    A    
C31   N3    D    
C51   H34   S    
C50   H27   S    
C41   C43   A    
Cu2   O3    S    
C42   C44   A    
Cu1   O8    S    
C41   H1    S    
C44   C46   A    
C49   H29   S    
C53   H39   S    
C10   C21   A    
C51   H35   S    
C46   N2    S    
C13   C19   A    
C45   N1    S    
C26   H18   S    
Cu1   Cu2   S    
C14   C20   A    
C25   H17   S    
Cu1   O1    S    
C4    C6    A    
C19   H15   S    
C5    C7    A    
C48   H21   S    
C15   C26   A    
C6    C8    A    
C52   H33   S    
C6    C34   A    
C1    O3    A    
C12   C40   A    
C29   C30   S    
C3    C9    A    
Cu2   O2    S    
C22   H14   S    
C29   H20   S    
C44   H8    S    
C51   C52   S    
C47   H24   S    
C52   H32   S    
C23   O5    A    
C11   C39   A    
C43   C45   A    
C42   H2    S    
C4    C17   A    
C24   O6    A    
C20   C22   A    
C50   H28   S    
C54   H38   S    
Cu1   O5    S    
Cu2   N3    S    
C37   C45   A    
C2    O4    A    
C27   H4    S    
C1    C27   S    
C43   H7    S    
C16   C25   A    
C15   C17   A    
C4    C10   A    
C3    C5    A    
C48   H23   S    
C10   C36   A    
C35   O12   S    
C12   C24   S    
C7    C25   A    
C13   C17   A    
C1    O1    A    
C28   C30   D    
C37   C39   A    
C38   C40   A    
C54   H37   S    
C32   C47   S    
C11   C23   S    
C52   H31   S    
C11   C41   A    
Cu1   N4    S    
C38   C46   A    
C37   H12   S    
C38   H11   S    
C35   N1    A    
C16   C18   A    
C31   C49   S    
C13   C16   A    
C9    C35   A    
C14   C15   A    
C2    C28   S    
C34   O10   S    
C23   O7    A    
H5    N4    S    
C33   O9    S    
C7    H9    S    
