data_mof_unit_15286.cif
_audit_creation_date              2012-12-11T15:21:45-0500
_audit_creation_method            fapswitch 2.2
_symmetry_space_group_name_H-M    P1
_symmetry_Int_Tables_number       1
_space_group_crystal_system       triclinic
_cell_length_a                    19.186764
_cell_length_b                    7.141813
_cell_length_c                    17.678712
_cell_angle_alpha                 89.999907
_cell_angle_beta                  108.898459
_cell_angle_gamma                 89.999953
_cell_volume                      2291.89728252

loop_
_atom_site_label
_atom_site_type_symbol
_atom_type_description
_atom_site_fract_x
_atom_site_fract_y
_atom_site_fract_z
_atom_type_partial_charge
O1    O     O_R   0.562310 0.505770 0.439670 -0.541015
O2    O     O_R   0.437690 0.005770 0.560330 -0.541012
O3    O     O_R   0.411650 0.169150 0.405330 -0.535335
O4    O     O_R   0.588350 0.669150 0.594670 -0.535341
C1    C     C_R   0.384695 0.345722 0.382948 0.630576
C2    C     C_R   0.615305 0.845722 0.617053 0.630574
O5    O     O_R   0.560140 0.175610 0.430010 -0.537555
O6    O     O_R   0.439860 0.675610 0.569990 -0.537562
O7    O     O_R   0.587240 0.012100 0.585200 -0.535606
O8    O     O_R   0.412760 0.512100 0.414800 -0.535610
C3    C     C_R   0.581595 0.344588 0.415452 0.727947
C4    C     C_R   0.418406 0.844588 0.584548 0.727951
O9    O     O_3   0.508720 0.341420 0.550890 -0.374717
O10   O     O_3   0.491280 0.841420 0.449110 -0.374712
V1    V     V_3+5 0.498380 0.063930 0.490560 1.431083
V2    V     V_3+5 0.501620 0.563930 0.509440 1.431069
C5    C     C_R   0.173111 0.753498 0.867604 -0.210361
C6    C     C_R   0.826885 0.253503 0.132391 -0.210383
C7    C     C_R   0.130058 0.914969 0.864745 -0.080829
C8    C     C_R   0.869941 0.414969 0.135254 -0.080825
C9    C     C_R   0.134503 0.063920 0.814255 -0.195335
C10   C     C_R   0.865500 0.563916 0.185748 -0.195291
C11   C     C_R   0.180868 0.051920 0.766981 0.081024
C12   C     C_R   0.819134 0.551917 0.233020 0.081021
C13   C     C_R   0.224335 0.890276 0.771077 0.057099
C14   C     C_R   0.775664 0.390278 0.228922 0.057096
C15   C     C_R   0.220468 0.740800 0.821704 0.093410
C16   C     C_R   0.779528 0.240805 0.178292 0.093414
C17   C     C_R   0.184598 0.198669 0.715599 -0.162064
C18   C     C_R   0.815405 0.698664 0.284404 -0.162061
C19   C     C_R   0.231728 0.186804 0.669636 -0.174485
C20   C     C_R   0.768276 0.686798 0.330368 -0.174480
C21   C     C_R   0.275935 0.027802 0.674109 0.078705
C22   C     C_R   0.724068 0.527798 0.325894 0.078707
C23   C     C_R   0.271896 0.878194 0.724613 0.058108
C24   C     C_R   0.728103 0.378196 0.275386 0.058105
C25   C     C_R   0.315483 0.716706 0.728913 0.096283
C26   C     C_R   0.684513 0.216712 0.271084 0.096283
C27   C     C_R   0.311444 0.569488 0.779907 -0.190392
C28   C     C_R   0.688551 0.069496 0.220088 -0.190390
C29   C     C_R   0.264328 0.581333 0.825821 -0.197623
C30   C     C_R   0.735667 0.081340 0.174174 -0.197622
C31   C     C_R   0.324092 0.015947 0.629040 -0.177790
C32   C     C_R   0.675914 0.515941 0.370966 -0.177791
C33   C     C_R   0.367836 0.855285 0.632828 -0.067505
C34   C     C_R   0.632164 0.355285 0.367173 -0.067504
C35   C     C_R   0.362587 0.705565 0.682538 -0.210602
C36   C     C_R   0.637408 0.205572 0.317457 -0.210590
H1    H     H_    0.170639 0.638125 0.906516 0.123462
H2    H     H_    0.829352 0.138134 0.093474 0.123458
H3    H     H_    0.233953 0.302764 0.630936 0.153912
H4    H     H_    0.766053 0.802754 0.369070 0.153915
H5    H     H_    0.326875 0.131458 0.590312 0.136637
H6    H     H_    0.673136 0.631445 0.409701 0.136639
H7    H     H_    0.395934 0.581270 0.686084 0.123770
H8    H     H_    0.604055 0.081284 0.313905 0.123768
H9    H     H_    0.262068 0.465288 0.864458 0.126581
H10   H     H_    0.737926 0.965298 0.135537 0.126580
C37   C     C_3   0.762329 0.761646 0.827570 -0.325565
C38   C     C_3   0.237688 0.261721 0.172414 -0.325593
H11   H     H_    0.790279 0.623686 0.842703 0.153450
H12   H     H_    0.209748 0.123760 0.157235 0.153438
H13   H     H_    0.748138 0.806658 0.881078 0.129592
H14   H     H_    0.251896 0.306842 0.118929 0.129606
C39   C     C_3   0.690474 0.734433 0.756307 -0.349057
C40   C     C_3   0.309529 0.234454 0.243690 -0.349039
H15   H     H_    0.642239 0.765197 0.776178 0.132080
H16   H     H_    0.357776 0.265198 0.223837 0.132063
C41   C     C_3   0.833028 0.844207 0.731506 -0.130479
C42   C     C_3   0.166972 0.344099 0.268483 -0.130454
C43   C     C_3   0.770592 0.095596 0.790182 -0.352116
C44   C     C_3   0.229385 0.595620 0.209848 -0.352100
C45   C     C_3   0.814672 0.909796 0.808767 0.036823
C46   C     C_3   0.185326 0.409792 0.191234 0.036810
H17   H     H_    0.803918 0.208655 0.775403 0.180084
H18   H     H_    0.196050 0.708607 0.224663 0.180151
H19   H     H_    0.757471 0.143154 0.844008 0.134726
H20   H     H_    0.242486 0.643287 0.156025 0.134726
C47   C     C_3   0.689085 0.864750 0.685605 0.034593
C48   C     C_3   0.310913 0.364749 0.314396 0.034591
C49   C     C_3   0.757474 0.819145 0.657239 -0.122089
C50   C     C_3   0.242526 0.319112 0.342759 -0.122100
C51   C     C_3   0.698238 0.069673 0.720028 -0.308995
C52   C     C_3   0.301753 0.569681 0.279981 -0.309009
H21   H     H_    0.650905 0.104519 0.740887 0.137304
H22   H     H_    0.349076 0.604527 0.259103 0.137317
H23   H     H_    0.697419 0.173504 0.672904 0.185712
H24   H     H_    0.302588 0.673506 0.327112 0.185714
O11   O     O_R   0.087220 0.271820 0.085230 -0.541129
O12   O     O_R   0.912780 0.771820 0.914770 -0.541127
O13   O     O_R   0.939860 0.595540 0.069990 -0.541096
O14   O     O_R   0.060140 0.095540 0.930010 -0.541099
C53   C     C_R   0.919125 0.426426 0.085386 0.701348
C54   C     C_R   0.080874 0.926426 0.914614 0.701345
O15   O     O_R   0.088340 0.601930 0.094680 -0.534438
O16   O     O_R   0.911660 0.101930 0.905320 -0.534454
O17   O     O_R   0.062310 0.765410 0.939660 -0.537675
O18   O     O_R   0.937690 0.265410 0.060340 -0.537684
C55   C     C_R   0.115618 0.431540 0.118063 0.648100
C56   C     C_R   0.884381 0.931541 0.881938 0.648080
O19   O     O_3   0.991270 0.429630 0.949130 -0.361845
O20   O     O_3   0.008730 0.929630 0.050870 -0.361833
V3    V     V_3+5 0.001620 0.707150 0.009440 1.449553
V4    V     V_3+5 0.998380 0.207150 0.990560 1.449528
H25   H     H_    0.685513 0.585243 0.737239 0.155202
H26   H     H_    0.314473 0.085257 0.262749 0.155204
C57   C     C_1   0.876500 0.667814 0.749168 0.286583
N1    N     N_1   0.910366 0.530520 0.762845 -0.305381
C58   C     C_1   0.123546 0.167634 0.250804 0.286631
N2    N     N_1   0.089717 0.030283 0.237113 -0.305459
C59   C     C_1   0.749332 0.627084 0.623004 0.270893
N3    N     N_1   0.742987 0.477735 0.596176 -0.330952
C60   C     C_1   0.250685 0.127071 0.377017 0.270857
N4    N     N_1   0.257044 0.977737 0.403862 -0.330957
C61   C     C_1   0.883807 0.982571 0.714387 0.283708
N5    N     N_1   0.923504 0.090245 0.701239 -0.300584
C62   C     C_1   0.116153 0.482347 0.285602 0.283678
N6    N     N_1   0.076423 0.589929 0.298749 -0.300646
H27   H     H_    0.101330 0.188407 0.811051 0.149558
H28   H     H_    0.898676 0.688399 0.188956 0.149557
C63   C     C_1   0.754934 0.942709 0.588703 0.281413
N7    N     N_1   0.752760 0.038571 0.535171 -0.317449
C64   C     C_1   0.245048 0.442707 0.411280 0.281437
N8    N     N_1   0.247207 0.538590 0.464801 -0.317430
H29   H     H_    0.151371 0.323384 0.711311 0.150733
H30   H     H_    0.848633 0.823376 0.288693 0.150727
H31   H     H_    0.344641 0.444723 0.784170 0.130068
H32   H     H_    0.655353 0.944734 0.215824 0.130068

loop_
_geom_bond_atom_site_label_1
_geom_bond_atom_site_label_2
_ccdc_geom_bond_type
C45   C56   S    
C51   H23   S    
C8    C53   S    
C18   H30   S    
C39   C47   S    
C17   H29   S    
C40   H16   S    
C59   N3    T    
O1    C3    A    
C48   C52   S    
O2    C4    A    
C30   H10   S    
C2    O7    A    
C41   C57   S    
C64   N8    T    
C27   C29   A    
C10   H28   S    
O11   C55   A    
C11   C17   A    
C23   C25   A    
C52   H22   S    
O15   C55   A    
C42   C62   S    
C61   N5    T    
C28   H32   S    
C6    C8    A    
C38   H12   S    
O12   C56   A    
C20   H4    S    
C44   H20   S    
C5    C7    A    
C31   H5    S    
C49   C59   S    
C32   C34   A    
C39   H15   S    
C42   C46   S    
C57   N1    T    
C19   C21   A    
C41   C45   S    
C25   C35   A    
C37   C45   S    
C26   C36   A    
C44   H18   S    
C28   C30   A    
C38   C40   S    
O6    V2    S    
C26   C28   A    
C40   H26   S    
C39   H25   S    
O15   V3    S    
C43   C51   S    
C33   C35   A    
C34   C36   A    
C43   H17   S    
C37   H11   S    
C5    C15   A    
C6    C16   A    
C44   C46   S    
C5    H1    S    
C43   C45   S    
O5    V1    S    
C54   O17   A    
C49   C63   S    
C27   H31   S    
C20   C22   A    
O4    V2    S    
O5    C3    A    
C42   C58   S    
C19   H3    S    
O13   C53   A    
C15   C29   A    
O6    C4    A    
O14   C54   A    
C22   C32   A    
O1    V2    S    
O17   V3    S    
C1    C48   S    
O2    V1    S    
C31   C33   A    
C63   N7    T    
C44   C52   S    
C7    C54   S    
C13   C23   A    
C48   C50   S    
C51   H21   S    
C8    C10   A    
O19   V4    S    
C9    C11   A    
O11   V4    S    
C10   C12   A    
O4    C2    A    
C24   C26   A    
C50   C64   S    
C43   H19   S    
O3    V1    S    
C6    H2    S    
C35   H7    S    
C60   N4    T    
C14   C24   A    
C36   H8    S    
C41   C61   S    
C16   C30   A    
C7    C9    A    
C14   C16   A    
C52   H24   S    
C50   C60   S    
O13   V3    S    
C4    C33   S    
O3    C1    A    
C9    H27   S    
C47   C49   S    
C46   C55   S    
C13   C15   A    
C40   C48   S    
C37   H13   S    
C38   H14   S    
O16   V4    S    
O7    V1    S    
C29   H9    S    
C1    O8    A    
C25   C27   A    
O8    V2    S    
C58   N2    T    
C37   C39   S    
C18   C20   A    
C12   C14   A    
C2    C47   S    
O18   V4    S    
O16   C56   A    
C38   C46   S    
C21   C23   A    
C22   C24   A    
C11   C13   A    
O20   V3    S    
C42   C50   S    
C12   C18   A    
O12   V3    S    
C41   C49   S    
O14   V4    S    
C47   C51   S    
C32   H6    S    
C17   C19   A    
O9    V2    S    
O10   V1    S    
C3    C34   S    
C62   N6    T    
C21   C31   A    
C53   O18   A    
