data_mof_unit_25306.cif
_audit_creation_date              2013-03-05T15:43:52-0500
_audit_creation_method            fapswitch 2.2
_symmetry_space_group_name_H-M    P1
_symmetry_Int_Tables_number       1
_space_group_crystal_system       triclinic
_cell_length_a                    8.355728
_cell_length_b                    15.132491
_cell_length_c                    18.862937
_cell_angle_alpha                 100.8438
_cell_angle_beta                  91.568623
_cell_angle_gamma                 98.94649
_cell_volume                      2310.05294765

loop_
_atom_site_label
_atom_site_type_symbol
_atom_site_description
_atom_site_fract_x
_atom_site_fract_y
_atom_site_fract_z
_atom_type_partial_charge
P1    P     P_3+3 0.038110 0.412300 0.335300 0.455095
O1    O     O_2   0.871030 0.438240 0.324420 -0.359581
O2    O     O_3   0.120590 0.445310 0.413740 -0.397725
O3    O     O_3   0.663040 0.605930 0.370050 -0.379167
O4    O     O_2   0.782772 0.548757 0.243766 -0.427749
O5    O     O_3   0.996661 0.293034 0.314587 -0.600240
O6    O     O_3   0.667522 0.701760 0.255271 -0.566981
H1    H     H_    0.816776 0.771860 0.343278 0.142494
C1    C     C_3   0.676497 0.861470 0.302624 -1.036455
H2    H     H_    0.714402 0.915410 0.351363 0.251162
H3    H     H_    0.752905 0.876557 0.258056 0.267490
P2    P     P_3+3 0.679950 0.711710 0.558590 0.451740
P3    P     P_3+3 0.133752 0.774621 0.415928 0.485171
O7    O     O_2   0.855660 0.723510 0.537160 -0.366549
O8    O     O_3   0.086340 0.654970 0.406630 -0.359044
O9    O     O_2   0.009459 0.819969 0.463142 -0.380854
O10   O     O_3   0.701485 0.732641 0.653182 -0.546701
O11   O     O_3   0.111185 0.811151 0.333226 -0.559528
C2    C     C_3   0.110370 0.740001 0.272927 0.419127
H4    H     H_    0.022964 0.679084 0.279007 0.116325
C3    C     C_3   0.054627 0.770374 0.203779 -0.537565
H5    H     H_    0.925086 0.777828 0.205591 0.246140
C4    C     C_3   0.231064 0.754423 0.641034 0.285812
H6    H     H_    0.354386 0.744126 0.624703 0.066150
H7    H     H_    0.142253 0.733557 0.593695 0.131186
C5    C     C_3   0.231942 0.854645 0.675161 -0.657637
H8    H     H_    0.325081 0.875958 0.720991 0.183082
H9    H     H_    0.112213 0.862384 0.697531 0.242038
Ba1   Ba    Ba6+2 0.854120 0.540280 0.465540 1.551837
C6    C     C_3   0.944036 0.258267 0.374878 0.416615
H10   H     H_    0.830551 0.282903 0.391441 0.116878
H11   H     H_    0.037829 0.278487 0.420302 0.128387
C7    C     C_3   0.912099 0.154597 0.353558 -0.987719
H12   H     H_    0.813939 0.132437 0.310013 0.274391
H13   H     H_    0.875014 0.123517 0.400376 0.236168
H14   H     H_    0.024135 0.129600 0.333815 0.257157
C8    C     C_3   0.735038 0.827391 0.678682 0.228435
H15   H     H_    0.630366 0.859730 0.665025 0.024727
H16   H     H_    0.846099 0.857587 0.654964 0.112685
C9    C     C_3   0.762913 0.846669 0.760746 -0.642192
H17   H     H_    0.646885 0.826227 0.785379 0.177585
H18   H     H_    0.853060 0.805701 0.776218 0.232849
P4    P     P_3+3 0.151600 0.587780 0.664700 0.479718
O12   O     O_2   0.318670 0.561790 0.675630 -0.352999
O13   O     O_3   0.069120 0.554770 0.586270 -0.426018
O14   O     O_3   0.526680 0.394150 0.629950 -0.402742
O15   O     O_3   0.186843 0.705870 0.695243 -0.560979
P5    P     P_3+3 0.061186 0.226496 0.589286 0.459190
O16   O     O_3   0.607620 0.388570 0.462320 -0.419434
O17   O     O_3   0.103380 0.345110 0.593380 -0.430573
O18   O     O_2   0.190546 0.182495 0.544405 -0.358025
O19   O     O_3   0.096808 0.204249 0.675623 -0.501097
Ba2   Ba    Ba6+2 0.335710 0.459790 0.534460 1.527907
P6    P     P_3+3 0.639002 0.592166 0.276396 0.454563
C10   C     C_3   0.693961 0.768736 0.319266 0.497461
H19   H     H_    0.606241 0.755209 0.360279 0.135372
H20   H     H_    0.548174 0.862584 0.286590 0.256364
O20   O     O_3   0.582100 0.611510 0.537680 -0.404044
C11   C     C_3   0.421682 0.280987 0.309117 0.301169
H21   H     H_    0.296363 0.277857 0.327554 0.102121
H22   H     H_    0.483219 0.352924 0.316366 0.084851
C12   C     C_3   0.415508 0.235833 0.229156 -0.665417
H23   H     H_    0.377637 0.160999 0.223482 0.195170
H24   H     H_    0.538944 0.248004 0.208580 0.220403
P7    P     P_3+3 0.514249 0.273609 0.440490 0.438678
O21   O     O_2   0.334040 0.276520 0.462890 -0.367582
O22   O     O_3   0.510500 0.232146 0.347262 -0.571764
H25   H     H_    0.061196 0.714518 0.156729 0.134994
C13   C     C_3   0.057913 0.276406 0.727240 0.460691
H26   H     H_    0.146554 0.339538 0.728067 0.148291
H27   H     H_    0.933349 0.289150 0.716016 0.001958
C14   C     C_3   0.065708 0.251896 0.801673 -0.908338
H28   H     H_    0.189667 0.239710 0.815097 0.285428
H29   H     H_    0.035872 0.308574 0.843023 0.216321
H30   H     H_    0.977081 0.189355 0.802682 0.261126
P8    P     P_3+3 0.552121 0.400781 0.724683 0.421667
C15   C     C_3   0.531286 0.227110 0.689624 0.510318
H31   H     H_    0.663556 0.243400 0.682967 -0.003535
O23   O     O_2   0.432533 0.462002 0.759544 -0.397865
O24   O     O_3   0.478449 0.293029 0.742678 -0.529408
H32   H     H_    0.463847 0.221791 0.636998 0.141757
H33   H     H_    0.543075 0.082981 0.670934 0.207001
C16   C     C_3   0.498825 0.134935 0.712028 -0.976498
H34   H     H_    0.366629 0.114388 0.716627 0.299846
H35   H     H_    0.563633 0.138591 0.764957 0.250503
C17   C     C_R   0.995429 0.458311 0.049068 0.015637
C18   C     C_R   0.892681 0.416735 0.095693 0.100767
C19   C     C_R   0.730959 0.380574 0.072221 -0.168074
C20   C     C_R   0.671768 0.384725 0.003088 -0.160856
C21   C     C_R   0.773801 0.424104 0.955544 0.101122
C22   C     C_R   0.936119 0.461642 0.978468 0.014086
C23   C     C_R   0.716502 0.424099 0.885001 -0.206373
C24   C     C_R   0.820003 0.458743 0.835346 -0.044817
C25   C     C_R   0.982134 0.500620 0.858709 -0.007102
C26   C     C_R   0.039035 0.501602 0.930761 -0.009259
C27   C     C_R   0.768703 0.448692 0.762079 0.148369
C28   C     C_R   0.884593 0.474794 0.713532 -0.216546
C29   C     C_R   0.035314 0.529905 0.735487 0.253593
C30   C     C_R   0.087384 0.540933 0.810348 -0.087873
C31   C     C_R   0.157764 0.494665 0.072401 -0.009939
C32   C     C_R   0.216706 0.491714 0.143424 0.039089
C33   C     C_R   0.110320 0.453697 0.191941 -0.042900
C34   C     C_R   0.951608 0.412304 0.165260 -0.135966
H36   H     H_    0.650037 0.349164 0.107557 0.174216
H37   H     H_    0.546305 0.356076 0.986491 0.161096
H38   H     H_    0.591964 0.393762 0.868712 0.184086
H39   H     H_    0.871025 0.376645 0.198106 0.163921
C35   C     C_R   0.243121 0.586575 0.838196 -0.118960
C36   C     C_R   0.302410 0.582310 0.908072 0.117137
C37   C     C_R   0.200401 0.539679 0.954531 0.008570
C38   C     C_R   0.260409 0.534980 0.024826 0.009936
C39   C     C_R   0.464494 0.618026 0.931647 -0.174450
C40   C     C_R   0.524910 0.611072 0.000048 -0.191024
C41   C     C_R   0.423686 0.570166 0.047194 0.118362
C42   C     C_R   0.381669 0.527132 0.165576 -0.021859
C43   C     C_R   0.483656 0.564456 0.116245 -0.219833
C44   C     C_R   0.438347 0.527240 0.237224 0.296464
C45   C     C_R   0.330328 0.493322 0.285368 -0.420305
C46   C     C_R   0.166747 0.457992 0.265073 0.212625
H40   H     H_    0.323181 0.621823 0.804844 0.172323
H41   H     H_    0.545670 0.650037 0.896608 0.132685
H42   H     H_    0.651110 0.638216 0.016247 0.135843
H43   H     H_    0.610641 0.590059 0.130956 0.180361
H44   H     H_    0.373603 0.497330 0.340672 0.174016
C47   C     C_R   0.765575 0.232870 0.521407 -0.546926
C48   C     C_R   0.855634 0.176014 0.548947 0.262138
C49   C     C_R   0.791832 0.082864 0.542052 -0.283288
C50   C     C_R   0.636505 0.045707 0.506149 0.072518
C51   C     C_R   0.548699 0.107467 0.480246 -0.241711
C52   C     C_R   0.612666 0.199785 0.488210 0.316963
C53   C     C_R   0.408682 0.909678 0.461546 -0.260537
C54   C     C_R   0.338977 0.818390 0.457019 0.325661
C55   C     C_R   0.579757 0.790119 0.515839 0.246403
C56   C     C_R   0.651273 0.881690 0.520669 -0.343836
C57   C     C_R   0.566344 0.944700 0.494997 0.072755
C58   C     C_R   0.425207 0.758926 0.483224 -0.451218
H45   H     H_    0.334046 0.951299 0.440064 0.156969
H46   H     H_    0.866950 0.041473 0.563779 0.177542
H47   H     H_    0.771308 0.902218 0.546195 0.169486
H48   H     H_    0.432709 0.086122 0.451016 0.147516
H49   H     H_    0.369821 0.688604 0.480005 0.182677
H50   H     H_    0.820209 0.301816 0.520191 0.140718
C59   C     C_2   0.268227 0.916631 0.623040 0.545208
H51   H     H_    0.391610 0.932620 0.608186 0.010785
O25   O     O_2   0.161740 0.952100 0.599534 -0.545556
C60   C     C_2   0.822258 0.946339 0.788664 0.565508
H52   H     H_    0.749240 0.996509 0.778486 0.012620
O26   O     O_2   0.952837 0.971691 0.822786 -0.557631
C61   C     C_2   0.296633 0.269805 0.184453 0.494322
H53   H     H_    0.169836 0.262618 0.196763 0.071458
O27   O     O_2   0.340415 0.303402 0.132835 -0.591826
C62   C     C_3   0.834487 0.450499 0.637028 -0.377580
C63   C     C_3   0.747037 0.525417 0.619828 -0.387267
H54   H     H_    0.658963 0.546827 0.659979 0.222280
H55   H     H_    0.828053 0.589362 0.618666 0.227921
H56   H     H_    0.682808 0.496179 0.567863 0.285266
H57   H     H_    0.922380 0.434524 0.598956 0.237170
H58   H     H_    0.775172 0.379178 0.626080 0.148270
C64   C     C_2   0.275227 0.713606 0.264077 0.363274
H59   H     H_    0.338488 0.717272 0.214944 0.043163
O28   O     O_2   0.338853 0.685912 0.312317 -0.614858
C65   C     C_3   0.156650 0.859153 0.189623 -0.201824
C66   C     C_3   0.089885 0.944902 0.223573 -0.811475
H60   H     H_    0.968784 0.944770 0.197848 0.241421
H61   H     H_    0.080333 0.949978 0.282670 0.292003
H62   H     H_    0.172500 0.006158 0.214457 0.224960
H63   H     H_    0.285149 0.865985 0.209437 0.181254
H64   H     H_    0.156393 0.856070 0.130268 0.187552

loop_
_geom_bond_atom_site_label_1
_geom_bond_atom_site_label_2
_geom_bond_distance
_ccdc_geom_bond_type
C10   H19   1.105257 S    
C48   C49   1.407689 A    
C43   H43   1.080980 S    
P2    Ba1   3.395464 S    
P3    C54   1.833258 S    
C35   H40   1.079871 S    
C66   H60   1.109739 S    
P8    O23   1.543966 D    
O6    C10   1.410173 S    
C18   C19   1.402704 A    
C50   C51   1.419829 A    
O14   P8    1.775808 S    
C28   C29   1.402818 A    
Ba1   O16   2.826034 S    
C15   H31   1.110196 S    
C30   C35   1.411692 A    
C66   H61   1.108807 S    
C5    H8    1.112302 S    
C32   C33   1.429090 A    
O16   P7    1.759358 S    
P3    O11   1.765076 S    
O1    Ba1   2.834087 S    
C5    C59   1.487690 S    
C12   C61   1.495989 S    
C8    H15   1.113109 S    
C51   C52   1.394380 A    
C8    C9    1.524733 S    
C53   C57   1.423386 A    
C17   C22   1.420729 A    
C61   O27   1.219940 D    
C6    H10   1.103682 S    
C15   C16   1.519252 S    
C59   H51   1.078732 S    
C7    H14   1.111016 S    
C35   C36   1.411762 A    
O2    Ba1   2.926362 S    
P1    O1    1.526532 D    
P1    C46   1.892000 S    
C4    C5    1.530850 S    
C13   H27   1.109531 S    
C45   C46   1.402744 A    
C23   C24   1.410015 A    
C12   H24   1.112696 S    
O19   C13   1.404828 S    
C11   O22   1.398637 S    
C37   C38   1.422974 A    
C47   C52   1.383653 A    
P4    Ba2   3.390651 S    
P5    O18   1.546044 D    
C40   H42   1.083727 S    
C16   H34   1.110362 S    
C42   C44   1.419411 A    
P2    O10   1.751697 S    
C55   C58   1.388022 A    
C4    H6    1.109161 S    
C64   O28   1.213504 D    
C1    C10   1.521849 S    
C49   H46   1.076585 S    
C63   H55   1.095515 S    
C17   C31   1.407253 A    
C1    H2    1.110440 S    
O3    Ba1   2.791000 S    
P2    O20   1.579520 S    
P5    O17   1.761120 S    
P7    C52   1.832506 S    
O13   Ba2   2.927342 S    
C11   H21   1.109226 S    
C3    H5    1.106360 S    
C25   C26   1.424174 A    
C14   H30   1.110858 S    
O12   Ba2   2.834825 S    
H1    C10   1.100863 S    
C39   C40   1.400939 A    
C19   H36   1.082272 S    
O8    Ba1   2.794321 S    
C60   O26   1.220806 D    
C62   H58   1.094206 S    
C11   H22   1.110922 S    
O17   Ba2   2.794893 S    
C4    O15   1.393152 S    
P1    O5    1.750060 S    
O4    P6    1.545072 D    
C66   H62   1.110316 S    
C14   H29   1.109763 S    
C36   C37   1.411833 A    
C50   C57   1.522414 S    
C56   H47   1.074564 S    
C17   C18   1.409953 A    
O11   C2    1.410508 S    
C45   H44   1.082304 S    
P7    O22   1.750113 S    
P5    C48   1.847740 S    
Ba1   O13   2.815536 S    
P1    O2    1.572493 S    
C13   C14   1.520374 S    
P4    O12   1.526924 D    
C58   H49   1.082246 S    
C53   H45   1.074311 S    
P4    O13   1.572328 S    
C21   C23   1.401761 A    
C64   H59   1.085578 S    
C15   H32   1.111147 S    
C47   H50   1.076515 S    
C54   C58   1.386603 A    
C27   C28   1.413496 A    
C12   H23   1.111330 S    
P1    Ba1   3.390011 S    
C7    H12   1.110753 S    
C24   C25   1.423481 A    
O10   C8    1.404941 S    
Ba1   O20   2.925605 S    
C63   H56   1.085714 S    
Ba2   O21   2.844695 S    
C1    H3    1.105794 S    
C40   C41   1.405293 A    
C18   C34   1.406020 A    
C23   H38   1.081140 S    
C9    H17   1.112195 S    
C16   H35   1.110597 S    
P2    O7    1.526095 D    
H33   C16   1.110163 S    
C24   C27   1.408932 A    
O3    P6    1.741744 S    
P2    C55   1.841478 S    
P3    O8    1.766259 S    
C3    H25   1.113527 S    
C55   C56   1.406239 A    
C32   C42   1.419941 A    
P4    C29   1.934014 S    
C65   H64   1.111697 S    
C36   C39   1.404639 A    
P7    O21   1.579965 D    
O7    Ba1   2.844609 S    
C53   C54   1.399101 A    
C60   H52   1.085351 S    
C15   O24   1.406064 S    
C59   O25   1.221831 D    
C62   H57   1.064107 S    
C11   C12   1.530208 S    
C3    C65   1.547285 S    
C6    C7    1.523337 S    
O5    C6    1.394303 S    
P8    O24   1.749396 S    
C14   H28   1.110655 S    
C26   C37   1.406806 A    
C41   C43   1.405403 A    
Ba2   O20   2.825586 S    
C56   C57   1.418676 A    
C65   C66   1.528773 S    
C5    H9    1.110652 S    
C9    C60   1.500768 S    
C2    C64   1.497845 S    
C2    H4    1.109634 S    
C20   C21   1.403983 A    
C39   H41   1.083684 S    
C8    H16   1.112600 S    
C44   C45   1.406757 A    
P8    C27   1.904689 S    
C6    H11   1.109955 S    
O2    Ba2   2.816021 S    
C21   C22   1.408907 A    
C47   C48   1.387262 A    
C51   H48   1.074248 S    
Ba1   Ba2   4.604383 S    
C25   C30   1.436722 A    
O16   Ba2   2.924765 S    
O14   Ba2   2.790353 S    
C9    H18   1.112730 S    
C31   C32   1.425691 A    
C7    H13   1.105920 S    
C28   C62   1.453400 S    
C38   C41   1.407433 A    
C1    H20   1.109611 S    
C4    H7    1.110169 S    
C33   C34   1.410971 A    
C13   H26   1.111390 S    
C22   C26   1.414330 A    
C65   H63   1.110038 S    
P5    O19   1.750741 S    
C19   C20   1.397959 A    
C31   C38   1.413680 A    
C29   C30   1.437449 A    
P6    C44   1.862526 S    
P3    O9    1.544355 D    
C20   H37   1.083776 S    
C34   H39   1.078906 S    
C62   C63   1.519041 S    
O6    P6    1.759796 S    
C42   C43   1.415120 A    
C63   H54   1.110171 S    
C61   H53   1.084153 S    
P4    O15   1.746905 S    
C33   C46   1.431988 A    
C49   C50   1.428602 A    
C2    C3    1.545445 S    
