data_mof_unit_11965.cif
_audit_creation_date              2012-12-10T20:35:48-0500
_audit_creation_method            fapswitch 2.2
_symmetry_space_group_name_H-M    P1
_symmetry_Int_Tables_number       1
_space_group_crystal_system       triclinic
_cell_length_a                    15.745029
_cell_length_b                    10.642557
_cell_length_c                    9.932889
_cell_angle_alpha                 90.205777
_cell_angle_beta                  91.967474
_cell_angle_gamma                 90.811292
_cell_volume                      1663.26625284

loop_
_atom_site_label
_atom_site_type_symbol
_atom_type_description
_atom_site_fract_x
_atom_site_fract_y
_atom_site_fract_z
_atom_type_partial_charge
C1    C     C_R   0.508425 0.260461 0.499162 0.874438
C2    C     C_3   0.955604 0.407088 0.613414 0.217081
C3    C     C_3   0.917978 0.512542 0.516548 0.216203
C4    C     C_3   0.955098 0.647436 0.556152 -0.095829
C5    C     C_3   0.055124 0.642517 0.552049 -0.231459
C6    C     C_1   0.826054 0.508117 0.512309 0.007035
C7    C     C_1   0.174469 0.506566 0.492745 -0.055851
C8    C     C_1   0.249661 0.503101 0.492508 -0.177729
C9    C     C_R   0.550500 0.065406 0.613730 -0.005954
C10   C     C_R   0.533053 0.130334 0.494390 -0.196412
C11   C     C_R   0.537566 0.062959 0.370550 -0.044177
C12   C     C_R   0.338470 0.500018 0.497768 0.925405
C13   C     C_R   0.531207 0.932538 0.374764 -0.191232
C14   C     C_R   0.525060 0.871126 0.498659 -0.158498
C15   C     C_R   0.547268 0.936964 0.615975 0.153296
C16   C     C_3   0.515232 0.932808 0.756275 -0.267703
C17   C     C_3   0.520189 0.077087 0.753786 -0.255163
C18   C     C_R   0.426220 0.510390 0.067535 0.177844
C19   C     C_R   0.573560 0.507593 0.077406 -0.087310
C20   C     C_R   0.573919 0.513476 0.934577 0.028983
C21   C     C_R   0.425851 0.510728 0.926148 0.136071
C22   C     C_3   0.344980 0.433133 0.919238 0.127843
C23   C     C_R   0.504625 0.740100 0.500262 0.892697
C24   C     C_3   0.348170 0.430751 0.073971 -0.515910
C25   C     C_R   0.661623 0.499914 0.501993 0.881139
C26   C     C_3   0.054010 0.405454 0.597595 -0.550582
C27   C     C_3   0.041973 0.485212 0.360746 -0.418205
C28   C     C_3   0.944723 0.488639 0.368680 -0.487532
C29   C     C_1   0.750626 0.503356 0.507032 -0.152962
C30   C     C_3   0.083226 0.510729 0.501460 0.222911
H1    H     H_    0.089090 0.413019 0.696398 0.125382
H2    H     H_    0.934283 0.713965 0.475384 0.150280
H3    H     H_    0.527060 0.880106 0.280930 0.203652
H4    H     H_    0.448955 0.895440 0.758837 0.154805
H5    H     H_    0.456585 0.119831 0.756295 0.181123
H6    H     H_    0.632630 0.515112 0.135819 0.182938
H7    H     H_    0.073631 0.313772 0.555130 0.201174
H8    H     H_    0.295580 0.481140 0.121734 0.216544
H9    H     H_    0.362052 0.337326 0.118829 0.213004
H10   H     H_    0.063700 0.556968 0.287704 0.189408
H11   H     H_    0.061153 0.391689 0.322436 0.189725
H12   H     H_    0.916137 0.400771 0.325451 0.190968
H13   H     H_    0.920361 0.564958 0.301947 0.194713
H14   H     H_    0.075126 0.712914 0.475979 0.167175
N1    N     N_R   0.499430 0.499140 0.142800 -0.127226
N2    N     N_R   0.499430 0.499180 0.857150 -0.155968
O1    O     O_R   0.500010 0.316790 0.614690 -0.589836
O2    O     O_R   0.500000 0.316760 0.385350 -0.638542
O3    O     O_R   0.377150 0.500020 0.614720 -0.610138
O4    O     O_R   0.377140 0.499990 0.385380 -0.608307
O5    O     O_R   0.500000 0.683240 0.614650 -0.631997
O6    O     O_R   0.499990 0.683210 0.385310 -0.619531
O7    O     O_R   0.622860 0.500010 0.614620 -0.632569
O8    O     O_R   0.622850 0.499980 0.385280 -0.635269
Zn1   Zn    Zn3+2 0.500010 0.500020 0.653130 0.978697
Zn2   Zn    Zn3+2 0.499990 0.499980 0.346870 0.954166
N3    N     N_2   0.918981 0.282924 0.576868 -0.287810
H15   H     H_    0.926580 0.256927 0.478162 0.225321
C31   C     C_3   0.935185 0.177614 0.666667 -0.753504
H16   H     H_    0.906626 0.090485 0.621524 0.235114
H17   H     H_    0.905466 0.192113 0.764995 0.275676
H18   H     H_    0.004440 0.163227 0.683021 0.226010
C32   C     C_2   0.935188 0.437430 0.758799 0.479130
H19   H     H_    0.983344 0.475331 0.828911 0.029334
O9    O     O_2   0.863204 0.422468 0.798094 -0.510957
C33   C     C_2   0.545574 0.122446 0.236465 0.460614
H20   H     H_    0.581449 0.209383 0.225745 0.115927
O10   O     O_2   0.513400 0.072987 0.135594 -0.579969
C34   C     C_2   0.574599 0.869072 0.856295 0.417652
H21   H     H_    0.549617 0.832017 0.948766 0.083612
O11   O     O_2   0.650518 0.861248 0.836687 -0.625271
C35   C     C_2   0.587648 0.139627 0.843523 0.571488
H22   H     H_    0.653342 0.110403 0.840840 0.104721
O12   O     O_2   0.569449 0.225521 0.918135 -0.581482
C36   C     C_2   0.654482 0.551175 0.876388 0.478167
H23   H     H_    0.655337 0.622989 0.799934 0.113418
O13   O     O_2   0.721503 0.509304 0.920628 -0.530759
C37   C     C_2   0.271614 0.506436 0.858354 0.453984
H24   H     H_    0.235164 0.469664 0.772409 0.062103
O14   O     O_2   0.253526 0.609204 0.903496 -0.577103
N4    N     N_2   0.355965 0.309882 0.858679 -0.296182
H25   H     H_    0.411801 0.268882 0.890858 0.282439
C38   C     C_3   0.284800 0.222304 0.864836 -0.796782
H26   H     H_    0.301804 0.131846 0.817423 0.255364
H27   H     H_    0.228231 0.258504 0.808746 0.227979
H28   H     H_    0.268770 0.204040 0.971073 0.251767
C39   C     C_2   0.101378 0.678114 0.683599 0.427463
H29   H     H_    0.090773 0.624927 0.774423 0.087799
O15   O     O_2   0.150641 0.767779 0.688636 -0.540746
N5    N     N_2   0.925939 0.699329 0.683795 -0.317258
H30   H     H_    0.962804 0.774487 0.717891 0.241986
C40   C     C_3   0.837358 0.733532 0.690948 -0.679782
H31   H     H_    0.829879 0.805761 0.770671 0.253477
H32   H     H_    0.798930 0.651179 0.720534 0.287251
H33   H     H_    0.812846 0.772797 0.593880 0.217000

loop_
_geom_bond_atom_site_label_1
_geom_bond_atom_site_label_2
_ccdc_geom_bond_type
C33   O10   D    
C39   H29   S    
C32   O9    D    
C18   C21   A    
C19   C20   A    
C3    C6    S    
C12   O3    A    
C23   O6    A    
C2    N3    S    
C7    C8    T    
C26   H7    S    
C18   C24   S    
C3    C28   S    
C25   O7    A    
C5    C30   S    
C19   H6    S    
C37   O14   D    
N3    C31   S    
C15   C16   S    
C24   H9    S    
C34   O11   D    
C16   H4    S    
N5    C40   S    
N1    Zn2   S    
C16   C17   S    
N2    Zn1   S    
C24   H8    S    
C9    C10   A    
C11   C33   S    
C33   H20   S    
C31   H16   S    
C7    C30   S    
C13   C14   A    
C27   C30   S    
N4    C38   S    
N4    H25   S    
C4    N5    S    
O7    Zn1   S    
C25   C29   S    
O8    Zn2   S    
C31   H17   S    
C16   C34   S    
C22   N4    S    
C25   O8    A    
C22   C37   S    
C35   O12   D    
C37   H24   S    
C1    O1    A    
O3    Zn1   S    
C40   H33   S    
O4    Zn2   S    
C20   C36   S    
C14   C23   S    
C36   H23   S    
C13   H3    S    
C27   H11   S    
C23   O5    A    
C38   H26   S    
C27   H10   S    
C8    C12   S    
C6    C29   T    
C40   H32   S    
C2    C26   S    
C36   O13   D    
C4    H2    S    
C9    C17   S    
C38   H27   S    
C5    H14   S    
C26   C30   S    
C39   O15   D    
C22   C24   S    
C3    C4    S    
C18   N1    A    
C2    C32   S    
O1    Zn1   S    
C21   N2    A    
O2    Zn2   S    
C31   H18   S    
C26   H1    S    
C1    C10   S    
C35   H22   S    
C12   O4    A    
C19   N1    A    
C1    O2    A    
C28   H13   S    
C2    C3    S    
C9    C15   A    
C11   C13   A    
N5    H30   S    
C28   H12   S    
C40   H31   S    
O5    Zn1   S    
C34   H21   S    
C10   C11   A    
C32   H19   S    
C5    C39   S    
C4    C5    S    
C38   H28   S    
C17   C35   S    
C27   C28   S    
C14   C15   A    
C17   H5    S    
N3    H15   S    
C21   C22   S    
C20   N2    A    
O6    Zn2   S    
