data_mof_unit_14637.cif
_audit_creation_date              2012-12-10T17:27:50-0500
_audit_creation_method            fapswitch 2.2
_symmetry_space_group_name_H-M    P1
_symmetry_Int_Tables_number       1
_space_group_crystal_system       triclinic
_cell_length_a                    10.665319
_cell_length_b                    11.980372
_cell_length_c                    12.893415
_cell_angle_alpha                 94.090203
_cell_angle_beta                  89.261557
_cell_angle_gamma                 86.125976
_cell_volume                      1639.23909539

loop_
_atom_site_label
_atom_site_type_symbol
_atom_type_description
_atom_site_fract_x
_atom_site_fract_y
_atom_site_fract_z
_atom_type_partial_charge
C1    C     C_R   0.497388 0.522921 0.700230 0.889351
C2    C     C_R   0.546285 0.634398 0.859761 -0.191331
C3    C     C_R   0.464149 0.451014 0.867732 -0.224103
C4    C     C_R   0.739700 0.499027 0.493546 1.067862
C5    C     C_R   0.481348 0.455766 0.973432 0.073416
C6    C     C_R   0.528579 0.552094 0.024399 0.070535
C7    C     C_R   0.542824 0.556166 0.131813 0.310148
C8    C     C_R   0.479530 0.362790 0.133160 0.386117
C9    C     C_R   0.457465 0.362537 0.027024 -0.352973
C10   C     C_R   0.372532 0.955458 0.414429 -0.300389
C11   C     C_R   0.386742 0.838922 0.420202 0.049051
C12   C     C_R   0.943496 0.435481 0.404756 -0.024390
C13   C     C_R   0.555187 0.857544 0.537071 -0.006218
C14   C     C_R   0.545083 0.975472 0.533505 -0.033653
C15   C     C_R   0.452454 0.024673 0.470821 0.018828
C16   C     C_R   0.504725 0.477348 0.299036 1.000143
C17   C     C_R   0.442704 0.142147 0.465674 -0.063777
C18   C     C_R   0.612131 0.161873 0.581347 -0.095886
C19   C     C_R   0.623755 0.045434 0.591463 0.362910
C20   C     C_R   0.260612 0.499726 0.498941 0.872020
C21   C     C_R   0.889050 0.374409 0.319202 0.472864
C22   C     C_R   0.967113 0.315091 0.242103 -0.233457
C23   C     C_R   0.872740 0.498357 0.486625 -0.169377
C24   C     C_R   0.096528 0.317185 0.246506 -0.182887
C25   C     C_R   0.150451 0.377867 0.327708 -0.168692
C26   C     C_R   0.075261 0.436296 0.407996 0.020364
C27   C     C_3   0.667127 0.006191 0.757064 0.076646
C28   C     C_3   0.759247 0.942839 0.824510 -0.810006
C29   C     C_3   0.538639 0.175407 0.140324 0.101257
C30   C     C_3   0.560435 0.087750 0.218702 -0.805559
C31   C     C_R   0.929166 0.562314 0.566153 0.420995
C32   C     C_R   0.058181 0.562027 0.566948 -0.304880
C33   C     C_R   0.129080 0.498384 0.490616 -0.109829
C34   C     C_R   0.511695 0.463445 0.186418 -0.215310
C35   C     C_R   0.499132 0.538578 0.811061 -0.040658
C36   C     C_R   0.561749 0.641079 0.966301 -0.188530
H1    H     H_    0.423155 0.288890 0.985991 0.150140
H2    H     H_    0.155474 0.272649 0.185916 0.174634
H3    H     H_    0.251589 0.379369 0.325791 0.168903
H4    H     H_    0.104046 0.609514 0.628615 0.144680
H5    H     H_    0.602659 0.714600 0.001237 0.152054
H6    H     H_    0.910762 0.661996 0.693031 0.333294
H7    H     H_    0.575422 0.966895 0.761041 0.126439
H8    H     H_    0.654714 0.095046 0.789419 0.137126
H9    H     H_    0.851562 0.980506 0.823795 0.260686
H10   H     H_    0.722442 0.947266 0.905787 0.194702
H11   H     H_    0.772028 0.853424 0.794659 0.261792
H12   H     H_    0.575596 0.701767 0.815196 0.163228
H13   H     H_    0.740005 0.327079 0.247140 0.325569
H14   H     H_    0.543502 0.716194 0.162822 0.321472
H15   H     H_    0.632690 0.199719 0.114466 0.124058
H16   H     H_    0.490131 0.136035 0.072726 0.135034
H17   H     H_    0.469033 0.057983 0.242749 0.250401
H18   H     H_    0.620101 0.015182 0.183004 0.205362
H19   H     H_    0.608714 0.124145 0.287685 0.271232
H20   H     H_    0.427790 0.376869 0.828803 0.151337
H21   H     H_    0.372486 0.181311 0.417501 0.164453
H22   H     H_    0.674145 0.215898 0.623649 0.158038
H23   H     H_    0.300084 0.991027 0.366042 0.147724
H24   H     H_    0.325056 0.785579 0.376763 0.133264
H25   H     H_    0.624721 0.817397 0.585144 0.184008
H26   H     H_    0.927197 0.268265 0.177076 0.128747
N1    N     N_R   0.523130 0.207800 0.519340 -0.122085
N2    N     N_R   0.476870 0.792180 0.480660 -0.111755
O1    O     O_R   0.506170 0.421690 0.658830 -0.634503
O2    O     O_3   0.715291 0.000351 0.654139 -0.602371
O3    O     O_3   0.760753 0.375074 0.309566 -0.782682
O4    O     O_3   0.590764 0.647918 0.184534 -0.730038
O5    O     O_3   0.462834 0.267987 0.186458 -0.599903
O6    O     O_R   0.491330 0.609320 0.646410 -0.627989
O7    O     O_R   0.690660 0.406170 0.506210 -0.603602
O8    O     O_R   0.675810 0.593790 0.493790 -0.587789
O9    O     O_R   0.508670 0.390680 0.353590 -0.562342
O10   O     O_R   0.493830 0.578310 0.341170 -0.589651
O11   O     O_R   0.324190 0.406210 0.506210 -0.631587
O12   O     O_R   0.309340 0.593830 0.493790 -0.633107
O13   O     O_3   0.855885 0.621803 0.643636 -0.779874
Zn1   Zn    Zn3+2 0.509910 0.374720 0.508290 0.975285
Zn2   Zn    Zn3+2 0.490090 0.625280 0.491710 0.985016

loop_
_geom_bond_atom_site_label_1
_geom_bond_atom_site_label_2
_ccdc_geom_bond_type
C2    C35   A    
C28   H11   S    
O12   Zn2   S    
C30   H18   S    
C12   C23   A    
C28   H10   S    
C8    O5    S    
C16   O10   A    
O8    Zn2   S    
C10   C15   A    
C5    C6    A    
C18   N1    A    
C20   O12   A    
C19   O2    S    
C18   C19   A    
C16   C34   S    
C7    O4    S    
C27   H8    S    
C18   H22   S    
C8    C9    A    
C1    O1    A    
O9    Zn1   S    
O7    Zn1   S    
C13   C14   A    
C21   O3    S    
C36   H5    S    
C31   O13   S    
C29   O5    S    
C30   H17   S    
C28   H9    S    
C16   O9    A    
C24   C25   A    
C11   N2    A    
C4    C23   S    
C2    H12   S    
C25   C26   A    
C12   C21   A    
C20   O11   A    
C12   C26   A    
C23   C31   A    
C5    C9    A    
C29   C30   S    
C22   H26   S    
C3    H20   S    
C26   C33   A    
C24   H2    S    
C31   C32   A    
C3    C35   A    
C9    H1    S    
C8    C34   A    
C20   C33   S    
O10   Zn2   S    
N2    Zn2   S    
C22   C24   A    
C11   H24   S    
C4    O8    A    
C1    C35   S    
C29   H15   S    
C2    C36   A    
C15   C17   A    
O1    Zn1   S    
H13   O3    S    
O6    Zn2   S    
C14   C19   A    
C3    C5    A    
C6    C7    A    
C30   H19   S    
C1    O6    A    
C32   C33   A    
C10   H23   S    
C27   O2    S    
C17   N1    A    
C13   N2    A    
C7    C34   A    
C6    C36   A    
C32   H4    S    
O11   Zn1   S    
C10   C11   A    
C27   H7    S    
C13   H25   S    
H6    O13   S    
C27   C28   S    
C14   C15   A    
C21   C22   A    
H14   O4    S    
C29   H16   S    
C4    O7    A    
C25   H3    S    
C17   H21   S    
N1    Zn1   S    
