data_mof_unit_59626.cif
_audit_creation_date              2012-12-10T20:34:55-0500
_audit_creation_method            fapswitch 2.2
_symmetry_space_group_name_H-M    P1
_symmetry_Int_Tables_number       1
_space_group_crystal_system       triclinic
_cell_length_a                    10.729169
_cell_length_b                    10.736624
_cell_length_c                    9.938736
_cell_angle_alpha                 88.72212
_cell_angle_beta                  91.22233
_cell_angle_gamma                 91.506153
_cell_volume                      1143.96647947

loop_
_atom_site_label
_atom_site_type_symbol
_atom_type_description
_atom_site_fract_x
_atom_site_fract_y
_atom_site_fract_z
_atom_type_partial_charge
C1    C     C_R   0.508723 0.260622 0.501083 0.978553
C2    C     C_R   0.538957 0.934014 0.619161 -0.055452
C3    C     C_3   0.461664 0.923385 0.743925 0.172680
C4    C     C_R   0.257860 0.495080 0.498713 0.969574
C5    C     C_3   0.469746 0.066372 0.747372 0.591220
C6    C     C_R   0.394330 0.471599 0.068948 0.103115
C7    C     C_R   0.598430 0.550456 0.073496 0.140576
C8    C     C_R   0.598321 0.549751 0.928232 0.148689
C9    C     C_R   0.393527 0.473122 0.927586 0.058675
C10   C     C_3   0.313893 0.357835 0.923041 -0.508198
C11   C     C_3   0.316918 0.355482 0.075155 0.474972
C12   C     C_3   0.878000 0.489098 0.502104 -0.136920
C13   C     C_R   0.505959 0.740213 0.498607 0.947581
C14   C     C_R   0.741468 0.492197 0.501267 0.996556
C15   C     C_3   0.073837 0.397577 0.607581 -0.593349
C16   C     C_3   0.929533 0.386849 0.603639 0.640573
C17   C     C_3   0.074085 0.625164 0.525288 -0.142722
C18   C     C_3   0.066051 0.448287 0.356963 0.492257
C19   C     C_3   0.120967 0.491181 0.496972 -0.082185
C20   C     C_3   0.930504 0.620751 0.540801 -0.310236
C21   C     C_3   0.922872 0.456928 0.358197 0.410038
C22   C     C_R   0.543647 0.061822 0.621570 -0.134743
C23   C     C_R   0.537673 0.130804 0.501712 -0.201587
C24   C     C_R   0.560644 0.070928 0.380399 0.659140
C25   C     C_R   0.554616 0.941275 0.376679 -0.043191
C26   C     C_R   0.530901 0.872473 0.496945 -0.168892
F1    F     F_    0.579259 0.136293 0.263507 -0.580179
F2    F     F_    0.355582 0.121810 0.726295 -0.696060
F3    F     F_    0.380774 0.255378 0.129551 -0.582821
F4    F     F_    0.893193 0.269601 0.558474 -0.639897
F5    F     F_    0.108981 0.528718 0.255501 -0.712352
F6    F     F_    0.864102 0.348235 0.312879 -0.610195
H1    H     H_    0.107940 0.429466 0.706679 0.183348
H2    H     H_    0.902276 0.724158 0.362998 0.199083
H3    H     H_    0.491469 0.914442 0.186460 0.227838
H4    H     H_    0.648304 0.909531 0.207039 0.208518
H5    H     H_    0.280634 0.892343 0.800116 0.213559
H6    H     H_    0.295833 0.915329 0.632911 0.210297
H7    H     H_    0.618100 0.883664 0.862338 0.159585
H8    H     H_    0.482184 0.880428 0.945102 0.190187
H9    H     H_    0.633638 0.087570 0.860997 0.154406
H10   H     H_    0.551523 0.214698 0.845089 0.224981
H11   H     H_    0.667076 0.679746 0.199944 0.213400
H12   H     H_    0.895465 0.531306 0.285259 0.145709
H13   H     H_    0.772109 0.640936 0.088919 0.138806
H14   H     H_    0.710475 0.696589 0.876629 0.158961
H15   H     H_    0.780996 0.558888 0.890752 0.172946
H16   H     H_    0.929373 0.469456 0.790087 0.119634
H17   H     H_    0.899917 0.316013 0.794464 0.219828
H18   H     H_    0.107877 0.634736 0.731881 0.199589
H19   H     H_    0.105638 0.772677 0.649961 0.190966
H20   H     H_    0.068070 0.298387 0.231255 0.232119
H21   H     H_    0.064342 0.255301 0.391714 0.240533
H22   H     H_    0.099269 0.685662 0.436976 0.212054
H23   H     H_    0.115232 0.304458 0.598252 0.227843
H24   H     H_    0.219322 0.374749 0.881737 0.159161
H25   H     H_    0.360852 0.279357 0.879833 0.292110
H26   H     H_    0.225185 0.370210 0.117744 0.124770
H27   H     H_    0.907254 0.635477 0.647718 0.203307
H28   H     H_    0.897697 0.806538 0.504288 0.215744
N1    N     N_R   0.499150 0.499140 0.142800 -0.091166
N2    N     N_3   0.881254 0.398051 0.739791 -0.420082
N3    N     N_3   0.135692 0.681157 0.643602 -0.428678
N4    N     N_3   0.104412 0.321350 0.326202 -0.413662
N5    N     N_R   0.499150 0.499180 0.857150 -0.099140
N6    N     N_3   0.871012 0.721373 0.461869 -0.463665
N7    N     N_3   0.563329 0.882139 0.249640 -0.434113
N8    N     N_3   0.335698 0.872043 0.718256 -0.394540
N9    N     N_3   0.523976 0.856776 0.855508 -0.429701
N10   N     N_3   0.542085 0.118545 0.861085 -0.398791
N11   N     N_3   0.700866 0.604653 0.148736 -0.404761
N12   N     N_3   0.700830 0.602206 0.855353 -0.388508
O1    O     O_R   0.500020 0.316790 0.614690 -0.623000
O2    O     O_R   0.500000 0.316760 0.385350 -0.509538
O3    O     O_R   0.314800 0.500000 0.614670 -0.608736
O4    O     O_R   0.314790 0.499960 0.385330 -0.581779
O5    O     O_R   0.500000 0.683240 0.614650 -0.579860
O6    O     O_R   0.499980 0.683210 0.385310 -0.626744
O7    O     O_R   0.685210 0.500040 0.614670 -0.614550
O8    O     O_R   0.685200 0.500000 0.385330 -0.585851
Zn1   Zn    Zn3+2 0.500010 0.500020 0.653130 1.001897
Zn2   Zn    Zn3+2 0.499990 0.499980 0.346870 1.070466

loop_
_geom_bond_atom_site_label_1
_geom_bond_atom_site_label_2
_ccdc_geom_bond_type
H13   N11   S    
C18   C21   S    
C3    N8    S    
C25   N7    S    
C24   F1    S    
H2    N6    S    
C6    C9    A    
H4    N7    S    
C7    C8    A    
C15   C19   S    
C1    O2    A    
C6    N1    A    
C20   N6    S    
C3    N9    S    
N1    Zn2   S    
C7    N11   S    
H21   N4    S    
C16   F4    S    
C15   C16   S    
C5    F2    S    
H5    N8    S    
H10   N10   S    
C17   C20   S    
C18   C19   S    
C7    N1    A    
C4    O3    A    
C4    C19   S    
N5    Zn1   S    
C5    C22   S    
C12   C16   S    
C2    C22   A    
C23   C24   A    
C14   O8    A    
C11   H26   S    
C10   H24   S    
C9    C10   S    
H14   N12   S    
H28   N6    S    
C8    N5    A    
H18   N3    S    
C16   N2    S    
O2    Zn2   S    
O1    Zn1   S    
C21   F6    S    
C13   O5    A    
C8    N12   S    
H8    N9    S    
C10   H25   S    
H19   N3    S    
C24   C25   A    
O8    Zn2   S    
H20   N4    S    
O4    Zn2   S    
C6    C11   S    
O7    Zn1   S    
O3    Zn1   S    
C25   C26   A    
C12   C21   S    
C15   H23   S    
C5    N10   S    
C21   H12   S    
O6    Zn2   S    
H16   N2    S    
H3    N7    S    
C12   C20   S    
H7    N9    S    
C2    C26   A    
C14   O7    A    
C20   H27   S    
C12   C14   S    
C1    C23   S    
C13   C26   S    
C13   O6    A    
H11   N11   S    
H17   N2    S    
H6    N8    S    
C3    C5    S    
C1    O1    A    
C2    C3    S    
C17   N3    S    
C18   N4    S    
C17   C19   S    
C9    N5    A    
H15   N12   S    
C4    O4    A    
C10   C11   S    
C11   F3    S    
O5    Zn1   S    
C22   C23   A    
C18   F5    S    
C17   H22   S    
C15   H1    S    
H9    N10   S    
