data_mof_unit_45644.cif
_audit_creation_date              2012-12-10T18:00:19-0500
_audit_creation_method            fapswitch 2.2
_symmetry_space_group_name_H-M    P1
_symmetry_Int_Tables_number       1
_space_group_crystal_system       triclinic
_cell_length_a                    10.781492
_cell_length_b                    9.657368
_cell_length_c                    10.670551
_cell_angle_alpha                 89.595135
_cell_angle_beta                  92.875899
_cell_angle_gamma                 89.671276
_cell_volume                      1109.57906221

loop_
_atom_site_label
_atom_site_type_symbol
_atom_type_description
_atom_site_fract_x
_atom_site_fract_y
_atom_site_fract_z
_atom_type_partial_charge
C1    C     C_R   0.871267 0.499642 0.500911 -0.325657
C2    C     C_3   0.598359 0.427465 0.047869 0.269029
C3    C     C_3   0.493172 0.370648 0.960659 0.294580
C4    C     C_3   0.506828 0.629352 0.039341 0.294579
C5    C     C_3   0.500438 0.499238 0.876129 -0.363665
C6    C     C_3   0.499562 0.500762 0.123871 -0.363666
C7    C     C_R   0.439350 0.074479 0.405370 0.440036
C8    C     C_R   0.560649 0.925521 0.594630 0.440032
C9    C     C_R   0.560554 0.072016 0.594648 0.455515
C10   C     C_R   0.439446 0.927984 0.405352 0.455519
C11   C     C_R   0.070879 0.439187 0.600592 0.339082
C12   C     C_R   0.128733 0.500358 0.499089 -0.325656
C13   C     C_R   0.929121 0.560812 0.399408 0.339080
C14   C     C_R   0.941617 0.439542 0.601850 0.304590
C15   C     C_R   0.058383 0.560458 0.398150 0.304590
C16   C     C_R   0.262756 0.500261 0.498535 0.927788
C17   C     C_R   0.737244 0.499739 0.501465 0.927786
C18   C     C_R   0.499463 0.500437 0.260038 0.973849
C19   C     C_R   0.500537 0.499562 0.739962 0.973849
C20   C     C_3   0.394322 0.442474 0.036640 0.265955
C21   C     C_3   0.605678 0.557526 0.963360 0.265991
C22   C     C_3   0.401641 0.572535 0.952130 0.268996
Cl1   Cl    Cl    0.255388 0.362841 0.083816 -0.323400
Cl2   Cl    Cl    0.744612 0.637160 0.916184 -0.323371
Cl3   Cl    Cl    0.273069 0.671913 0.889217 -0.343123
Cl4   Cl    Cl    0.726930 0.328086 0.110783 -0.343093
Cl5   Cl    Cl    0.160131 0.365233 0.728241 -0.362788
Cl6   Cl    Cl    0.839869 0.634766 0.271759 -0.362780
Cl7   Cl    Cl    0.868969 0.370864 0.733318 -0.388877
Cl8   Cl    Cl    0.131031 0.629136 0.266682 -0.388878
Cu1   Cu    Cu3+1 0.500000 0.640660 0.500000 1.056747
Cu2   Cu    Cu3+1 0.500000 0.359340 0.500000 1.056746
H1    H     H_    0.336299 0.223604 0.340556 0.376924
H2    H     H_    0.663701 0.776396 0.659444 0.376923
H3    H     H_    0.659324 0.221156 0.659738 0.385544
H4    H     H_    0.340676 0.778844 0.340262 0.385544
H5    H     H_    0.482754 0.175746 0.993493 0.386345
H6    H     H_    0.517179 0.824259 0.006505 0.386347
N1    N     N_R   0.500000 0.852070 0.500000 -0.355094
N2    N     N_R   0.500000 0.147930 0.500000 -0.355095
O1    O     O_R   0.319640 0.618740 0.499990 -0.590531
O2    O     O_3   0.626275 0.860801 0.692267 -0.602417
O3    O     O_3   0.626548 0.134188 0.691947 -0.566072
O4    O     O_3   0.373452 0.865812 0.308053 -0.566086
O5    O     O_3   0.485729 0.234547 0.917203 -0.558528
O6    O     O_3   0.514275 0.765452 0.082797 -0.558529
O7    O     O_R   0.680360 0.381260 0.500010 -0.590531
O8    O     O_R   0.680360 0.618740 0.500010 -0.588565
O9    O     O_R   0.319640 0.381260 0.499990 -0.588566
O10   O     O_R   0.499970 0.618770 0.316850 -0.531917
O11   O     O_R   0.500030 0.381230 0.683150 -0.531918
O12   O     O_R   0.500030 0.618770 0.683150 -0.575368
O13   O     O_R   0.499970 0.381230 0.316850 -0.575368
O14   O     O_3   0.373725 0.139199 0.307733 -0.602427

loop_
_geom_bond_atom_site_label_1
_geom_bond_atom_site_label_2
_ccdc_geom_bond_type
C7    C10   A    
C7    N2    A    
C20   Cl1   S    
Cu2   O11   S    
C5    C19   S    
C8    N1    A    
C4    C22   S    
C1    C17   S    
Cu1   Cu2   S    
H2    O2    S    
C12   C15   A    
C11   Cl5   S    
Cu1   O12   S    
C11   C12   A    
C17   O8    A    
C2    C21   S    
Cu2   N2    S    
C2    C3    S    
C9    O3    S    
C5    C21   S    
C3    C20   S    
C13   Cl6   S    
C4    O6    S    
C4    C21   S    
C2    C6    S    
C6    C20   S    
C12   C16   S    
C19   O12   A    
C4    C6    S    
C11   C14   A    
Cu1   N1    S    
Cu1   O8    S    
C13   C15   A    
C6    C18   S    
Cu2   O7    S    
Cu2   O9    S    
H4    O4    S    
H6    O6    S    
C14   Cl7   S    
Cu1   O10   S    
C10   O4    S    
C19   O11   A    
Cu2   O13   S    
H3    O3    S    
C16   O9    A    
C18   O10   A    
C15   Cl8   S    
C2    Cl4   S    
C21   Cl2   S    
H1    O14   S    
C8    C9    A    
C1    C14   A    
Cu1   O1    S    
C7    O14   S    
C18   O13   A    
C8    O2    S    
H5    O5    S    
C16   O1    A    
C3    O5    S    
C9    N2    A    
C5    C22   S    
C17   O7    A    
C20   C22   S    
C10   N1    A    
C3    C5    S    
C22   Cl3   S    
C1    C13   A    
