data_mof_unit_22751.cif
_audit_creation_date              2012-12-11T14:00:02-0500
_audit_creation_method            fapswitch 2.2
_symmetry_space_group_name_H-M    P1
_symmetry_Int_Tables_number       1
_space_group_crystal_system       triclinic
_cell_length_a                    11.277805
_cell_length_b                    11.292844
_cell_length_c                    18.876186
_cell_angle_alpha                 89.550789
_cell_angle_beta                  90.323294
_cell_angle_gamma                 120.339526
_cell_volume                      2074.73474176

loop_
_atom_site_label
_atom_site_type_symbol
_atom_type_description
_atom_site_fract_x
_atom_site_fract_y
_atom_site_fract_z
_atom_type_partial_charge
C1    C     C_R   0.542982 0.477203 0.853294 0.592058
C2    C     C_R   0.481226 0.543710 0.350535 0.611694
C3    C     C_R   0.138507 0.551399 0.357647 0.600143
C4    C     C_R   0.459783 0.939918 0.349891 0.596892
C5    C     C_2   0.008781 0.505933 0.581914 0.261560
C6    C     C_2   0.552067 0.448099 0.566352 0.202036
C7    C     C_2   0.557677 0.137568 0.565082 0.187674
C8    C     C_2   0.507631 0.003415 0.418214 0.269541
C9    C     C_2   0.498475 0.525918 0.423329 0.285425
C10   C     C_2   0.142776 0.559559 0.434993 0.249060
C11   C     C_2   0.102875 0.450624 0.479485 0.306164
C12   C     C_R   0.546784 0.123149 0.861526 0.553228
C13   C     C_2   0.607127 0.518776 0.445299 0.274085
C14   C     C_2   0.457984 0.078157 0.446561 0.280257
C15   C     C_2   0.444709 0.078110 0.523279 0.307176
C16   C     C_2   0.641350 0.540854 0.519997 0.295882
C17   C     C_2   0.093010 0.464114 0.556572 0.298291
C18   C     C_2   0.939535 0.465830 0.932167 -0.094536
C19   C     C_2   0.495803 0.497073 0.921283 -0.088488
C20   C     C_2   0.530266 0.069938 0.933183 -0.106643
C21   C     C_2   0.513588 0.018829 0.084273 -0.105291
C22   C     C_2   0.494163 0.498462 0.077019 -0.105389
C23   C     C_R   0.880918 0.425252 0.861767 0.556040
C24   C     C_2   0.981724 0.493653 0.084286 -0.104185
C25   C     C_2   0.992846 0.594236 0.041046 0.226085
C26   C     C_2   0.385637 0.414435 0.035558 0.217439
C27   C     C_2   0.600228 0.004422 0.040819 0.227428
C28   C     C_2   0.631552 0.069001 0.971147 0.190537
C29   C     C_2   0.407222 0.390609 0.962430 0.204410
C30   C     C_2   0.928381 0.558699 0.971740 0.199671
C31   C     C_R   0.476509 0.544211 0.145984 0.592201
C32   C     C_R   0.064375 0.521730 0.147452 0.598764
C33   C     C_R   0.457387 0.935502 0.147300 0.585820
C34   C     C_R   0.580973 0.450689 0.641037 0.560816
C35   C     C_R   0.551427 0.137550 0.642178 0.567013
C36   C     C_R   0.941432 0.459827 0.650265 0.600761
Cl1   Cl    Cl    0.049503 0.281906 0.450972 -0.291849
Cl2   Cl    Cl    0.722787 0.236738 0.527753 -0.508964
Cl3   Cl    Cl    0.389100 0.312078 0.538630 -0.407901
Cl4   Cl    Cl    0.933659 0.574521 0.525942 -0.414536
Cl5   Cl    Cl    0.092510 0.772326 0.059366 -0.406164
Cl6   Cl    Cl    0.211467 0.327548 0.062776 -0.415968
Cl7   Cl    Cl    0.668774 0.896074 0.058483 -0.416463
Cl8   Cl    Cl    0.798020 0.123001 0.938592 -0.432232
Cl9   Cl    Cl    0.309281 0.217900 0.933950 -0.426038
Cl10  Cl    Cl    0.849967 0.651962 0.943694 -0.452868
Cl11  Cl    Cl    0.709620 0.485947 0.387472 -0.437106
Cl12  Cl    Cl    0.377315 0.148891 0.394554 -0.414986
Cl13  Cl    Cl    0.272720 0.987744 0.554716 -0.267809
Cl14  Cl    Cl    0.761198 0.712472 0.544099 -0.275846
Cl15  Cl    Cl    0.168736 0.395388 0.613326 -0.353258
Cl16  Cl    Cl    0.226726 0.727578 0.468469 -0.438338
Cl17  Cl    Cl    0.422000 0.591709 0.480048 -0.468604
Cl18  Cl    Cl    0.593506 0.936228 0.469467 -0.348204
Cr1   Cr    Cr6+3 0.464030 0.233680 0.750360 1.191136
Cr2   Cr    Cr6+3 0.766320 0.230350 0.750360 1.193565
Cr3   Cr    Cr6+3 0.769650 0.535970 0.750360 1.179709
Cr4   Cr    Cr6+3 0.233680 0.464030 0.249640 1.184481
Cr5   Cr    Cr6+3 0.230350 0.766320 0.249640 1.200308
Cr6   Cr    Cr6+3 0.535970 0.769650 0.249640 1.182542
H1    H     H_    0.918806 0.386639 0.069041 0.108053
H2    H     H_    0.598041 0.546132 0.056186 0.127706
H3    H     H_    0.474329 0.086111 0.069983 0.100482
H4    H     H_    0.427850 0.026211 0.955530 0.150816
H5    H     H_    0.547454 0.600760 0.942230 0.144882
H6    H     H_    0.995226 0.417575 0.952808 0.154711
O1    O     O_R   0.434100 0.092480 0.829780 -0.436549
O2    O     O_R   0.362730 0.477510 0.175360 -0.456321
O3    O     O_R   0.114780 0.637270 0.175360 -0.453954
O4    O     O_R   0.522490 0.885220 0.175360 -0.461265
O5    O     O_R   0.432250 0.092620 0.670380 -0.439520
O6    O     O_R   0.907380 0.339630 0.670380 -0.450335
O7    O     O_R   0.660370 0.567750 0.670380 -0.430151
O8    O     O_R   0.092620 0.432250 0.329620 -0.457205
O9    O     O_R   0.339630 0.907380 0.329620 -0.452369
O10   O     O_R   0.567750 0.660370 0.329620 -0.463413
O11   O     O_R   0.475790 0.362860 0.676880 -0.440885
O12   O     O_R   0.907520 0.341620 0.829780 -0.442420
O13   O     O_R   0.637140 0.112930 0.676880 -0.425769
O14   O     O_R   0.887070 0.524210 0.676880 -0.480495
O15   O     O_R   0.362860 0.475790 0.323120 -0.489966
O16   O     O_R   0.112930 0.637140 0.323120 -0.430865
O17   O     O_R   0.524210 0.887070 0.323120 -0.470696
O18   O     O_3   0.666667 0.333333 0.749450 -0.426271
O19   O     O_3   0.333333 0.666667 0.250550 -0.364288
O20   O     O_R   0.658380 0.565900 0.829780 -0.444263
O21   O     O_R   0.092480 0.434100 0.170220 -0.453099
O22   O     O_R   0.341620 0.907520 0.170220 -0.458563
O23   O     O_R   0.565900 0.658380 0.170220 -0.453145
O24   O     O_R   0.477510 0.362730 0.824640 -0.466222
O25   O     O_R   0.637270 0.114780 0.824640 -0.442815
O26   O     O_R   0.885220 0.522490 0.824640 -0.444033

loop_
_geom_bond_atom_site_label_1
_geom_bond_atom_site_label_2
_ccdc_geom_bond_type
C24   H1    S    
Cr3   O26   S    
C12   O25   A    
Cr5   O16   S    
C4    C8    S    
C10   Cl16  S    
Cr4   O21   S    
C17   Cl15  S    
Cr5   O19   S    
Cr6   O23   S    
C26   Cl6   S    
C1    O24   A    
Cr2   O13   S    
C33   O22   A    
C16   Cl14  S    
Cr1   O24   S    
C34   O11   A    
Cr1   O11   S    
Cr6   O17   S    
C5    C17   D    
C5    C36   S    
C1    O20   A    
Cr2   O12   S    
Cr3   O20   S    
Cr3   O7    S    
C11   Cl1   S    
C3    O8    A    
C9    C13   D    
Cr5   O22   S    
C4    O9    A    
Cr2   O25   S    
C31   O23   A    
C18   C30   D    
C23   O26   A    
C7    C15   D    
C21   C27   D    
C35   O5    A    
Cr3   O14   S    
Cr2   O18   S    
C31   O2    A    
C12   O1    A    
C1    C19   S    
C22   C31   S    
C18   C23   S    
C24   C25   D    
C36   O14   A    
Cr4   O15   S    
C8    Cl18  S    
C13   Cl11  S    
C14   Cl12  S    
C20   C28   D    
Cr2   O6    S    
C32   O21   A    
C28   Cl8   S    
C6    C34   S    
C29   Cl9   S    
C20   H4    S    
C24   C32   S    
C22   H2    S    
Cr6   O4    S    
C12   C20   S    
C3    O16   A    
Cr3   O18   S    
C33   O4    A    
Cr5   O3    S    
Cr4   O2    S    
C13   C16   S    
C9    Cl17  S    
C25   Cl5   S    
C19   C29   D    
Cr4   O19   S    
Cr5   O9    S    
C2    O10   A    
Cr4   O8    S    
C25   C30   S    
C11   C17   S    
C8    C14   D    
C14   C15   S    
C7    C35   S    
C30   Cl10  S    
Cr1   O1    S    
Cr6   O19   S    
C32   O3    A    
C18   H6    S    
C3    C10   S    
C4    O17   A    
C35   O13   A    
C7    Cl2   S    
Cr6   O10   S    
C19   H5    S    
C15   Cl13  S    
C23   O12   A    
C21   H3    S    
C10   C11   D    
C34   O7    A    
C6    C16   D    
C27   Cl7   S    
C21   C33   S    
C26   C29   S    
C22   C26   D    
C5    Cl4   S    
C27   C28   S    
C6    Cl3   S    
C2    O15   A    
Cr1   O18   S    
C2    C9    S    
Cr1   O5    S    
C36   O6    A    
