data_mof_unit_65937.cif
_audit_creation_date              2012-12-10T19:29:17-0500
_audit_creation_method            fapswitch 2.2
_symmetry_space_group_name_H-M    P1
_symmetry_Int_Tables_number       1
_space_group_crystal_system       triclinic
_cell_length_a                    15.865719
_cell_length_b                    17.693328
_cell_length_c                    16.454134
_cell_angle_alpha                 89.623632
_cell_angle_beta                  89.996792
_cell_angle_gamma                 90.213764
_cell_volume                      4618.82941113

loop_
_atom_site_label
_atom_site_type_symbol
_atom_type_description
_atom_site_fract_x
_atom_site_fract_y
_atom_site_fract_z
_atom_type_partial_charge
C1    C     C_R   0.499473 0.355486 0.500318 0.880414
C2    C     C_R   0.499648 0.644518 0.499658 0.880632
C3    C     C_R   0.566565 0.767631 0.530841 0.125146
C4    C     C_R   0.566389 0.232866 0.468974 0.133700
C5    C     C_R   0.498247 0.727184 0.498394 -0.188884
C6    C     C_R   0.498063 0.272818 0.501471 -0.189634
C7    C     C_R   0.429466 0.765983 0.463120 0.050952
C8    C     C_R   0.429175 0.233529 0.536484 0.040896
C9    C     C_R   0.430117 0.845979 0.459208 0.426366
C10   C     C_R   0.430057 0.153564 0.540765 0.433494
C11   C     C_R   0.499004 0.885356 0.493917 -0.086972
C12   C     C_R   0.499036 0.114669 0.506196 -0.086986
C13   C     C_1   0.501648 0.966156 0.497950 0.127794
C14   C     C_1   0.501674 0.033884 0.502190 0.127653
C15   C     C_R   0.553174 0.548522 0.828550 -0.252106
C16   C     C_R   0.448271 0.450222 0.171481 -0.251434
C17   C     C_R   0.552244 0.547651 0.742759 0.100701
C18   C     C_R   0.449188 0.451103 0.257275 0.109563
C19   C     C_R   0.447752 0.452249 0.743423 0.100041
C20   C     C_R   0.550796 0.549003 0.256586 0.108055
C21   C     C_R   0.446802 0.451386 0.829234 -0.249530
C22   C     C_R   0.551700 0.549891 0.170772 -0.250741
C23   C     C_R   0.339467 0.499920 0.499991 0.858952
C24   C     C_R   0.660535 0.500080 0.500009 0.864414
C25   C     C_R   0.499976 0.499966 0.873080 0.130297
C26   C     C_R   0.499989 0.500049 0.126942 0.134780
C27   C     C_1   0.499973 0.499992 0.962718 -0.015791
C28   C     C_1   0.499984 0.500025 0.037302 -0.015338
C29   C     C_3   0.971639 0.433715 0.529537 -0.136275
C30   C     C_3   0.028390 0.566363 0.470438 -0.140307
C31   C     C_3   0.027772 0.443420 0.453156 -0.139105
C32   C     C_3   0.972251 0.556658 0.546821 -0.145647
C33   C     C_1   0.249760 0.499905 0.499997 -0.118682
C34   C     C_1   0.750242 0.500119 0.500002 -0.120685
C35   C     C_3   0.027980 0.490272 0.576385 -0.151823
C36   C     C_3   0.972045 0.509804 0.423590 -0.153897
C37   C     C_3   0.082571 0.499978 0.500002 0.162168
C38   C     C_3   0.917450 0.500097 0.499974 0.161615
C39   C     C_1   0.174214 0.499923 0.500003 -0.025278
C40   C     C_1   0.825794 0.500127 0.499986 -0.028902
C41   C     C_R   0.566100 0.846100 0.528890 -0.216043
C42   C     C_R   0.566040 0.154391 0.471060 -0.223216
Cu1   Cu    Cu3+1 0.500000 0.499980 0.580420 0.986261
Cu2   Cu    Cu3+1 0.500000 0.500020 0.419580 0.989717
H1    H     H_    0.051952 0.396940 0.414732 0.157298
H2    H     H_    0.948055 0.603134 0.585245 0.161544
H3    H     H_    0.406382 0.414521 0.710638 0.152206
H4    H     H_    0.591039 0.587714 0.289406 0.129339
H5    H     H_    0.404736 0.412977 0.861034 0.152734
H6    H     H_    0.592593 0.589296 0.138952 0.146223
H7    H     H_    0.946960 0.379272 0.553777 0.158887
H8    H     H_    0.053111 0.620792 0.446193 0.165825
H9    H     H_    0.947703 0.517819 0.360884 0.151418
H10   H     H_    0.052334 0.482244 0.639085 0.152993
H11   H     H_    0.618744 0.876786 0.554916 0.186932
H12   H     H_    0.618658 0.124075 0.444956 0.185800
H13   H     H_    0.595252 0.586919 0.859806 0.150713
H14   H     H_    0.407357 0.410833 0.140226 0.147712
H15   H     H_    0.593674 0.585335 0.709452 0.153853
H16   H     H_    0.408901 0.412418 0.290629 0.131594
N1    N     N_R   0.499980 0.499970 0.701220 -0.180597
N2    N     N_R   0.500020 0.500030 0.298780 -0.173964
O1    O     O_R   0.499990 0.391240 0.567930 -0.572304
O2    O     O_R   0.500010 0.608760 0.432070 -0.573774
O3    O     O_R   0.500000 0.391270 0.432120 -0.569564
O4    O     O_R   0.500000 0.608730 0.567880 -0.567749
O5    O     O_R   0.379070 0.499980 0.567900 -0.577532
O6    O     O_R   0.620930 0.500020 0.432100 -0.575189
O7    O     O_R   0.379080 0.500010 0.432080 -0.576866
O8    O     O_R   0.620920 0.499990 0.567920 -0.576987
I1    I     I_    0.674324 0.713873 0.581228 -0.392166
I2    I     I_    0.673657 0.287459 0.417700 -0.341890
I3    I     I_    0.322494 0.702068 0.421960 -0.225765
I4    I     I_    0.321395 0.296572 0.575865 -0.270651
S1    S     S_3+6 0.344416 0.894621 0.411981 0.069030
O9    O     O_2   0.266889 0.883617 0.463292 -0.224080
O10   O     O_2   0.360509 0.977829 0.401545 -0.254570
O11   O     O_3   0.327270 0.857645 0.319502 -0.504962
H17   H     H_    0.273345 0.879970 0.301044 0.385324
S2    S     S_3+6 0.344507 0.104305 0.588190 0.070086
O12   O     O_2   0.267302 0.113347 0.536129 -0.221702
O13   O     O_2   0.361499 0.021514 0.600125 -0.254175
O14   O     O_3   0.326169 0.142295 0.679922 -0.506914
H18   H     H_    0.272137 0.119660 0.698167 0.385554

loop_
_geom_bond_atom_site_label_1
_geom_bond_atom_site_label_2
_ccdc_geom_bond_type
C38   C40   S    
C23   O7    A    
Cu1   Cu2   S    
C21   H5    S    
Cu1   O1    S    
C7    I3    S    
Cu2   O2    S    
C33   C39   T    
C4    C42   A    
C34   C40   T    
C19   C21   A    
C19   H3    S    
C15   C25   A    
C7    C9    A    
C23   O5    A    
C41   H11   S    
C12   C42   A    
C36   H9    S    
C42   H12   S    
C23   C33   S    
C29   C38   S    
C1    O3    A    
C32   C38   S    
C22   H6    S    
C17   N1    A    
C13   C14   T    
C35   H10   S    
C15   H13   S    
Cu2   O3    S    
S2    O14   S    
C1    O1    A    
C2    O2    A    
C16   C26   A    
C37   C39   S    
C24   O8    A    
C1    C6    S    
C32   C35   S    
C4    C6    A    
C5    C7    A    
C10   S2    S    
O11   H17   S    
C18   N2    A    
C6    C8    A    
Cu2   N2    S    
C24   C34   S    
C31   C37   S    
C30   C37   S    
C3    I1    S    
S1    O9    D    
Cu1   O5    S    
C9    C11   A    
O14   H18   S    
C8    I4    S    
Cu2   O7    S    
C16   H14   S    
S1    O10   D    
C20   H4    S    
C10   C12   A    
C17   H15   S    
C18   H16   S    
C12   C14   S    
Cu1   O8    S    
C31   H1    S    
Cu2   O6    S    
C2    C5    S    
C4    I2    S    
Cu1   N1    S    
C29   H7    S    
C15   C17   A    
C21   C25   A    
C3    C41   A    
C35   C37   S    
C32   H2    S    
C8    C10   A    
C20   C22   A    
S2    O12   D    
C3    C5    A    
C2    O4    A    
C25   C27   S    
C29   C35   S    
C26   C28   S    
C30   C36   S    
C36   C38   S    
C29   C31   S    
C30   C32   S    
C11   C13   S    
C30   H8    S    
C19   N1    A    
Cu1   O4    S    
S2    O13   D    
C11   C41   A    
C20   N2    A    
S1    O11   S    
C24   O6    A    
C16   C18   A    
C22   C26   A    
C27   C28   T    
C31   C36   S    
C9    S1    S    
