data_mof_unit_53279.cif
_audit_creation_date              2012-10-26T18:53:07-0400
_audit_creation_method            fapswitch 2.2
_symmetry_space_group_name_H-M    P1
_symmetry_Int_Tables_number       1
_space_group_crystal_system       triclinic
_cell_length_a                    14.798687
_cell_length_b                    14.546693
_cell_length_c                    15.865782
_cell_angle_alpha                 75.73187
_cell_angle_beta                  102.74903
_cell_angle_gamma                 115.170392
_cell_volume                      2969.54763932

loop_
_atom_site_label
_atom_site_type_symbol
_atom_type_description
_atom_site_fract_x
_atom_site_fract_y
_atom_site_fract_z
_atom_type_partial_charge
C1    C     C_R   0.880133 0.311089 0.513440 0.563135
C2    C     C_R   0.187994 0.799549 0.463412 0.005000
C3    C     C_R   0.774272 0.016587 0.560586 0.299787
C4    C     C_R   0.999770 0.499771 0.659705 0.532537
C5    C     C_R   0.837804 0.119465 0.568043 0.168476
C6    C     C_R   0.716150 0.176635 0.465159 0.172534
C7    C     C_R   0.641896 0.075134 0.479464 -0.077070
C8    C     C_R   0.674521 0.993422 0.517187 -0.004987
C9    C     C_R   0.536756 0.053143 0.460771 0.020360
C10   C     C_R   0.467139 0.949284 0.465325 -0.002637
C11   C     C_R   0.504841 0.871837 0.479636 -0.134281
C12   C     C_3   0.988402 0.391347 0.071327 0.105300
C13   C     C_R   0.606398 0.890821 0.511748 0.290498
C14   C     C_R   0.499139 0.131142 0.445061 -0.147915
C15   C     C_R   0.396393 0.108452 0.427552 -0.110499
C16   C     C_R   0.119757 0.689022 0.482086 0.564607
C17   C     C_R   0.326501 0.006141 0.432518 0.067179
C18   C     C_R   0.361858 0.925647 0.455647 -0.023417
C19   C     C_R   0.222161 0.983454 0.419584 0.233098
C20   C     C_R   0.152269 0.878966 0.429532 0.219966
C21   C     C_R   0.291777 0.824112 0.475764 -0.198312
C22   C     C_R   0.688148 0.617607 0.324765 -0.106050
C23   C     C_3   0.999743 0.499858 0.083234 0.135596
C24   C     C_R   0.780552 0.612171 0.359636 0.354514
C25   C     C_R   0.721756 0.524813 0.497059 0.359637
C26   C     C_R   0.622417 0.522902 0.461577 -0.024969
C27   C     C_R   0.608723 0.572194 0.374121 -0.078685
C28   C     C_R   0.000265 0.500233 0.340468 0.544034
C29   C     C_R   0.536292 0.473393 0.508049 -0.028286
C30   C     C_R   0.444966 0.489463 0.471860 0.003438
C31   C     C_R   0.432538 0.528414 0.380697 0.255841
C32   C     C_R   0.514966 0.573188 0.334588 -0.109050
C33   C     C_R   0.534724 0.400510 0.585182 -0.143836
C34   C     C_3   0.102885 0.579237 0.052888 0.150656
C35   C     C_R   0.454433 0.358325 0.632753 -0.140767
C36   C     C_R   0.372922 0.387639 0.605644 -0.051289
C37   C     C_R   0.366550 0.455778 0.526084 -0.028902
C38   C     C_R   0.297052 0.347308 0.658160 -0.100219
C39   C     C_R   0.212718 0.370743 0.632549 0.350415
C40   C     C_3   0.989688 0.393310 0.973179 -0.249747
C41   C     C_R   0.282646 0.487209 0.506787 0.369425
C42   C     C_3   0.908381 0.521295 0.927484 -0.168162
C43   C     C_3   0.910270 0.527248 0.025470 0.511966
C44   C     C_1   0.000673 0.500133 0.251124 -0.003224
C45   C     C_3   0.099222 0.584184 0.952650 0.132263
C46   C     C_3   0.999363 0.500116 0.917433 -0.008053
C47   C     C_3   0.912346 0.251064 0.179980 0.024036
C48   C     C_3   0.925125 0.157148 0.165723 -0.274119
C49   C     C_3   0.941375 0.089094 0.252902 -0.479440
C50   C     C_3   0.229541 0.728689 0.101256 0.002425
C51   C     C_3   0.249803 0.704949 0.201577 -0.245185
C52   C     C_3   0.360027 0.763824 0.234964 -0.441240
C53   C     C_3   0.585433 0.719606 0.575575 0.020462
C54   C     C_3   0.584007 0.728930 0.669541 -0.264271
C55   C     C_3   0.527879 0.623590 0.722313 -0.486033
C56   C     C_1   0.000754 0.499884 0.175739 0.055469
C57   C     C_3   0.868169 0.922734 0.571728 0.058702
C58   C     C_3   0.885002 0.826329 0.623453 -0.271346
C59   C     C_3   0.948709 0.798127 0.578901 -0.433563
C60   C     C_3   0.283564 0.415438 0.318931 0.027211
C61   C     C_3   0.297607 0.404399 0.229700 -0.292085
C62   C     C_3   0.233925 0.295577 0.210730 -0.477223
C63   C     C_3   0.735361 0.481282 0.024401 0.039561
C64   C     C_3   0.706324 0.508431 0.099121 -0.221189
C65   C     C_3   0.612961 0.533803 0.069273 -0.495160
C66   C     C_1   0.999115 0.499544 0.825087 -0.020681
C67   C     C_1   0.999321 0.499547 0.749471 0.002235
C68   C     C_R   0.811241 0.200821 0.516318 -0.012789
Cu1   Cu    Cu3+1 0.081750 0.475690 0.522550 1.001530
Cu2   Cu    Cu3+1 0.918250 0.524310 0.477450 1.055611
H1    H     H_    0.053970 0.375714 0.967033 0.088391
H2    H     H_    0.678517 0.656877 0.257856 0.124856
H3    H     H_    0.907551 0.593015 0.882519 0.129101
H4    H     H_    0.592478 0.370149 0.607760 0.170487
H5    H     H_    0.301885 0.295032 0.719360 0.139900
H6    H     H_    0.837594 0.458122 0.905620 0.111714
H7    H     H_    0.163369 0.567798 0.943508 0.079073
H8    H     H_    0.160589 0.547929 0.088994 0.021955
H9    H     H_    0.844295 0.223548 0.212943 0.169747
H10   H     H_    0.976942 0.294613 0.225515 0.101966
H11   H     H_    0.856653 0.111148 0.125214 0.179451
H12   H     H_    0.055854 0.376434 0.108330 0.063780
H13   H     H_    0.990583 0.182889 0.129777 0.160186
H14   H     H_    0.010300 0.133109 0.294092 0.157895
H15   H     H_    0.950545 0.021913 0.240423 0.164387
H16   H     H_    0.875548 0.060313 0.289044 0.147476
H17   H     H_    0.249418 0.812945 0.080657 0.163042
H18   H     H_    0.279035 0.709934 0.070389 0.099318
H19   H     H_    0.201467 0.726942 0.230484 0.185672
H20   H     H_    0.230509 0.620975 0.223653 0.201535
H21   H     H_    0.409511 0.739983 0.209578 0.151687
H22   H     H_    0.371893 0.747018 0.307685 0.177204
H23   H     H_    0.317416 0.762621 0.503972 0.150533
H24   H     H_    0.381104 0.848198 0.213846 0.138871
H25   H     H_    0.621241 0.664946 0.579959 0.147121
H26   H     H_    0.508261 0.683564 0.541909 0.107122
H27   H     H_    0.662537 0.762023 0.702402 0.200980
H28   H     H_    0.546066 0.780819 0.668345 0.162521
H29   H     H_    0.448521 0.589936 0.691365 0.161957
H30   H     H_    0.528132 0.632093 0.790025 0.147508
H31   H     H_    0.565036 0.570260 0.725900 0.147050
H32   H     H_    0.039106 0.907791 0.358853 0.330126
H33   H     H_    0.941962 0.989889 0.571646 0.169694
H34   H     H_    0.372062 0.171761 0.413989 0.163332
H35   H     H_    0.836228 0.910951 0.502765 0.147106
H36   H     H_    0.923225 0.839999 0.690551 0.183208
H37   H     H_    0.811166 0.760225 0.629521 0.179869
H38   H     H_    0.908936 0.778942 0.513522 0.198496
H39   H     H_    0.961440 0.729621 0.619489 0.177049
H40   H     H_    0.022904 0.863169 0.571328 0.171740
H41   H     H_    0.929123 0.192489 0.657712 0.321993
H42   H     H_    0.649762 0.216168 0.350894 0.321910
H43   H     H_    0.125353 0.040729 0.420863 0.326304
H44   H     H_    0.352280 0.622068 0.443105 0.295845
H45   H     H_    0.919883 0.331988 0.947349 0.175484
H46   H     H_    0.077579 0.322881 0.656901 0.375719
H47   H     H_    0.919402 0.685485 0.343331 0.386223
H48   H     H_    0.719661 0.529454 0.616169 0.287876
H49   H     H_    0.202705 0.398084 0.318417 0.162392
H50   H     H_    0.301876 0.356835 0.371789 0.136249
H51   H     H_    0.275435 0.460467 0.177414 0.152448
H52   H     H_    0.378059 0.421470 0.228733 0.161781
H53   H     H_    0.258265 0.238792 0.260006 0.196120
H54   H     H_    0.242940 0.290733 0.144521 0.147596
H55   H     H_    0.153279 0.276120 0.212622 0.142517
H56   H     H_    0.455833 0.796891 0.464458 0.087125
H57   H     H_    0.671224 0.413579 0.001324 0.131402
H58   H     H_    0.747962 0.545756 0.967225 0.131391
H59   H     H_    0.691008 0.442148 0.154444 0.183988
H60   H     H_    0.769780 0.575881 0.123305 0.237531
H61   H     H_    0.627329 0.601433 0.015276 0.152451
H62   H     H_    0.593708 0.552434 0.125063 0.144324
H63   H     H_    0.547910 0.466717 0.046245 0.143861
H64   H     H_    0.965233 0.679771 0.991686 0.365235
H65   H     H_    0.180505 0.727329 0.909320 0.327626
H66   H     H_    0.548003 0.210585 0.448798 0.172677
H67   H     H_    0.504235 0.605970 0.265744 0.112179
H68   H     H_    0.456722 0.302729 0.692126 0.114817
N1    N     N_R   0.795410 0.560790 0.443550 -0.206381
N2    N     N_R   0.204590 0.439170 0.556520 -0.216732
O1    O     O_R   0.977910 0.338120 0.529720 -0.535606
O2    O     O_3   0.125823 0.677917 0.072253 -0.523232
O3    O     O_3   0.644075 0.814352 0.526469 -0.558060
O4    O     O_3   0.050086 0.853102 0.405929 -0.736666
O5    O     O_3   0.801413 0.938391 0.612574 -0.509822
O6    O     O_3   0.923207 0.137105 0.628405 -0.665475
O7    O     O_3   0.700875 0.251162 0.397257 -0.691428
O8    O     O_3   0.190860 0.064308 0.399234 -0.753851
O9    O     O_3   0.281765 0.571746 0.444936 -0.629207
O10   O     O_3   0.142337 0.326019 0.689738 -0.691575
O11   O     O_3   0.854638 0.660053 0.305910 -0.686412
O12   O     O_R   0.839850 0.379180 0.491640 -0.416148
O13   O     O_3   0.748564 0.498791 0.585306 -0.686221
O14   O     O_3   0.339364 0.518318 0.333157 -0.565832
O15   O     O_3   0.818788 0.452674 0.056473 -0.506327
O16   O     O_3   0.923124 0.626590 0.035289 -0.673712
O17   O     O_3   0.107663 0.682172 0.904679 -0.683086
O18   O     O_R   0.069060 0.479460 0.639610 -0.510324
O19   O     O_R   0.931000 0.520530 0.601530 -0.448362
O20   O     O_R   0.160150 0.620820 0.508360 -0.472384
O21   O     O_R   0.022090 0.661880 0.470280 -0.486858
O22   O     O_R   0.069000 0.479470 0.398470 -0.469643
O23   O     O_R   0.930940 0.520540 0.360390 -0.466047
O24   O     O_3   0.896746 0.312687 0.098296 -0.521598

loop_
_geom_bond_atom_site_label_1
_geom_bond_atom_site_label_2
_ccdc_geom_bond_type
C57   H35   S    
C8    C13   A    
H65   O17   S    
C40   H1    S    
C57   O5    S    
C16   O20   A    
C18   C21   A    
C20   O4    S    
C35   C36   A    
C47   H9    S    
Cu2   O23   S    
Cu1   O20   S    
H46   O10   S    
C28   O22   A    
C23   C56   S    
C53   C54   S    
C40   C46   S    
C12   C23   S    
C26   C27   A    
C21   H23   S    
H48   O13   S    
C63   H57   S    
C49   H14   S    
C36   C37   A    
C25   N1    A    
C46   C66   S    
C51   H20   S    
C30   C31   A    
Cu2   O19   S    
C4    O19   A    
C41   O9    S    
Cu1   O1    S    
C29   C33   A    
C1    C68   S    
C23   C43   S    
C48   H11   S    
C60   H49   S    
C61   H51   S    
C58   H37   S    
C42   C46   S    
C41   N2    A    
C59   H39   S    
C54   C55   S    
H64   O16   S    
C47   C48   S    
C55   H30   S    
C54   H27   S    
C52   H24   S    
C15   H34   S    
C2    C16   S    
C9    C10   A    
C34   H8    S    
C63   H58   S    
C50   H18   S    
Cu1   N2    S    
C6    C68   A    
C66   C67   T    
Cu2   N1    S    
C53   H26   S    
C65   H62   S    
Cu1   Cu2   S    
H32   O4    S    
C47   H10   S    
C60   C61   S    
C5    C68   A    
C43   O15   S    
C22   H2    S    
C62   H53   S    
C65   H61   S    
Cu1   O18   S    
C38   H5    S    
C24   N1    A    
C57   H33   S    
C4    O18   A    
C2    C20   A    
C51   C52   S    
C49   H15   S    
C7    C8    A    
C11   H56   S    
Cu2   O12   S    
Cu1   O22   S    
C3    C8    A    
H41   O6    S    
C17   C19   A    
C50   C51   S    
C25   C26   A    
C45   C46   S    
C25   O13   S    
C28   C44   S    
C30   C37   A    
C61   H52   S    
C53   O3    S    
C12   C40   S    
C9    C14   A    
C29   C30   A    
C24   O11   S    
C53   H25   S    
C62   H55   S    
C44   C56   T    
C31   C32   A    
C39   O10   S    
C23   C34   S    
C1    O12   A    
C2    C21   A    
C17   C18   A    
C45   O17   S    
H47   O11   S    
C34   C45   S    
C50   H17   S    
C47   O24   S    
C48   C49   S    
C64   H60   S    
C3    O5    S    
C22   C27   A    
C22   C24   A    
C52   H22   S    
C42   C43   S    
C43   O16   S    
Cu2   O21   S    
C31   O14   S    
H43   O8    S    
C15   C17   A    
C39   N2    A    
C34   O2    S    
C42   H3    S    
C5    O6    S    
C27   C32   A    
C49   H16   S    
C62   H54   S    
C19   O8    S    
C3    C5    A    
C4    C67   S    
C59   H40   S    
H42   O7    S    
C6    C7    A    
C16   O21   A    
C55   H31   S    
C42   H6    S    
C59   H38   S    
C48   H13   S    
C64   C65   S    
C19   C20   A    
C36   C38   A    
C58   C59   S    
C63   O15   S    
C32   H67   S    
C35   H68   S    
C51   H19   S    
C6    O7    S    
C11   C13   A    
C57   C58   S    
C38   C39   A    
C14   H66   S    
C12   O24   S    
C10   C18   A    
C33   C35   A    
C60   H50   S    
C13   O3    S    
C37   C41   A    
C61   C62   S    
C60   O14   S    
C1    O1    A    
C10   C11   A    
C63   C64   S    
C40   H45   S    
C7    C9    A    
C33   H4    S    
C12   H12   S    
C64   H59   S    
C26   C29   A    
C55   H29   S    
C14   C15   A    
C54   H28   S    
C52   H21   S    
C45   H7    S    
H44   O9    S    
C58   H36   S    
C65   H63   S    
C50   O2    S    
C28   O23   A    
