data_mof_unit_46066.cif
_audit_creation_date              2012-10-26T18:52:15-0400
_audit_creation_method            fapswitch 2.2
_symmetry_space_group_name_H-M    P1
_symmetry_Int_Tables_number       1
_space_group_crystal_system       triclinic
_cell_length_a                    13.878252
_cell_length_b                    14.810463
_cell_length_c                    14.925817
_cell_angle_alpha                 116.037301
_cell_angle_beta                  108.017666
_cell_angle_gamma                 72.815248
_cell_volume                      2575.17706335

loop_
_atom_site_label
_atom_site_type_symbol
_atom_type_description
_atom_site_fract_x
_atom_site_fract_y
_atom_site_fract_z
_atom_type_partial_charge
C1    C     C_R   0.516205 0.119227 0.688451 0.586572
C2    C     C_R   0.543167 0.501878 0.882534 0.223032
C3    C     C_R   0.568064 0.391824 0.107793 0.355188
C4    C     C_R   0.530816 0.607167 0.907589 0.325982
C5    C     C_R   0.302136 0.307639 0.353575 -0.152213
C6    C     C_R   0.680107 0.696443 0.660487 -0.129102
C7    C     C_R   0.347521 0.214194 0.364190 0.373965
C8    C     C_R   0.648496 0.785049 0.639016 0.388792
C9    C     C_R   0.485098 0.290511 0.491265 0.391984
C10   C     C_R   0.512812 0.712096 0.505340 0.407294
C11   C     C_R   0.453878 0.377120 0.464401 -0.025648
C12   C     C_R   0.487371 0.881319 0.312276 0.557858
C13   C     C_R   0.532869 0.627037 0.533424 -0.068380
C14   C     C_R   0.354520 0.390041 0.405414 -0.087343
C15   C     C_R   0.626547 0.615174 0.603705 -0.072478
C16   C     C_R   0.686860 0.987846 0.505497 0.507963
C17   C     C_R   0.313348 0.013386 0.496214 0.533689
C18   C     C_R   0.514047 0.454660 0.502049 -0.073306
C19   C     C_R   0.468594 0.550607 0.490842 -0.096472
C20   C     C_R   0.361153 0.566776 0.442250 0.248410
C21   C     C_R   0.621109 0.436998 0.545702 0.333818
C22   C     C_R   0.304893 0.486765 0.405200 0.243708
C23   C     C_R   0.532964 0.360897 0.927511 -0.108354
C24   C     C_R   0.670737 0.519527 0.609568 0.302909
C25   C     C_1   0.207473 0.017918 0.489313 -0.013830
C26   C     C_1   0.792861 0.986662 0.516245 -0.040163
C27   C     C_2   0.013762 0.009242 0.467707 0.268441
C28   C     C_2   0.986642 0.997324 0.540235 0.283666
C29   C     C_1   0.881335 0.989868 0.527057 -0.017019
C30   C     C_1   0.118880 0.016873 0.480665 -0.007172
C31   C     C_R   0.528420 0.187764 0.798345 0.034541
C32   C     C_R   0.494738 0.814642 0.205281 -0.013641
C33   C     C_R   0.580414 0.215252 0.979256 0.224149
C34   C     C_R   0.512108 0.641847 0.076936 -0.102656
C35   C     C_R   0.524925 0.782473 0.039814 0.290153
C36   C     C_R   0.573274 0.148107 0.875525 0.167410
C37   C     C_R   0.523105 0.847735 0.142649 0.152982
C38   C     C_R   0.498382 0.294482 0.826172 0.184168
C39   C     C_R   0.477277 0.714755 0.166104 0.197044
C40   C     C_3   0.250313 0.659449 0.345586 0.041000
C41   C     C_3   0.217007 0.765877 0.343564 -0.335440
C42   C     C_3   0.694143 0.299074 0.423211 -0.011140
C43   C     C_3   0.773357 0.200543 0.405622 -0.313378
C44   C     C_3   0.489391 0.387947 0.219668 0.020152
C45   C     C_R   0.560786 0.322294 0.005478 -0.016981
C46   C     C_3   0.427427 0.302043 0.165187 -0.385440
C47   C     C_3   0.438588 0.631259 0.760688 0.025570
C48   C     C_3   0.400551 0.726658 0.735626 -0.340433
C49   C     C_3   0.155930 0.545188 0.463080 -0.012119
C50   C     C_3   0.038964 0.567672 0.431731 -0.367470
C51   C     C_3   0.772570 0.486041 0.747525 0.016516
C52   C     C_3   0.882186 0.477124 0.809826 -0.383592
C53   C     C_3   0.805701 0.839922 0.698457 -0.005994
C54   C     C_3   0.864621 0.861937 0.808247 -0.386817
C55   C     C_3   0.290027 0.096847 0.207659 -0.010453
C56   C     C_R   0.521626 0.677641 0.007068 -0.022572
C57   C     C_3   0.241631 0.001651 0.153584 -0.349694
C58   C     C_R   0.534985 0.465410 0.953401 -0.076021
C59   C     C_R   0.534876 0.535091 0.055136 -0.076668
C60   C     C_R   0.563379 0.495580 0.132949 0.227382
Cu1   Cu    Cu3+1 0.526370 0.916390 0.524860 1.099174
Cu2   Cu    Cu3+1 0.473630 0.083610 0.475140 1.036935
H1    H     H_    0.226166 0.315597 0.305510 0.159409
H2    H     H_    0.722439 0.353020 0.407945 0.163695
H3    H     H_    0.620843 0.280467 0.368207 0.136360
H4    H     H_    0.745995 0.144182 0.417617 0.190830
H5    H     H_    0.785056 0.167918 0.326249 0.151524
H6    H     H_    0.847955 0.215962 0.459501 0.182625
H7    H     H_    0.439469 0.459800 0.212252 0.111573
H8    H     H_    0.509542 0.403343 0.301919 0.135558
H9    H     H_    0.472245 0.233155 0.181299 0.176689
H10   H     H_    0.354293 0.327091 0.192181 0.096962
H11   H     H_    0.407927 0.282643 0.081716 0.156685
H12   H     H_    0.747451 0.690275 0.719594 0.153807
H13   H     H_    0.374832 0.621435 0.784702 0.096133
H14   H     H_    0.453476 0.563800 0.690575 0.185480
H15   H     H_    0.463133 0.743562 0.717181 0.189959
H16   H     H_    0.334457 0.715062 0.669298 0.119126
H17   H     H_    0.374986 0.793133 0.802071 0.173374
H18   H     H_    0.391338 0.631157 0.164055 0.316268
H19   H     H_    0.391513 0.399778 0.790796 0.328338
H20   H     H_    0.593800 0.954383 0.249199 0.344357
H21   H     H_    0.665523 0.031732 0.903543 0.340142
H22   H     H_    0.586610 0.112170 0.029060 0.330447
H23   H     H_    0.024263 0.985030 0.671249 0.314023
H24   H     H_    0.530604 0.892499 0.003505 0.362290
H25   H     H_    0.631707 0.604479 0.239109 0.339091
H26   H     H_    0.622105 0.376692 0.802318 0.336464
H27   H     H_    0.181748 0.618046 0.518939 0.159033
H28   H     H_    0.177921 0.489371 0.500610 0.141501
H29   H     H_    0.010352 0.496232 0.376944 0.170000
H30   H     H_    0.004578 0.599429 0.499960 0.102031
H31   H     H_    0.014605 0.624355 0.395305 0.158235
H32   H     H_    0.745593 0.413855 0.724846 0.206482
H33   H     H_    0.723313 0.551424 0.796884 0.187630
H34   H     H_    0.977209 0.017094 0.334707 0.321410
H35   H     H_    0.911185 0.548566 0.834660 0.154383
H36   H     H_    0.883658 0.464483 0.878315 0.105897
H37   H     H_    0.933353 0.411639 0.763311 0.173736
H38   H     H_    0.462596 0.636712 0.364207 0.346273
H39   H     H_    0.592319 0.229817 0.577188 0.369689
H40   H     H_    0.826446 0.888235 0.670293 0.154512
H41   H     H_    0.832483 0.759025 0.649330 0.099395
H42   H     H_    0.844761 0.816977 0.840805 0.153417
H43   H     H_    0.948863 0.841112 0.810812 0.097746
H44   H     H_    0.845035 0.944623 0.855319 0.167566
H45   H     H_    0.176870 0.633828 0.326574 0.187252
H46   H     H_    0.368212 0.076413 0.190719 0.177190
H47   H     H_    0.240827 0.154873 0.176047 0.102478
H48   H     H_    0.161771 0.020848 0.165612 0.150248
H49   H     H_    0.239217 0.971059 0.070533 0.099399
H50   H     H_    0.287391 0.941840 0.183704 0.169628
H51   H     H_    0.294405 0.608933 0.284539 0.117449
H52   H     H_    0.283960 0.799337 0.356601 0.233235
H53   H     H_    0.167439 0.762589 0.268210 0.085551
H54   H     H_    0.171669 0.814906 0.403214 0.163758
N1    N     N_R   0.433980 0.209250 0.437830 -0.233858
N2    N     N_R   0.566020 0.790750 0.562170 -0.203274
O1    O     O_R   0.534760 0.019630 0.662610 -0.412842
O2    O     O_3   0.942785 0.008578 0.378972 -0.747038
O3    O     O_3   0.308672 0.663738 0.444153 -0.532429
O4    O     O_3   0.680771 0.339763 0.524568 -0.533542
O5    O     O_3   0.582749 0.358640 0.185346 -0.478595
O6    O     O_3   0.531982 0.640781 0.834856 -0.498398
O7    O     O_3   0.422068 0.691769 0.213534 -0.666515
O8    O     O_3   0.430741 0.331741 0.754736 -0.623859
O9    O     O_3   0.551318 0.941561 0.179422 -0.722915
O10   O     O_3   0.608416 0.044067 0.848439 -0.647793
O11   O     O_3   0.611241 0.177367 0.055452 -0.660345
O12   O     O_R   0.465240 0.980370 0.337390 -0.484035
O13   O     O_3   0.540750 0.816872 0.973924 -0.639799
O14   O     O_3   0.595317 0.553842 0.234698 -0.666754
O15   O     O_3   0.573661 0.437268 0.791977 -0.644528
O16   O     O_3   0.198507 0.504569 0.375505 -0.589305
O17   O     O_3   0.771871 0.502169 0.660898 -0.561226
O18   O     O_3   0.454534 0.709256 0.412173 -0.590805
O19   O     O_3   0.553902 0.298279 0.582057 -0.603080
O20   O     O_3   0.698068 0.867998 0.695132 -0.482365
O21   O     O_3   0.296038 0.132737 0.313628 -0.514264
O22   O     O_R   0.490220 0.160840 0.620610 -0.456938
O23   O     O_R   0.509780 0.839160 0.379390 -0.411083
O24   O     O_R   0.663260 0.919400 0.523940 -0.492505
O25   O     O_R   0.336740 0.080600 0.476060 -0.447631
O26   O     O_R   0.618720 0.060610 0.481950 -0.551926
O27   O     O_R   0.381280 0.939390 0.518050 -0.476929
O28   O     O_3   0.058678 0.994041 0.627294 -0.720219

loop_
_geom_bond_atom_site_label_1
_geom_bond_atom_site_label_2
_ccdc_geom_bond_type
C48   H15   S    
C23   C58   A    
C49   O16   S    
C11   C18   A    
C34   C56   A    
C23   C45   A    
C42   H2    S    
H19   O8    S    
Cu1   O1    S    
C18   C21   A    
C33   C45   A    
Cu2   O12   S    
C17   O27   A    
C19   C20   A    
C41   H52   S    
C60   O14   S    
C4    C56   A    
C8    N2    A    
C53   C54   S    
C40   O3    S    
C5    H1    S    
C12   O12   A    
C22   O16   S    
C39   O7    S    
C48   H17   S    
C54   H42   S    
C28   C29   S    
C16   O26   A    
C10   O18   S    
C47   H14   S    
C11   C14   A    
H24   O13   S    
C57   H50   S    
H18   O7    S    
H21   O10   S    
H22   O11   S    
C1    C31   S    
C33   C36   A    
C55   O21   S    
C12   O23   A    
C4    O6    S    
C8    O20   S    
C18   C19   A    
C1    O1    A    
C32   C39   A    
C48   H16   S    
C21   O4    S    
C7    N1    A    
Cu2   N1    S    
Cu1   O27   S    
C6    C15   A    
C51   O17   S    
C47   C48   S    
C3    O5    S    
C43   H6    S    
C42   H3    S    
C44   H8    S    
Cu2   O25   S    
C46   H10   S    
C3    C60   A    
C35   C56   A    
C59   C60   A    
C55   H47   S    
C27   C30   S    
C36   O10   S    
C9    O19   S    
C41   H53   S    
C38   O8    S    
C44   C46   S    
C6    H12   S    
C16   C26   S    
C2    O15   S    
C46   H9    S    
C13   C19   A    
C51   C52   S    
H23   O28   S    
C49   H27   S    
C5    C7    A    
H39   O19   S    
C6    C8    A    
C58   C59   A    
C27   O2    S    
C3    C45   A    
C34   C39   A    
H25   O14   S    
C16   O24   A    
C52   H35   S    
C10   N2    A    
Cu1   O24   S    
C40   H51   S    
C53   H40   S    
C5    C14   A    
C44   H7    S    
C50   H31   S    
C15   C24   A    
C32   C37   A    
C54   H44   S    
C9    C11   A    
C20   O3    S    
C1    O22   A    
C40   H45   S    
C24   O17   S    
Cu1   O23   S    
C40   C41   S    
C20   C22   A    
C53   O20   S    
C55   C57   S    
C34   C59   A    
C42   C43   S    
C41   H54   S    
C35   O13   S    
C42   O4    S    
C33   O11   S    
C25   C30   T    
C50   H30   S    
C52   H37   S    
C54   H43   S    
C35   C37   A    
Cu1   N2    S    
H34   O2    S    
Cu2   O26   S    
C10   C13   A    
H26   O15   S    
C2    C58   A    
C57   H48   S    
C23   C38   A    
C44   O5    S    
C28   O28   S    
C31   C38   A    
C55   H46   S    
C17   O25   A    
C17   C25   S    
C14   C22   A    
C13   C15   A    
C47   H13   S    
C7    O21   S    
C47   O6    S    
C57   H49   S    
C53   H41   S    
C43   H4    S    
C2    C4    A    
C52   H36   S    
C46   H11   S    
Cu1   Cu2   S    
H20   O9    S    
C51   H32   S    
C50   H29   S    
C26   C29   T    
C43   H5    S    
C49   C50   S    
C21   C24   A    
C27   C28   D    
C31   C36   A    
Cu2   O22   S    
C49   H28   S    
C12   C32   S    
C9    N1    A    
H38   O18   S    
C51   H33   S    
C37   O9    S    
