data_mof_unit_55334.cif
_audit_creation_date              2013-03-05T16:49:07-0500
_audit_creation_method            fapswitch 2.2
_symmetry_space_group_name_H-M    P1
_symmetry_Int_Tables_number       1
_space_group_crystal_system       triclinic
_cell_length_a                    15.889917
_cell_length_b                    8.936459
_cell_length_c                    8.11511
_cell_angle_alpha                 90.004774
_cell_angle_beta                  89.970781
_cell_angle_gamma                 89.997621
_cell_volume                      1152.34215244

loop_
_atom_site_label
_atom_site_type_symbol
_atom_site_description
_atom_site_fract_x
_atom_site_fract_y
_atom_site_fract_z
_atom_type_partial_charge
O1    O     O_R   0.500000 0.285350 0.636850 -0.615424
O2    O     O_R   0.500000 0.714650 0.363150 -0.615431
O3    O     O_R   0.500000 0.714650 0.636850 -0.614835
O4    O     O_R   0.500000 0.285350 0.363150 -0.614877
C1    C     C_R   0.500001 0.218013 0.499996 0.933187
C2    C     C_R   0.500001 0.781987 0.500004 0.933269
O5    O     O_R   0.378020 0.500000 0.636840 -0.614631
O6    O     O_R   0.621980 0.500000 0.363160 -0.615076
O7    O     O_R   0.621980 0.500000 0.636840 -0.615020
O8    O     O_R   0.378020 0.500000 0.363160 -0.614390
C3    C     C_R   0.339002 0.500052 0.500053 0.901648
C4    C     C_R   0.660998 0.499980 0.499962 0.897503
Zn1   Zn    Zn3+2 0.500000 0.500000 0.682780 0.994420
Zn2   Zn    Zn3+2 0.500000 0.500000 0.317220 0.994457
C5    C     C_R   0.955552 0.436056 0.634323 0.147456
C6    C     C_R   0.044149 0.573536 0.369828 0.152894
C7    C     C_R   0.044059 0.434260 0.633769 0.152994
C8    C     C_R   0.955667 0.569948 0.368038 0.147338
C9    C     C_R   0.912995 0.502455 0.500814 0.026514
C10   C     C_R   0.087113 0.503773 0.501724 0.040727
C11   C     C_1   0.823678 0.501431 0.500178 -0.006236
C12   C     C_1   0.176283 0.502455 0.500895 -0.008739
C13   C     C_1   0.250930 0.501219 0.500301 -0.192030
C14   C     C_1   0.749069 0.500645 0.499926 -0.181647
C15   C     C_1   0.500002 0.065189 0.499994 -0.189128
C16   C     C_1   0.500001 0.934810 0.500006 -0.189145
N1    N     N_1   0.500000 0.500000 0.073640 -0.031095
N2    N     N_1   0.500000 0.500000 0.926360 -0.031101
C17   C     C_3   0.091425 0.357715 0.773132 -0.872525
H1    H     H_    0.076500 0.413426 0.891720 0.237919
H2    H     H_    0.072922 0.238023 0.779326 0.243008
H3    H     H_    0.160752 0.359933 0.760260 0.246150
C18   C     C_3   0.904827 0.636908 0.227181 -0.870557
H4    H     H_    0.942871 0.685120 0.126219 0.246197
H5    H     H_    0.864650 0.548789 0.171286 0.241644
H6    H     H_    0.863840 0.727602 0.275305 0.241304
C19   C     C_3   0.904548 0.367934 0.774391 -0.870301
H7    H     H_    0.864054 0.276938 0.725450 0.241172
H8    H     H_    0.942444 0.319569 0.875394 0.246119
H9    H     H_    0.863864 0.455357 0.830297 0.241706
C20   C     C_3   0.091600 0.652215 0.231948 -0.872228
H10   H     H_    0.160801 0.653425 0.247287 0.245865
H11   H     H_    0.078492 0.595942 0.112895 0.238064
H12   H     H_    0.071480 0.771056 0.225210 0.242859

loop_
_geom_bond_atom_site_label_1
_geom_bond_atom_site_label_2
_geom_bond_distance
_ccdc_geom_bond_type
C5    C9    1.408561 A    
Zn1   N2    1.976678 S    
C17   H1    1.109020 S    
Zn2   N1    1.976678 S    
C19   H9    1.110713 S    
C7    C17   1.521309 S    
C20   H10   1.106739 S    
C4    C14   1.399447 S    
O3    Zn1   1.954117 S    
C6    C10   1.414640 A    
O6    C4    1.271829 A    
O3    C2    1.263119 A    
C7    C10   1.414761 A    
C18   H4    1.105398 S    
C19   H8    1.105343 S    
C6    C8    1.406416 A    
O2    C2    1.263088 A    
O5    C3    1.271723 A    
C20   H11   1.108966 S    
C2    C16   1.365705 S    
O1    C1    1.263090 A    
C3    C13   1.399500 S    
C9    C11   1.419270 S    
C19   H7    1.110525 S    
C10   C12   1.416970 S    
C17   H3    1.106656 S    
O4    Zn2   1.954118 S    
O2    Zn2   1.954056 S    
C20   H12   1.110431 S    
C1    C15   1.365707 S    
O1    Zn1   1.954057 S    
O8    C3    1.271926 A    
C8    C18   1.522599 S    
O5    Zn1   1.973967 S    
C18   H6    1.110498 S    
C17   H2    1.110437 S    
C8    C9    1.408526 A    
O8    Zn2   1.973593 S    
C11   C14   1.185567 T    
N1    N2    1.195193 T    
C5    C7    1.406458 A    
O7    Zn1   1.973592 S    
C12   C13   1.186188 T    
C5    C19   1.522722 S    
O6    Zn2   1.973965 S    
C18   H5    1.110721 S    
C15   C16   1.165123 T    
O7    C4    1.271821 A    
C6    C20   1.521231 S    
O4    C1    1.263118 A    
