data_mof_unit_59623.cif
_audit_creation_date              2013-03-05T15:47:59-0500
_audit_creation_method            fapswitch 2.2
_symmetry_space_group_name_H-M    P1
_symmetry_Int_Tables_number       1
_space_group_crystal_system       triclinic
_cell_length_a                    22.088534
_cell_length_b                    22.088546
_cell_length_c                    23.368713
_cell_angle_alpha                 90.000554
_cell_angle_beta                  90.000389
_cell_angle_gamma                 90.000446
_cell_volume                      11401.6791833

loop_
_atom_site_label
_atom_site_type_symbol
_atom_site_description
_atom_site_fract_x
_atom_site_fract_y
_atom_site_fract_z
_atom_type_partial_charge
O1    O     O_R   0.408370 0.051730 0.500010 -0.605236
O2    O     O_R   0.948270 0.408370 0.500010 -0.605231
O3    O     O_R   0.591630 0.948270 0.500010 -0.605242
O4    O     O_R   0.051730 0.591630 0.500010 -0.605245
O5    O     O_R   0.591630 0.051730 0.499990 -0.605203
O6    O     O_R   0.051730 0.408370 0.499990 -0.605235
O7    O     O_R   0.408370 0.948270 0.499990 -0.605232
O8    O     O_R   0.948270 0.591630 0.499990 -0.605226
O9    O     O_R   0.908370 0.551730 0.000010 -0.605237
O10   O     O_R   0.448270 0.908370 0.000010 -0.605208
O11   O     O_R   0.091630 0.448270 0.000010 -0.605244
O12   O     O_R   0.551730 0.091630 0.000010 -0.605229
O13   O     O_R   0.091630 0.551730 0.999990 -0.605229
O14   O     O_R   0.551730 0.908370 0.999990 -0.605245
O15   O     O_R   0.908370 0.448270 0.999990 -0.605223
O16   O     O_R   0.448270 0.091630 0.999990 -0.605243
C1    C     C_R   0.380061 0.000000 0.500001 0.943605
C2    C     C_R   1.000000 0.380061 0.499999 0.943596
C3    C     C_R   0.619938 0.000001 0.499996 0.943581
C4    C     C_R   1.000000 0.619938 0.499999 0.943583
C5    C     C_R   0.880062 0.499999 0.999998 0.943588
C6    C     C_R   0.499999 0.880062 0.000003 0.943580
C7    C     C_R   0.119938 0.500000 1.000000 0.943590
C8    C     C_R   0.500000 0.119939 0.999999 0.943604
O17   O     O_R   0.499980 0.051730 0.417240 -0.620002
O18   O     O_R   0.948270 0.499980 0.417240 -0.620001
O19   O     O_R   0.500020 0.948270 0.417240 -0.620013
O20   O     O_R   0.051730 0.500020 0.417240 -0.620002
O21   O     O_R   0.500020 0.051730 0.582760 -0.620002
O22   O     O_R   0.051730 0.499980 0.582760 -0.620000
O23   O     O_R   0.499980 0.948270 0.582760 -0.620002
O24   O     O_R   0.948270 0.500020 0.582760 -0.620003
O25   O     O_R   0.999980 0.551730 0.917240 -0.620007
O26   O     O_R   0.448270 0.999980 0.917240 -0.620004
O27   O     O_R   0.000020 0.448270 0.917240 -0.620006
O28   O     O_R   0.551730 0.000020 0.917240 -0.619999
O29   O     O_R   0.000020 0.551730 0.082760 -0.619999
O30   O     O_R   0.551730 0.999980 0.082760 -0.620012
O31   O     O_R   0.999980 0.448270 0.082760 -0.620005
O32   O     O_R   0.448270 0.000020 0.082760 -0.620002
C9    C     C_R   0.500006 1.000000 0.391010 0.892275
C10   C     C_R   1.000000 0.500001 0.391010 0.892284
C11   C     C_R   0.500000 0.000000 0.608990 0.892293
C12   C     C_R   0.000000 0.500001 0.608990 0.892294
C13   C     C_R   0.999997 0.500000 0.891010 0.892281
C14   C     C_R   0.500000 1.000000 0.891010 0.892296
C15   C     C_R   0.000001 0.500000 0.108990 0.892296
C16   C     C_R   0.500000 0.999994 0.108990 0.892277
Zn1   Zn    Zn3+2 0.500000 0.069080 0.500000 0.957073
Zn2   Zn    Zn3+2 0.930920 0.500000 0.500000 0.957099
Zn3   Zn    Zn3+2 0.500000 0.930920 0.500000 0.957095
Zn4   Zn    Zn3+2 0.069080 0.500000 0.500000 0.957090
Zn5   Zn    Zn3+2 1.000000 0.569080 0.000000 0.957100
Zn6   Zn    Zn3+2 0.430920 0.000000 0.000000 0.957080
Zn7   Zn    Zn3+2 0.000000 0.430920 0.000000 0.957074
Zn8   Zn    Zn3+2 0.569080 0.000000 0.000000 0.957097
C17   C     C_1   0.500007 0.999999 0.330639 -0.181896
C18   C     C_1   1.000000 0.500001 0.330639 -0.181960
C19   C     C_1   0.500000 0.000001 0.669361 -0.181985
C20   C     C_1   0.000000 0.500001 0.669362 -0.182003
C21   C     C_1   0.999997 0.499999 0.830638 -0.181936
C22   C     C_1   0.499999 1.000000 0.830638 -0.181998
C23   C     C_1   0.000001 0.500001 0.169361 -0.182000
C24   C     C_1   0.500001 0.999993 0.169361 -0.181922
C25   C     C_1   0.500006 0.999997 0.279692 0.091911
C26   C     C_1   1.000000 0.500001 0.279692 0.091924
C27   C     C_1   0.499999 0.000000 0.720308 0.091923
C28   C     C_1   1.000000 0.500001 0.720308 0.091909
C29   C     C_1   0.999998 0.500000 0.779692 0.091921
C30   C     C_1   0.499999 1.000000 0.779692 0.091920
C31   C     C_1   0.000000 0.500001 0.220308 0.091915
C32   C     C_1   0.500003 0.999994 0.220308 0.091906
C33   C     C_R   0.311450 0.931345 0.410780 0.032819
C34   C     C_R   0.068672 0.311450 0.410789 0.032813
C35   C     C_R   0.688548 0.068709 0.410806 0.032696
C36   C     C_R   0.931316 0.688548 0.410795 0.032779
C37   C     C_R   0.688549 0.931326 0.589205 0.032830
C38   C     C_R   0.931337 0.311451 0.589215 0.032812
C39   C     C_R   0.311451 0.068676 0.589210 0.032801
C40   C     C_R   0.068677 0.688551 0.589206 0.032822
C41   C     C_R   0.811450 0.431308 0.910799 0.032752
C42   C     C_R   0.568674 0.811451 0.910794 0.032828
C43   C     C_R   0.188549 0.568675 0.910791 0.032811
C44   C     C_R   0.431329 0.188548 0.910788 0.032809
C45   C     C_R   0.188550 0.431325 0.089207 0.032821
C46   C     C_R   0.431297 0.811452 0.089196 0.032713
C47   C     C_R   0.811452 0.568669 0.089210 0.032820
C48   C     C_R   0.568652 0.188551 0.089222 0.032820
C49   C     C_R   0.278037 0.895718 0.372602 0.169464
C50   C     C_R   0.104308 0.278038 0.372619 0.169463
C51   C     C_R   0.721960 0.104366 0.372654 0.169599
C52   C     C_R   0.895674 0.721959 0.372630 0.169493
C53   C     C_R   0.721961 0.895686 0.627371 0.169441
C54   C     C_R   0.895706 0.278039 0.627389 0.169457
C55   C     C_R   0.278040 0.104313 0.627379 0.169472
C56   C     C_R   0.104317 0.721964 0.627373 0.169449
C57   C     C_R   0.778038 0.395659 0.872638 0.169533
C58   C     C_R   0.604314 0.778038 0.872627 0.169443
C59   C     C_R   0.221961 0.604313 0.872623 0.169456
C60   C     C_R   0.395694 0.221960 0.872617 0.169458
C61   C     C_R   0.221962 0.395686 0.127375 0.169451
C62   C     C_R   0.395643 0.778040 0.127352 0.169571
C63   C     C_R   0.778040 0.604305 0.127381 0.169448
C64   C     C_R   0.604276 0.221964 0.127402 0.169461
C65   C     C_R   0.221581 0.876725 0.388338 0.194921
C66   C     C_R   0.123295 0.221580 0.388357 0.194928
C67   C     C_R   0.778425 0.123331 0.388390 0.194928
C68   C     C_R   0.876694 0.778419 0.388366 0.194942
C69   C     C_R   0.778416 0.876698 0.611629 0.194946
C70   C     C_R   0.876716 0.221582 0.611652 0.194934
C71   C     C_R   0.221581 0.123297 0.611643 0.194931
C72   C     C_R   0.123304 0.778420 0.611632 0.194936
C73   C     C_R   0.721576 0.376684 0.888375 0.194925
C74   C     C_R   0.623302 0.721583 0.888369 0.194943
C75   C     C_R   0.278419 0.623298 0.888361 0.194943
C76   C     C_R   0.376708 0.278418 0.888353 0.194932
C77   C     C_R   0.278419 0.376700 0.111635 0.194933
C78   C     C_R   0.376675 0.721576 0.111616 0.194934
C79   C     C_R   0.721584 0.623294 0.111642 0.194943
C80   C     C_R   0.623271 0.278419 0.111666 0.194917
C81   C     C_R   0.188342 0.911543 0.427407 0.028322
C82   C     C_R   0.088466 0.188341 0.427418 0.028298
C83   C     C_R   0.811663 0.088481 0.427433 0.028236
C84   C     C_R   0.911529 0.811658 0.427422 0.028284
C85   C     C_R   0.811656 0.911530 0.572572 0.028298
C86   C     C_R   0.911539 0.188342 0.572588 0.028316
C87   C     C_R   0.188342 0.088467 0.572583 0.028296
C88   C     C_R   0.088472 0.811659 0.572575 0.028292
C89   C     C_R   0.688338 0.411525 0.927426 0.028266
C90   C     C_R   0.588470 0.688343 0.927426 0.028296
C91   C     C_R   0.311659 0.588467 0.927419 0.028300
C92   C     C_R   0.411535 0.311658 0.927415 0.028304
C93   C     C_R   0.311658 0.411531 0.072577 0.028294
C94   C     C_R   0.411522 0.688338 0.072570 0.028249
C95   C     C_R   0.688343 0.588466 0.072581 0.028305
C96   C     C_R   0.588455 0.311659 0.072595 0.028329
C97   C     C_R   0.217766 0.958686 0.461951 -0.030181
C98   C     C_R   0.041320 0.217766 0.461956 -0.030169
C99   C     C_R   0.782234 0.041329 0.461961 -0.030169
C100  C     C_R   0.958677 0.782233 0.461957 -0.030173
C101  C     C_R   0.782232 0.958680 0.538039 -0.030177
C102  C     C_R   0.958684 0.217766 0.538047 -0.030163
C103  C     C_R   0.217766 0.041321 0.538045 -0.030173
C104  C     C_R   0.041323 0.782234 0.538040 -0.030182
C105  C     C_R   0.717765 0.458674 0.961959 -0.030178
C106  C     C_R   0.541321 0.717767 0.961961 -0.030180
C107  C     C_R   0.282234 0.541320 0.961956 -0.030161
C108  C     C_R   0.458680 0.282234 0.961955 -0.030170
C109  C     C_R   0.282234 0.458678 0.038041 -0.030171
C110  C     C_R   0.458672 0.717766 0.038040 -0.030167
C111  C     C_R   0.717767 0.541319 0.038043 -0.030181
C112  C     C_R   0.541313 0.282234 0.038050 -0.030175
C113  C     C_R   0.282095 0.963408 0.457984 -0.005447
C114  C     C_R   0.036600 0.282096 0.457989 -0.005445
C115  C     C_R   0.717903 0.036616 0.457995 -0.005450
C116  C     C_R   0.963396 0.717903 0.457990 -0.005448
C117  C     C_R   0.717903 0.963401 0.542007 -0.005453
C118  C     C_R   0.963405 0.282096 0.542013 -0.005437
C119  C     C_R   0.282096 0.036602 0.542011 -0.005451
C120  C     C_R   0.036602 0.717905 0.542008 -0.005463
C121  C     C_R   0.782096 0.463391 0.957992 -0.005461
C122  C     C_R   0.536599 0.782097 0.957993 -0.005454
C123  C     C_R   0.217904 0.536601 0.957989 -0.005442
C124  C     C_R   0.463400 0.217904 0.957988 -0.005448
C125  C     C_R   0.217904 0.463399 0.042009 -0.005450
C126  C     C_R   0.463387 0.782097 0.042006 -0.005449
C127  C     C_R   0.782097 0.536597 0.042011 -0.005451
C128  C     C_R   0.536590 0.217905 0.042017 -0.005442
C129  C     C_R   0.186386 0.000002 0.499999 -0.137559
C130  C     C_R   0.000002 0.186386 0.500001 -0.137560
C131  C     C_R   0.813613 0.000002 0.499999 -0.137547
C132  C     C_R   0.000000 0.813614 0.499999 -0.137551
C133  C     C_R   0.686386 0.499998 0.000000 -0.137549
C134  C     C_R   0.499999 0.686387 0.000001 -0.137549
C135  C     C_R   0.313614 0.499999 0.999999 -0.137557
C136  C     C_R   0.499999 0.313614 0.000000 -0.137563
C137  C     C_R   0.313735 0.000002 0.500000 -0.088390
C138  C     C_R   0.000001 0.313735 0.500000 -0.088386
C139  C     C_R   0.686264 0.000006 0.499999 -0.088393
C140  C     C_R   0.999999 0.686265 0.499999 -0.088399
C141  C     C_R   0.813735 0.499996 1.000000 -0.088397
C142  C     C_R   0.499995 0.813735 0.000001 -0.088394
C143  C     C_R   0.186265 0.500000 1.000000 -0.088392
C144  C     C_R   0.499998 0.186265 0.000000 -0.088386
O33   O     O_R   0.999980 0.091600 0.546760 -0.622594
O34   O     O_R   0.908400 0.999980 0.546760 -0.622597
O35   O     O_R   0.000020 0.908400 0.546760 -0.622597
O36   O     O_R   0.091600 0.000020 0.546760 -0.622595
O37   O     O_R   0.000020 0.091600 0.453240 -0.622587
O38   O     O_R   0.091600 0.999980 0.453240 -0.622597
O39   O     O_R   0.999980 0.908400 0.453240 -0.622597
O40   O     O_R   0.908400 0.000020 0.453240 -0.622587
O41   O     O_R   0.499980 0.591600 0.046760 -0.622592
O42   O     O_R   0.408400 0.499980 0.046760 -0.622589
O43   O     O_R   0.500020 0.408400 0.046760 -0.622595
O44   O     O_R   0.591600 0.500020 0.046760 -0.622601
O45   O     O_R   0.500020 0.591600 0.953240 -0.622595
O46   O     O_R   0.591600 0.499980 0.953240 -0.622594
O47   O     O_R   0.499980 0.408400 0.953240 -0.622590
O48   O     O_R   0.408400 0.500020 0.953240 -0.622594
C145  C     C_R   0.000001 0.120513 0.500000 0.978112
C146  C     C_R   0.879486 0.000001 0.500000 0.978135
C147  C     C_R   0.000000 0.879487 0.500000 0.978141
C148  C     C_R   0.120513 0.000000 0.500000 0.978127
C149  C     C_R   0.500000 0.620513 0.000000 0.978137
C150  C     C_R   0.379487 0.499999 1.000000 0.978121
C151  C     C_R   0.500000 0.379487 1.000000 0.978115
C152  C     C_R   0.620513 0.499999 0.000000 0.978141
Zn9   Zn    Zn3+2 0.000000 1.000000 0.562420 0.866591
Zn10  Zn    Zn3+2 0.000000 0.000000 0.437580 0.866594
Zn11  Zn    Zn3+2 0.500000 0.500000 0.062420 0.866593
Zn12  Zn    Zn3+2 0.500000 0.500000 0.937580 0.866593
N1    N     N_R   0.305298 0.127287 0.678920 0.250701
O49   O     O_R   0.312380 0.185262 0.686388 -0.253562
O50   O     O_R   0.327060 0.089802 0.716612 -0.342454
N2    N     N_R   0.872746 0.305295 0.678936 0.250696
O51   O     O_R   0.814772 0.312375 0.686418 -0.253549
O52   O     O_R   0.910240 0.327055 0.716621 -0.342479
N3    N     N_R   0.694707 0.872717 0.678915 0.250697
O53   O     O_R   0.687625 0.814743 0.686388 -0.253567
O54   O     O_R   0.672949 0.910205 0.716606 -0.342459
N4    N     N_R   0.127288 0.694710 0.678916 0.250700
O55   O     O_R   0.185262 0.687628 0.686388 -0.253568
O56   O     O_R   0.089800 0.672951 0.716608 -0.342451
N5    N     N_R   0.694690 0.127393 0.321142 0.250695
O57   O     O_R   0.687580 0.185375 0.313745 -0.253763
O58   O     O_R   0.672938 0.089947 0.283411 -0.342363
N6    N     N_R   0.127278 0.305294 0.321078 0.250698
O59   O     O_R   0.185253 0.312374 0.313605 -0.253552
O60   O     O_R   0.089791 0.327057 0.283388 -0.342465
N7    N     N_R   0.305293 0.872764 0.321053 0.250694
O61   O     O_R   0.312371 0.814792 0.313562 -0.253536
O62   O     O_R   0.327050 0.910263 0.283372 -0.342487
N8    N     N_R   0.872687 0.694698 0.321096 0.250700
O63   O     O_R   0.814710 0.687607 0.313644 -0.253625
O64   O     O_R   0.910163 0.672940 0.283394 -0.342429
N9    N     N_R   0.805296 0.627270 0.178926 0.250699
O65   O     O_R   0.812378 0.685244 0.186405 -0.253557
O66   O     O_R   0.827053 0.589779 0.216615 -0.342461
N10   N     N_R   0.372625 0.805308 0.178868 0.250697
O67   O     O_R   0.314644 0.812415 0.186277 -0.253737
O68   O     O_R   0.410078 0.827062 0.216593 -0.342378
N11   N     N_R   0.194707 0.372716 0.178918 0.250699
O69   O     O_R   0.187624 0.314741 0.186389 -0.253564
O70   O     O_R   0.172947 0.410203 0.216609 -0.342454
N12   N     N_R   0.627227 0.194709 0.178953 0.250693
O71   O     O_R   0.685199 0.187630 0.186447 -0.253532
O72   O     O_R   0.589725 0.172952 0.216632 -0.342491
N13   N     N_R   0.194704 0.627284 0.821081 0.250699
O73   O     O_R   0.187624 0.685259 0.813611 -0.253569
O74   O     O_R   0.172942 0.589798 0.783390 -0.342462
N14   N     N_R   0.627283 0.805292 0.821084 0.250698
O75   O     O_R   0.685257 0.812375 0.813611 -0.253567
O76   O     O_R   0.589795 0.827051 0.783393 -0.342459
N15   N     N_R   0.805301 0.372659 0.821112 0.250699
O77   O     O_R   0.812399 0.314680 0.813679 -0.253675
O78   O     O_R   0.827057 0.410125 0.783400 -0.342402
N16   N     N_R   0.372725 0.194702 0.821074 0.250702
O79   O     O_R   0.314750 0.187619 0.813601 -0.253559
O80   O     O_R   0.410213 0.172940 0.783385 -0.342460
N17   N     N_2   0.375005 0.929008 0.402244 -0.283122
H1    H     H_    0.388948 0.954949 0.368104 0.237777
C153  C     C_3   0.401677 0.868129 0.403597 -0.490762
H2    H     H_    0.436703 0.864366 0.437159 0.241509
H3    H     H_    0.422787 0.857310 0.361656 0.247174
H4    H     H_    0.368023 0.832448 0.414331 0.218086
N18   N     N_2   0.071009 0.375005 0.402251 -0.283122
H5    H     H_    0.045075 0.388947 0.368105 0.237783
C154  C     C_3   0.131886 0.401681 0.403619 -0.490754
H6    H     H_    0.135637 0.436717 0.437170 0.241499
H7    H     H_    0.142720 0.422777 0.361679 0.247199
H8    H     H_    0.167560 0.368033 0.414374 0.218078
N19   N     N_2   0.624990 0.071099 0.402287 -0.283048
H9    H     H_    0.611010 0.045237 0.368104 0.237833
C155  C     C_3   0.598375 0.132001 0.403752 -0.490938
H10   H     H_    0.563161 0.135652 0.437158 0.241568
H11   H     H_    0.577508 0.143039 0.361739 0.247421
H12   H     H_    0.632035 0.167593 0.414801 0.217996
N20   N     N_2   0.928968 0.624992 0.402260 -0.283104
H13   H     H_    0.954887 0.611042 0.368106 0.237784
C156  C     C_3   0.868085 0.598329 0.403647 -0.490749
H14   H     H_    0.864360 0.563250 0.437166 0.241519
H15   H     H_    0.857204 0.577286 0.361685 0.247258
H16   H     H_    0.832426 0.631981 0.414472 0.218059
N21   N     N_2   0.624994 0.928996 0.597749 -0.283117
H17   H     H_    0.611058 0.954936 0.631893 0.237769
C157  C     C_3   0.598312 0.868121 0.596390 -0.490685
H18   H     H_    0.563284 0.864366 0.562829 0.241498
H19   H     H_    0.577203 0.857301 0.638331 0.247190
H20   H     H_    0.631959 0.832437 0.585650 0.218078
N22   N     N_2   0.929002 0.375006 0.597753 -0.283126
H21   H     H_    0.954943 0.388947 0.631896 0.237771
C158  C     C_3   0.868125 0.401682 0.596397 -0.490723
H22   H     H_    0.864365 0.436706 0.562834 0.241501
H23   H     H_    0.857307 0.422794 0.638338 0.247177
H24   H     H_    0.832442 0.368029 0.585663 0.218088
N23   N     N_2   0.375007 0.071016 0.597747 -0.283119
H25   H     H_    0.388951 0.045087 0.631895 0.237784
C159  C     C_3   0.401679 0.131894 0.596374 -0.490768
H26   H     H_    0.436725 0.135639 0.562832 0.241495
H27   H     H_    0.422762 0.142740 0.638318 0.247216
H28   H     H_    0.368031 0.167563 0.585601 0.218074
N24   N     N_2   0.071007 0.624996 0.597749 -0.283123
H29   H     H_    0.045066 0.611059 0.631893 0.237768
C160  C     C_3   0.131881 0.598314 0.596391 -0.490697
H30   H     H_    0.135635 0.563285 0.562830 0.241497
H31   H     H_    0.142703 0.577206 0.638333 0.247198
H32   H     H_    0.167566 0.631962 0.585649 0.218078
N25   N     N_2   0.875006 0.428945 0.902269 -0.283083
H33   H     H_    0.888967 0.454845 0.868106 0.237802
C161  C     C_3   0.901653 0.368056 0.903682 -0.490827
H34   H     H_    0.936780 0.364357 0.937161 0.241537
H35   H     H_    0.922632 0.357120 0.861701 0.247319
H36   H     H_    0.867998 0.332420 0.914587 0.218034
N26   N     N_2   0.571004 0.875005 0.902251 -0.283119
H37   H     H_    0.545063 0.888941 0.868107 0.237768
C162  C     C_3   0.631879 0.901688 0.903609 -0.490683
H38   H     H_    0.635634 0.936715 0.937171 0.241498
H39   H     H_    0.642698 0.922798 0.861668 0.247192
H40   H     H_    0.667564 0.868040 0.914347 0.218078
N27   N     N_2   0.124994 0.571009 0.902251 -0.283121
H41   H     H_    0.111053 0.545072 0.868107 0.237773
C163  C     C_3   0.098317 0.631885 0.903616 -0.490704
H42   H     H_    0.063284 0.635637 0.937172 0.241499
H43   H     H_    0.077215 0.642714 0.861673 0.247195
H44   H     H_    0.131966 0.667565 0.914366 0.218081
N28   N     N_2   0.428995 0.124993 0.902249 -0.283127
H45   H     H_    0.454933 0.111053 0.868105 0.237772
C164  C     C_3   0.368119 0.098315 0.903609 -0.490705
H46   H     H_    0.364364 0.063288 0.937170 0.241493
H47   H     H_    0.357296 0.077204 0.861668 0.247195
H48   H     H_    0.332437 0.131965 0.914349 0.218086
N29   N     N_2   0.124995 0.428994 0.097749 -0.283123
H49   H     H_    0.111057 0.454933 0.131893 0.237771
C165  C     C_3   0.098314 0.368119 0.096389 -0.490702
H50   H     H_    0.063285 0.364365 0.062829 0.241494
H51   H     H_    0.077206 0.357296 0.138330 0.247197
H52   H     H_    0.131962 0.332435 0.085647 0.218081
N30   N     N_2   0.428918 0.875009 0.097720 -0.283062
H53   H     H_    0.454795 0.888982 0.131895 0.237816
C166  C     C_3   0.368020 0.901637 0.096275 -0.490869
H54   H     H_    0.364351 0.936817 0.062840 0.241557
H55   H     H_    0.357022 0.922548 0.138277 0.247382
H56   H     H_    0.332410 0.867977 0.085283 0.218013
N31   N     N_2   0.875007 0.571002 0.097752 -0.283122
H57   H     H_    0.888945 0.545062 0.131895 0.237769
C167  C     C_3   0.901686 0.631878 0.096395 -0.490702
H58   H     H_    0.936712 0.635635 0.062832 0.241500
H59   H     H_    0.922798 0.642698 0.138336 0.247185
H60   H     H_    0.868036 0.667561 0.085658 0.218082
N32   N     N_2   0.570988 0.124996 0.097758 -0.283126
H61   H     H_    0.545044 0.111054 0.131897 0.237775
C168  C     C_3   0.631866 0.098322 0.096409 -0.490763
H62   H     H_    0.635633 0.063302 0.062842 0.241509
H63   H     H_    0.642678 0.077205 0.138348 0.247163
H64   H     H_    0.667549 0.131977 0.085686 0.218092
N33   N     N_R   0.195223 0.824401 0.361252 0.236798
O81   O     O_R   0.188611 0.822281 0.305928 -0.293151
O82   O     O_R   0.174690 0.780091 0.392384 -0.369730
N34   N     N_R   0.175621 0.195220 0.361278 0.236802
O83   O     O_R   0.177750 0.188612 0.305954 -0.293162
O84   O     O_R   0.219923 0.174682 0.392416 -0.369730
N35   N     N_R   0.804793 0.175662 0.361325 0.236798
O85   O     O_R   0.811368 0.177822 0.305999 -0.293136
O86   O     O_R   0.825353 0.219945 0.392475 -0.369769
N36   N     N_R   0.824366 0.804781 0.361291 0.236796
O87   O     O_R   0.822228 0.811378 0.305966 -0.293167
O88   O     O_R   0.780069 0.825326 0.392432 -0.369752
N37   N     N_R   0.804776 0.824368 0.638703 0.236797
O89   O     O_R   0.811387 0.822234 0.694027 -0.293172
O90   O     O_R   0.825313 0.780069 0.607560 -0.369749
N38   N     N_R   0.824392 0.195223 0.638735 0.236798
O91   O     O_R   0.822268 0.188614 0.694059 -0.293155
O92   O     O_R   0.780085 0.174687 0.607600 -0.369748
N39   N     N_R   0.195220 0.175623 0.638722 0.236800
O93   O     O_R   0.188616 0.177754 0.694046 -0.293164
O94   O     O_R   0.174680 0.219924 0.607584 -0.369737
N40   N     N_R   0.175633 0.804782 0.638708 0.236798
O95   O     O_R   0.177767 0.811390 0.694031 -0.293171
O96   O     O_R   0.219932 0.825322 0.607566 -0.369748
N41   N     N_R   0.695212 0.324355 0.861303 0.236797
O97   O     O_R   0.688622 0.322208 0.805978 -0.293150
O98   O     O_R   0.674661 0.280063 0.892448 -0.369758
N42   N     N_R   0.675631 0.695223 0.861294 0.236798
O99   O     O_R   0.677764 0.688613 0.805971 -0.293176
O100  O     O_R   0.719931 0.674685 0.892436 -0.369744
N43   N     N_R   0.304781 0.675624 0.861283 0.236798
O101  O     O_R   0.311387 0.677755 0.805959 -0.293168
O102  O     O_R   0.325321 0.719925 0.892422 -0.369753
N44   N     N_R   0.324382 0.304777 0.861272 0.236799
O103  O     O_R   0.322254 0.311383 0.805948 -0.293165
O104  O     O_R   0.280079 0.325316 0.892409 -0.369733
N45   N     N_R   0.304779 0.324372 0.138711 0.236800
O105  O     O_R   0.311387 0.322239 0.194035 -0.293161
O106  O     O_R   0.325318 0.280072 0.107571 -0.369734
N46   N     N_R   0.324345 0.695210 0.138683 0.236797
O107  O     O_R   0.322190 0.688630 0.194009 -0.293141
O108  O     O_R   0.280058 0.674652 0.107535 -0.369766
N47   N     N_R   0.695225 0.675621 0.138721 0.236796
O109  O     O_R   0.688616 0.677751 0.194045 -0.293170
O110  O     O_R   0.674688 0.719924 0.107583 -0.369744
N48   N     N_R   0.675595 0.304776 0.138753 0.236798
O111  O     O_R   0.677712 0.311389 0.194077 -0.293143
O112  O     O_R   0.719906 0.325308 0.107623 -0.369735
N49   N     N_2   0.125068 0.899431 0.427441 -0.273030
H65   H     H_    0.113642 0.860994 0.449925 0.235904
C169  C     C_3   0.094819 0.904495 0.371674 -0.529347
H66   H     H_    0.057513 0.937689 0.372875 0.225438
H67   H     H_    0.075797 0.859992 0.358679 0.239123
H68   H     H_    0.125573 0.921340 0.337539 0.216392
N50   N     N_2   0.100572 0.125066 0.427448 -0.273029
H69   H     H_    0.139007 0.113637 0.449933 0.235906
C170  C     C_3   0.095508 0.094822 0.371678 -0.529347
H70   H     H_    0.062311 0.057520 0.372875 0.225440
H71   H     H_    0.140011 0.075798 0.358685 0.239124
H72   H     H_    0.078670 0.125581 0.337545 0.216390
N51   N     N_2   0.874939 0.100574 0.427456 -0.273014
H73   H     H_    0.886380 0.139003 0.449945 0.235915
C171  C     C_3   0.905172 0.095516 0.371681 -0.529380
H74   H     H_    0.942470 0.062312 0.372869 0.225437
H75   H     H_    0.924203 0.140017 0.358694 0.239115
H76   H     H_    0.874404 0.078692 0.337549 0.216383
N52   N     N_2   0.899428 0.874934 0.427449 -0.273025
H77   H     H_    0.860994 0.886367 0.449934 0.235912
C172  C     C_3   0.904490 0.905173 0.371678 -0.529375
H78   H     H_    0.937688 0.942476 0.372872 0.225438
H79   H     H_    0.859988 0.924197 0.358685 0.239120
H80   H     H_    0.921326 0.874411 0.337546 0.216390
N53   N     N_2   0.874932 0.899426 0.572545 -0.273037
H81   H     H_    0.886363 0.860991 0.550060 0.235908
C173  C     C_3   0.905172 0.904487 0.628317 -0.529356
H82   H     H_    0.942475 0.937685 0.627123 0.225442
H83   H     H_    0.924195 0.859985 0.641309 0.239124
H84   H     H_    0.874411 0.921325 0.662449 0.216395
N54   N     N_2   0.899430 0.125067 0.572557 -0.273033
H85   H     H_    0.860993 0.113639 0.550073 0.235906
C174  C     C_3   0.904496 0.094823 0.628325 -0.529354
H86   H     H_    0.937690 0.057518 0.627126 0.225440
H87   H     H_    0.859993 0.075801 0.641320 0.239125
H88   H     H_    0.921340 0.125580 0.662458 0.216392
N55   N     N_2   0.125067 0.100572 0.572553 -0.273028
H89   H     H_    0.113636 0.139007 0.550068 0.235905
C175  C     C_3   0.094824 0.095509 0.628323 -0.529354
H90   H     H_    0.057521 0.062312 0.627126 0.225439
H91   H     H_    0.075800 0.140012 0.641315 0.239122
H92   H     H_    0.125583 0.078671 0.662456 0.216391
N56   N     N_2   0.100575 0.874935 0.572547 -0.273031
H93   H     H_    0.139008 0.886367 0.550061 0.235904
C176  C     C_3   0.095514 0.905176 0.628318 -0.529348
H94   H     H_    0.062315 0.942477 0.627125 0.225440
H95   H     H_    0.140016 0.924201 0.641310 0.239121
H96   H     H_    0.078678 0.874415 0.662451 0.216394
N57   N     N_2   0.625062 0.399426 0.927453 -0.273020
H97   H     H_    0.613627 0.360994 0.949941 0.235907
C177  C     C_3   0.594824 0.404484 0.871680 -0.529365
H98   H     H_    0.557525 0.437686 0.872872 0.225438
H99   H     H_    0.575795 0.359983 0.858691 0.239118
H100  H     H_    0.625588 0.421314 0.837547 0.216388
N58   N     N_2   0.600574 0.625068 0.927454 -0.273035
H101  H     H_    0.639009 0.613636 0.949939 0.235908
C178  C     C_3   0.595512 0.594827 0.871683 -0.529356
H102  H     H_    0.562314 0.557524 0.872876 0.225442
H103  H     H_    0.640015 0.575803 0.858690 0.239121
H104  H     H_    0.578675 0.625588 0.837550 0.216394
N59   N     N_2   0.374934 0.600571 0.927448 -0.273031
H105  H     H_    0.386366 0.639007 0.949931 0.235909
C179  C     C_3   0.405175 0.595507 0.871677 -0.529362
H106  H     H_    0.442478 0.562310 0.872873 0.225439
H107  H     H_    0.424198 0.640009 0.858683 0.239124
H108  H     H_    0.374415 0.578667 0.837545 0.216392
N60   N     N_2   0.399428 0.374932 0.927446 -0.273028
H109  H     H_    0.360993 0.386362 0.949930 0.235906
C180  C     C_3   0.404492 0.405176 0.871676 -0.529359
H110  H     H_    0.437688 0.442480 0.872874 0.225441
H111  H     H_    0.359990 0.424199 0.858683 0.239123
H112  H     H_    0.421332 0.374418 0.837543 0.216390
N61   N     N_2   0.374933 0.399427 0.072548 -0.273032
H113  H     H_    0.386365 0.360992 0.050063 0.235907
C181  C     C_3   0.405175 0.404489 0.128319 -0.529347
H114  H     H_    0.442477 0.437687 0.127125 0.225441
H115  H     H_    0.424200 0.359987 0.141311 0.239123
H116  H     H_    0.374415 0.421326 0.162452 0.216392
N62   N     N_2   0.399427 0.625062 0.072546 -0.273017
H117  H     H_    0.360996 0.613623 0.050058 0.235915
C182  C     C_3   0.404486 0.594827 0.128320 -0.529380
H118  H     H_    0.437688 0.557529 0.127131 0.225438
H119  H     H_    0.359984 0.575798 0.141309 0.239117
H120  H     H_    0.421313 0.625595 0.162452 0.216385
N63   N     N_2   0.625069 0.600572 0.072551 -0.273033
H121  H     H_    0.613639 0.639008 0.050067 0.235907
C183  C     C_3   0.594826 0.595510 0.128321 -0.529362
H122  H     H_    0.557522 0.562314 0.127124 0.225440
H123  H     H_    0.575805 0.640012 0.141315 0.239122
H124  H     H_    0.625585 0.578669 0.162454 0.216394
N64   N     N_2   0.600569 0.374932 0.072560 -0.273032
H125  H     H_    0.639006 0.386357 0.050077 0.235902
C184  C     C_3   0.595504 0.405182 0.128327 -0.529341
H126  H     H_    0.562310 0.442488 0.127125 0.225439
H127  H     H_    0.640007 0.424203 0.141322 0.239125
H128  H     H_    0.578657 0.374430 0.162462 0.216392

loop_
_geom_bond_atom_site_label_1
_geom_bond_atom_site_label_2
_geom_bond_distance
_ccdc_geom_bond_type
N58   H101  1.029850 S    
N15   O78   1.300949 A    
N33   O81   1.301910 A    
C3    C139  1.465046 S    
N50   C170  1.468768 S    
O25   C13   1.296673 A    
C172  H78   1.103363 S    
N22   H21   1.029419 S    
C77   C93   1.401466 A    
C10   C18   1.410793 S    
C86   N54   1.423000 S    
N24   C160  1.468470 S    
C92   N60   1.422999 S    
C174  H86   1.103357 S    
C180  H112  1.111842 S    
C14   C22   1.410795 S    
C50   N6    1.438980 S    
N46   O108  1.301117 A    
O18   Zn2   1.971602 S    
O41   Zn11  2.056143 S    
C90   C106  1.469138 A    
N38   O91   1.301911 A    
C22   C30   1.190552 T    
N47   O110  1.301117 A    
C117  C139  1.451147 A    
C169  H68   1.111839 S    
C48   C64   1.399973 A    
C47   C127  1.462489 A    
N64   H125  1.029855 S    
O19   Zn3   1.971603 S    
C48   C128  1.462475 A    
C46   C126  1.462523 A    
C157  H19   1.111374 S    
C99   C131  1.450473 A    
C104  C120  1.427780 A    
C89   C105  1.469131 A    
C102  C130  1.450466 A    
C98   C114  1.427783 A    
N25   C161  1.468485 S    
C170  H71   1.111323 S    
C74   C90   1.401461 A    
O5    Zn1   2.059936 S    
O9    Zn5   2.059933 S    
O39   C147  1.265665 A    
C68   C84   1.401460 A    
O42   C150  1.265671 A    
N6    O59   1.301858 A    
C168  H63   1.111374 S    
C68   N36   1.440619 S    
N1    O50   1.300946 A    
N13   O74   1.300946 A    
C123  C143  1.451135 A    
C163  H42   1.104802 S    
C125  C143  1.451136 A    
C51   C67   1.366110 A    
C38   N22   1.418885 S    
C171  H76   1.111842 S    
O17   C9    1.296674 A    
C165  H51   1.111382 S    
N44   O104  1.301117 A    
N29   H49   1.029421 S    
O46   C152  1.265667 A    
C156  H16   1.112182 S    
C132  C147  1.455034 S    
N56   C176  1.468767 S    
N24   H29   1.029421 S    
C85   N53   1.422997 S    
C97   C113  1.427778 A    
C87   C103  1.469135 A    
C49   N7    1.438985 S    
C88   C104  1.469132 A    
O40   Zn10  2.056141 S    
C100  C116  1.427787 A    
C47   C63   1.399977 A    
C101  C117  1.427780 A    
C179  H107  1.111324 S    
C23   C31   1.190552 T    
O26   Zn6   1.971602 S    
C154  H7    1.111309 S    
N41   O97   1.301911 A    
C172  H80   1.111843 S    
O33   Zn9   2.056143 S    
O37   C145  1.265668 A    
C76   N44   1.440616 S    
N43   O101  1.301912 A    
O27   C13   1.296674 A    
O8    Zn2   2.059931 S    
O31   C15   1.296675 A    
C174  H88   1.111841 S    
C1    C137  1.465062 S    
C153  H3    1.111376 S    
C173  H82   1.103363 S    
C37   N21   1.418890 S    
N42   O100  1.301117 A    
N39   O93   1.301912 A    
C158  H24   1.112060 S    
N45   O105  1.301911 A    
C69   N37   1.440617 S    
C45   C125  1.462492 A    
C34   C50   1.399978 A    
O38   Zn10  2.056136 S    
C33   C49   1.399974 A    
N21   C157  1.468470 S    
N49   H65   1.029853 S    
C15   C23   1.410795 S    
C116  C140  1.451139 A    
O38   C148  1.265663 A    
C105  C121  1.427794 A    
C38   C54   1.399977 A    
C111  C127  1.427781 A    
C106  C134  1.450459 A    
O11   C7    1.302543 A    
N20   C156  1.468478 S    
C118  C138  1.451133 A    
O16   Zn6   2.059931 S    
C175  H91   1.111325 S    
C58   C74   1.366129 A    
C9    C17   1.410795 S    
C165  H50   1.104807 S    
O4    C4    1.302548 A    
C35   C115  1.462529 A    
N61   C181  1.468767 S    
N27   H41   1.029420 S    
O34   Zn9   2.056136 S    
C177  H99   1.111322 S    
O6    Zn4   2.059934 S    
N40   O95   1.301910 A    
N4    O55   1.301859 A    
C40   N24   1.418890 S    
N14   O75   1.301860 A    
N54   C174  1.468768 S    
O35   C147  1.265672 A    
C84   N52   1.422996 S    
N16   O80   1.300946 A    
C171  H74   1.103369 S    
C126  C142  1.451143 A    
C59   N13   1.438983 S    
O9    C5    1.302552 A    
C173  H83   1.111322 S    
O21   Zn1   1.971601 S    
N53   H81   1.029851 S    
C80   N48   1.440615 S    
N58   C178  1.468768 S    
O34   C146  1.265674 A    
N13   O73   1.301857 A    
C108  C136  1.450467 A    
O23   C11   1.296675 A    
N22   C158  1.468467 S    
N2    O52   1.300945 A    
O37   Zn10  2.056136 S    
N60   C180  1.468766 S    
N17   H1    1.029419 S    
N3    O54   1.300948 A    
N47   O109  1.301910 A    
C110  C126  1.427800 A    
C83   C99   1.469133 A    
C101  C131  1.450456 A    
C46   N30   1.418927 S    
O13   C7    1.302546 A    
N57   C177  1.468766 S    
C81   C97   1.469141 A    
C120  C140  1.451134 A    
O2    Zn2   2.059939 S    
C19   C27   1.190554 T    
C52   C68   1.366122 A    
C77   N45   1.440616 S    
O35   Zn9   2.056136 S    
C85   C101  1.469137 A    
O7    C1    1.302553 A    
C91   C107  1.469137 A    
O26   C14   1.296675 A    
O29   C15   1.296675 A    
C182  H118  1.103366 S    
O46   Zn12  2.056136 S    
O30   C16   1.296675 A    
C78   C94   1.401448 A    
C11   C19   1.410793 S    
C88   N56   1.422996 S    
O29   Zn5   1.971601 S    
N9    O65   1.301859 A    
C35   N19   1.418931 S    
C164  H47   1.111381 S    
O48   Zn12  2.056141 S    
O47   C151  1.265672 A    
N34   O83   1.301913 A    
N51   C171  1.468761 S    
C33   N17   1.418884 S    
N59   H105  1.029852 S    
C166  H55   1.111655 S    
C113  C137  1.451129 A    
O41   C149  1.265665 A    
C42   C58   1.399982 A    
C108  C124  1.427782 A    
C155  H12   1.112428 S    
C109  C125  1.427780 A    
C96   N64   1.423002 S    
N28   C164  1.468465 S    
C67   N35   1.440620 S    
C42   C122  1.462496 A    
C176  H95   1.111324 S    
O36   C148  1.265669 A    
C184  H127  1.111323 S    
O15   Zn7   2.059938 S    
O44   C152  1.265668 A    
C7    C143  1.465062 S    
C158  H22   1.104811 S    
C79   N47   1.440617 S    
C34   N18   1.418889 S    
N62   H117  1.029849 S    
C76   C92   1.401465 A    
C99   C115  1.427803 A    
C42   N26   1.418890 S    
N20   H13   1.029432 S    
C66   C82   1.401467 A    
C75   N43   1.440616 S    
N4    O56   1.300947 A    
C63   N9    1.438983 S    
N63   C183  1.468768 S    
C70   C86   1.401468 A    
C64   N12   1.438985 S    
C161  H35   1.111550 S    
C73   N41   1.440618 S    
C46   C62   1.399969 A    
O18   C10   1.296675 A    
N48   O111  1.301911 A    
C178  H104  1.111841 S    
O22   Zn4   1.971600 S    
N12   O71   1.301857 A    
C110  C134  1.450472 A    
O23   Zn3   1.971594 S    
N43   O102  1.301117 A    
C65   N33   1.440615 S    
N18   H5    1.029411 S    
C95   N63   1.422999 S    
C8    C144  1.465065 S    
C156  H15   1.111480 S    
C25   C32   1.387730 S    
O12   C8    1.302554 A    
O32   Zn6   1.971595 S    
C53   N3    1.438986 S    
C27   C30   1.387730 S    
O14   C6    1.302554 A    
C131  C146  1.455042 S    
N16   O79   1.301858 A    
C45   N29   1.418891 S    
C6    C142  1.465049 S    
C107  C123  1.427783 A    
C129  C148  1.455031 S    
C58   N14   1.438985 S    
C78   N46   1.440619 S    
N10   O67   1.301860 A    
N5    O58   1.300946 A    
N38   O92   1.301118 A    
C133  C152  1.455038 S    
C169  H67   1.111322 S    
C121  C141  1.451139 A    
C159  H28   1.112003 S    
C177  H98   1.103364 S    
O30   Zn8   1.971600 S    
C2    C138  1.465063 S    
C176  H94   1.103359 S    
C49   C65   1.366133 A    
N55   C175  1.468767 S    
C64   C80   1.366134 A    
C177  H100  1.111842 S    
C53   C69   1.366126 A    
N37   O90   1.301118 A    
C72   N40   1.440617 S    
C170  H70   1.103359 S    
C183  H123  1.111322 S    
O45   C149  1.265672 A    
C181  H114  1.103360 S    
C60   C76   1.366132 A    
C67   C83   1.401440 A    
C39   N23   1.418889 S    
N6    O60   1.300945 A    
C168  H62   1.104806 S    
C181  H116  1.111841 S    
C153  H2    1.104806 S    
N52   C172  1.468763 S    
N1    O49   1.301859 A    
O10   C6    1.302530 A    
C106  C122  1.427781 A    
N8    O64   1.300948 A    
C171  H75   1.111322 S    
C102  C118  1.427781 A    
C86   C102  1.469138 A    
C182  H120  1.111844 S    
C59   C75   1.366127 A    
C107  C135  1.450468 A    
C40   C120  1.462493 A    
C98   C130  1.450469 A    
N11   O69   1.301858 A    
C70   N38   1.440616 S    
O47   Zn12  2.056143 S    
C164  H46   1.104809 S    
O33   C145  1.265665 A    
C162  H39   1.111383 S    
N36   O87   1.301911 A    
C96   C112  1.469142 A    
O31   Zn7   1.971594 S    
N32   H61   1.029419 S    
C28   C29   1.387730 S    
N35   O85   1.301907 A    
N31   C167  1.468468 S    
C41   N25   1.418913 S    
C57   N15   1.438970 S    
C174  H87   1.111323 S    
N26   H37   1.029423 S    
N33   O82   1.301118 A    
C43   C59   1.399978 A    
C154  H6    1.104761 S    
O21   C11   1.296675 A    
C172  H79   1.111324 S    
O22   C12   1.296675 A    
C87   N55   1.422998 S    
C115  C139  1.451148 A    
O13   Zn5   2.059936 S    
N29   C165  1.468470 S    
C180  H110  1.103359 S    
C60   N16   1.438979 S    
N39   O94   1.301118 A    
N56   H93   1.029851 S    
N46   O107  1.301909 A    
C82   C98   1.469134 A    
C128  C144  1.451126 A    
N3    O53   1.301857 A    
O3    Zn3   2.059930 S    
C178  H102  1.103360 S    
C36   C116  1.462499 A    
C79   C95   1.401465 A    
C80   C96   1.401475 A    
C44   C60   1.399978 A    
N60   H109  1.029852 S    
C39   C55   1.399976 A    
N21   H17   1.029419 S    
O28   Zn8   1.971597 S    
C56   C72   1.366131 A    
O36   Zn9   2.056141 S    
C26   C31   1.387730 S    
C176  H96   1.111842 S    
C157  H20   1.112051 S    
N7    O62   1.300944 A    
N23   C159  1.468453 S    
O8    C4    1.302538 A    
C50   C66   1.366132 A    
N62   C182  1.468762 S    
C170  H72   1.111842 S    
C56   N4    1.438983 S    
C114  C138  1.451136 A    
C183  H124  1.111842 S    
C180  H111  1.111323 S    
N8    O63   1.301861 A    
C112  C128  1.427777 A    
N40   O96   1.301117 A    
C167  H58   1.104808 S    
C168  H64   1.112049 S    
O11   Zn7   2.059930 S    
C71   N39   1.440617 S    
C43   C123  1.462492 A    
C36   N20   1.418898 S    
O1    C1    1.302535 A    
C84   C100  1.469134 A    
C17   C25   1.190554 T    
C165  H52   1.112059 S    
N32   C168  1.468464 S    
C103  C119  1.427783 A    
N44   O103  1.301913 A    
O5    C3    1.302525 A    
C104  C132  1.450462 A    
C62   N10   1.438960 S    
C61   C77   1.366131 A    
C184  H128  1.111840 S    
N49   C169  1.468770 S    
C48   N32   1.418882 S    
O7    Zn3   2.059938 S    
N28   H45   1.029420 S    
O45   Zn12  2.056136 S    
N18   C154  1.468458 S    
C12   C20   1.410795 S    
C95   C111  1.469139 A    
C13   C21   1.410795 S    
C54   C70   1.366130 A    
O17   Zn1   1.971596 S    
C72   C88   1.401463 A    
C179  H108  1.111841 S    
O43   C151  1.265663 A    
C20   C28   1.190552 T    
C182  H119  1.111325 S    
C160  H30   1.104815 S    
C154  H8    1.111988 S    
N50   H69   1.029852 S    
N41   O98   1.301116 A    
C41   C121  1.462509 A    
C135  C150  1.455034 S    
C109  C135  1.450464 A    
C44   N28   1.418889 S    
C167  H60   1.112059 S    
C153  H4    1.112054 S    
O14   Zn8   2.059934 S    
C161  H34   1.104893 S    
C111  C133  1.450459 A    
C162  H40   1.112061 S    
C74   N42   1.440618 S    
N23   H25   1.029413 S    
C159  H26   1.104770 S    
N42   O99   1.301912 A    
N34   O84   1.301117 A    
N51   H73   1.029847 S    
C4    C140  1.465060 S    
C75   C91   1.401465 A    
N25   H33   1.029439 S    
C5    C141  1.465053 S    
N45   O106  1.301116 A    
C34   C114  1.462491 A    
N61   H113  1.029851 S    
C73   C89   1.401455 A    
O4    Zn4   2.059937 S    
C136  C151  1.455030 S    
C155  H11   1.111661 S    
C66   N34   1.440614 S    
C122  C142  1.451145 A    
C47   N31   1.418889 S    
C94   C110  1.469133 A    
C184  H126  1.103355 S    
O20   C10   1.296674 A    
O32   C16   1.296674 A    
C130  C145  1.455034 S    
C16   C24   1.410793 S    
N59   C179  1.468767 S    
O42   Zn11  2.056136 S    
O44   Zn11  2.056141 S    
C18   C26   1.190554 T    
N30   H53   1.029453 S    
N27   C163  1.468467 S    
C43   N27   1.418891 S    
C134  C149  1.455041 S    
C183  H122  1.103359 S    
N19   C155  1.468495 S    
O40   C146  1.265667 A    
C40   C56   1.399980 A    
N63   H121  1.029851 S    
C97   C129  1.450467 A    
C44   C124  1.462485 A    
C94   N62   1.422987 S    
O16   C8    1.302536 A    
C51   N5    1.438953 S    
N35   O86   1.301117 A    
N57   H97   1.029851 S    
C119  C137  1.451136 A    
C61   N11   1.438983 S    
C81   N49   1.423002 S    
C173  H84   1.111842 S    
N48   O112  1.301116 A    
C178  H103  1.111324 S    
O25   Zn5   1.971596 S    
O6    C2    1.302539 A    
N12   O72   1.300944 A    
N26   C162  1.468473 S    
C55   N1    1.438979 S    
C38   C118  1.462483 A    
N53   C173  1.468767 S    
O27   Zn7   1.971603 S    
C92   C108  1.469134 A    
C93   C109  1.469134 A    
N2    O51   1.301859 A    
C103  C129  1.450468 A    
N52   H77   1.029851 S    
N17   C153  1.468463 S    
C160  H31   1.111389 S    
C156  H14   1.104859 S    
C89   N57   1.422989 S    
C90   N58   1.422998 S    
C163  H43   1.111374 S    
O43   Zn11  2.056136 S    
C124  C144  1.451132 A    
C167  H59   1.111380 S    
C82   N50   1.422998 S    
O19   C9    1.296674 A    
N14   O76   1.300945 A    
C179  H106  1.103360 S    
C169  H66   1.103355 S    
C160  H32   1.112068 S    
O3    C3    1.302557 A    
N10   O68   1.300946 A    
N5    O57   1.301859 A    
O24   C12   1.296674 A    
C65   C81   1.401472 A    
N64   C184  1.468771 S    
O28   C14   1.296674 A    
C159  H27   1.111321 S    
O24   Zn2   1.971595 S    
O12   Zn8   2.059937 S    
C36   C52   1.399975 A    
C69   C85   1.401462 A    
N30   C166  1.468501 S    
C155  H10   1.104948 S    
C105  C133  1.450470 A    
N9    O66   1.300947 A    
C157  H18   1.104804 S    
C71   C87   1.401462 A    
C83   N51   1.422985 S    
C164  H48   1.112059 S    
C57   C73   1.366120 A    
N15   O77   1.301861 A    
C45   C61   1.399979 A    
C37   C53   1.399982 A    
N37   O89   1.301912 A    
C166  H56   1.112417 S    
C21   C29   1.190554 T    
O48   C150  1.265664 A    
C63   C79   1.366128 A    
O2    C2    1.302549 A    
C62   C78   1.366114 A    
C91   N59   1.422995 S    
C93   N61   1.422996 S    
C181  H115  1.111323 S    
C35   C51   1.399970 A    
C54   N2    1.438984 S    
C163  H44   1.112053 S    
C175  H90   1.103360 S    
C158  H23   1.111382 S    
C55   C71   1.366127 A    
O20   Zn4   1.971597 S    
N55   H89   1.029853 S    
C127  C141  1.451138 A    
C41   C57   1.399974 A    
C39   C119  1.462492 A    
C52   N8    1.438975 S    
C24   C32   1.190554 T    
C162  H38   1.104809 S    
O10   Zn6   2.059939 S    
N36   O88   1.301118 A    
O39   Zn10  2.056143 S    
N54   H85   1.029852 S    
C112  C136  1.450467 A    
O15   C5    1.302535 A    
C175  H92   1.111840 S    
C100  C132  1.450468 A    
C161  H36   1.112278 S    
C33   C113  1.462478 A    
N7    O61   1.301856 A    
C166  H54   1.104948 S    
N11   O70   1.300947 A    
N31   H57   1.029421 S    
O1    Zn1   2.059933 S    
C37   C117  1.462499 A    
N19   H9    1.029453 S    
