data_mof_unit_27294.cif
_audit_creation_date              2012-10-26T21:33:00-0400
_audit_creation_method            fapswitch 2.2
_symmetry_space_group_name_H-M    P1
_symmetry_Int_Tables_number       1
_space_group_crystal_system       monoclinic
_cell_length_a                    28.175247
_cell_length_b                    18.46219
_cell_length_c                    16.928502
_cell_angle_alpha                 90.0
_cell_angle_beta                  60.762817
_cell_angle_gamma                 90.0
_cell_volume                      7683.99933134

loop_
_atom_site_label
_atom_site_type_symbol
_atom_type_description
_atom_site_fract_x
_atom_site_fract_y
_atom_site_fract_z
_atom_type_partial_charge
Br1   Br    Br    0.788391 0.999788 0.417320 -0.412566
Br2   Br    Br    0.337346 0.196526 0.644160 -0.475761
Br3   Br    Br    0.354697 0.798740 0.620769 -0.428125
Br4   Br    Br    0.662654 0.196526 0.355840 -0.475762
Br5   Br    Br    0.571280 0.297938 0.782868 -0.439606
Br6   Br    Br    0.428918 0.699223 0.220476 -0.437938
Br7   Br    Br    0.428719 0.297938 0.217132 -0.439606
Br8   Br    Br    0.571082 0.699223 0.779524 -0.437938
Br9   Br    Br    0.071280 0.797938 0.782868 -0.439605
Br10  Br    Br    0.928918 0.199223 0.220476 -0.437935
Br11  Br    Br    0.928719 0.797938 0.217132 -0.439606
Br12  Br    Br    0.211609 0.999788 0.582680 -0.412566
Br13  Br    Br    0.071082 0.199223 0.779523 -0.437943
Br14  Br    Br    0.750969 0.165491 0.784421 -0.381395
Br15  Br    Br    0.254663 0.842516 0.214387 -0.431262
Br16  Br    Br    0.249032 0.165490 0.215579 -0.381393
Br17  Br    Br    0.745336 0.842516 0.785613 -0.431263
Br18  Br    Br    0.250969 0.665491 0.784421 -0.381394
Br19  Br    Br    0.754663 0.342516 0.214387 -0.431258
Br20  Br    Br    0.749031 0.665491 0.215579 -0.381393
Br21  Br    Br    0.245336 0.342516 0.785613 -0.431261
Br22  Br    Br    0.288391 0.499788 0.417320 -0.412565
Br23  Br    Br    0.711609 0.499788 0.582680 -0.412566
Br24  Br    Br    0.145305 0.298739 0.379229 -0.428125
Br25  Br    Br    0.837346 0.696526 0.644160 -0.475761
Br26  Br    Br    0.854697 0.298740 0.620768 -0.428126
Br27  Br    Br    0.162654 0.696526 0.355840 -0.475761
Br28  Br    Br    0.645304 0.798740 0.379231 -0.428124
C1    C     C_R   0.699530 0.263103 0.677040 0.930306
C2    C     C_R   0.938591 0.626732 0.548639 0.504290
C3    C     C_R   0.074586 0.900506 0.932992 0.959328
C4    C     C_R   0.573873 0.600502 0.933680 0.954731
C5    C     C_R   0.425414 0.400506 0.067008 0.959328
C6    C     C_R   0.426127 0.600502 0.066320 0.954731
C7    C     C_R   0.574586 0.400506 0.932992 0.959328
C8    C     C_R   0.553358 0.999292 0.486945 -0.094993
C9    C     C_R   0.446642 0.999292 0.513054 -0.094993
C10   C     C_R   0.053358 0.499292 0.486944 -0.094995
C11   C     C_R   0.946642 0.499292 0.513054 -0.094995
C12   C     C_R   0.528120 0.064815 0.486520 -0.079770
C13   C     C_R   0.948849 0.369300 0.494673 0.480159
C14   C     C_R   0.474488 0.932917 0.501181 -0.081046
C15   C     C_R   0.471880 0.064815 0.513480 -0.079770
C16   C     C_R   0.525512 0.932917 0.498819 -0.081046
C17   C     C_R   0.028120 0.564815 0.486520 -0.079770
C18   C     C_R   0.974488 0.432917 0.501179 -0.081044
C19   C     C_R   0.971880 0.564815 0.513480 -0.079770
C20   C     C_R   0.025512 0.432916 0.498816 -0.081041
C21   C     C_R   0.632037 0.934658 0.476119 -0.096831
C22   C     C_R   0.365900 0.065883 0.533053 -0.067593
C23   C     C_R   0.367963 0.934658 0.523881 -0.096832
C24   C     C_R   0.061409 0.626732 0.451362 0.504289
C25   C     C_R   0.634100 0.065883 0.466947 -0.067592
C26   C     C_R   0.132037 0.434658 0.476118 -0.096830
C27   C     C_R   0.865900 0.565883 0.533053 -0.067592
C28   C     C_R   0.867963 0.434658 0.523880 -0.096833
C29   C     C_R   0.134100 0.565883 0.466946 -0.067593
C30   C     C_R   0.681851 0.935679 0.478718 -0.143227
C31   C     C_R   0.316860 0.065423 0.526472 -0.136983
C32   C     C_R   0.318148 0.935679 0.521282 -0.143227
C33   C     C_R   0.683140 0.065423 0.473528 -0.136983
C34   C     C_R   0.181852 0.435679 0.478717 -0.143227
C35   C     C_R   0.551152 0.869300 0.505325 0.480149
C36   C     C_R   0.816860 0.565423 0.526472 -0.136983
C37   C     C_R   0.818149 0.435679 0.521282 -0.143226
C38   C     C_R   0.183140 0.565423 0.473528 -0.136983
C39   C     C_R   0.710049 0.000361 0.465304 0.175855
C40   C     C_R   0.289951 0.000361 0.534695 0.175855
C41   C     C_R   0.210049 0.500361 0.465304 0.175855
C42   C     C_R   0.789951 0.500361 0.534695 0.175855
C43   C     C_R   0.606241 0.000157 0.478000 -0.025483
C44   C     C_R   0.393759 0.000157 0.522000 -0.025482
C45   C     C_R   0.106241 0.500157 0.477999 -0.025482
C46   C     C_R   0.438591 0.126732 0.548638 0.504289
C47   C     C_R   0.893759 0.500157 0.522000 -0.025483
C48   C     C_R   0.106645 0.370331 0.471348 0.221113
C49   C     C_R   0.885709 0.626624 0.559874 0.196086
C50   C     C_R   0.893356 0.370331 0.528649 0.221121
C51   C     C_R   0.114291 0.626624 0.440126 0.196087
C52   C     C_R   0.606644 0.870331 0.471350 0.221120
C53   C     C_R   0.385709 0.126624 0.559874 0.196087
C54   C     C_R   0.393356 0.870331 0.528650 0.221120
C55   C     C_R   0.614291 0.126624 0.440126 0.196087
C56   C     C_3   0.995203 0.314188 0.638699 -0.142065
C57   C     C_R   0.448848 0.869300 0.494675 0.480150
C58   C     C_3   0.955550 0.668102 0.659692 -0.194285
C59   C     C_3   0.004802 0.314195 0.361291 -0.142058
C60   C     C_3   0.044448 0.668104 0.340311 -0.194282
C61   C     C_3   0.495198 0.814192 0.638704 -0.142053
C62   C     C_3   0.455551 0.168103 0.659690 -0.194281
C63   C     C_3   0.504802 0.814192 0.361295 -0.142053
C64   C     C_3   0.544449 0.168103 0.340310 -0.194281
C65   C     C_3   0.617666 0.297032 0.162753 -0.262192
C66   C     C_3   0.381613 0.842132 0.887564 -0.271131
C67   C     C_3   0.382333 0.297032 0.837247 -0.262194
C68   C     C_R   0.561409 0.126732 0.451362 0.504289
C69   C     C_3   0.618387 0.842131 0.112434 -0.271131
C70   C     C_3   0.117666 0.797032 0.162753 -0.262193
C71   C     C_3   0.881614 0.342132 0.887553 -0.271129
C72   C     C_3   0.882334 0.797032 0.837246 -0.262192
C73   C     C_3   0.118387 0.342132 0.112438 -0.271130
C74   C     C_R   0.722759 0.270112 0.952112 -0.027866
C75   C     C_R   0.283489 0.742567 0.042616 -0.029867
C76   C     C_R   0.277241 0.270112 0.047888 -0.027868
C77   C     C_R   0.300943 0.737749 0.322939 0.932057
C78   C     C_R   0.716511 0.742566 0.957384 -0.029867
C79   C     C_R   0.222759 0.770112 0.952112 -0.027869
C80   C     C_R   0.783489 0.242567 0.042616 -0.029863
C81   C     C_R   0.777242 0.770112 0.047888 -0.027869
C82   C     C_R   0.216511 0.242566 0.957384 -0.029867
C83   C     C_R   0.779799 0.276465 0.906284 -0.304234
C84   C     C_R   0.226589 0.735922 0.088083 -0.305396
C85   C     C_R   0.220201 0.276464 0.093716 -0.304229
C86   C     C_R   0.773411 0.735922 0.911917 -0.305395
C87   C     C_R   0.279799 0.776464 0.906284 -0.304227
C88   C     C_R   0.300470 0.263103 0.322960 0.930306
C89   C     C_R   0.726589 0.235922 0.088083 -0.305400
C90   C     C_R   0.720201 0.776464 0.093716 -0.304226
C91   C     C_R   0.273411 0.235922 0.911917 -0.305397
C92   C     C_R   0.810197 0.264120 0.950978 0.547220
C93   C     C_R   0.195884 0.752470 0.045047 0.544085
C94   C     C_R   0.189803 0.264120 0.049022 0.547219
C95   C     C_R   0.804116 0.752470 0.954952 0.544084
C96   C     C_R   0.310197 0.764120 0.950978 0.547218
C97   C     C_R   0.695884 0.252470 0.045047 0.544086
C98   C     C_R   0.689803 0.764120 0.049022 0.547218
C99   C     C_R   0.699057 0.737749 0.677061 0.932058
C100  C     C_R   0.304116 0.252470 0.954952 0.544086
C101  C     C_R   0.650177 0.336218 0.936476 -0.233869
C102  C     C_R   0.354922 0.672801 0.057641 -0.213960
C103  C     C_R   0.349823 0.336218 0.063524 -0.233870
C104  C     C_R   0.645078 0.672801 0.942359 -0.213960
C105  C     C_R   0.150177 0.836218 0.936476 -0.233869
C106  C     C_R   0.854922 0.172801 0.057641 -0.213960
C107  C     C_R   0.849823 0.836218 0.063524 -0.233870
C108  C     C_R   0.145078 0.172801 0.942359 -0.213960
C109  C     C_R   0.616867 0.346287 0.896569 -0.149079
C110  C     C_R   0.199530 0.763103 0.677040 0.930306
C111  C     C_R   0.385618 0.657435 0.101203 -0.163796
C112  C     C_R   0.383133 0.346287 0.103430 -0.149079
C113  C     C_R   0.614382 0.657435 0.898797 -0.163796
C114  C     C_R   0.116867 0.846287 0.896569 -0.149078
C115  C     C_R   0.885618 0.157435 0.101203 -0.163796
C116  C     C_R   0.883133 0.846287 0.103430 -0.149078
C117  C     C_R   0.114382 0.157435 0.898797 -0.163795
C118  C     C_R   0.626001 0.306972 0.820605 0.199631
C119  C     C_R   0.375484 0.694241 0.179487 0.194215
C120  C     C_R   0.373999 0.306972 0.179395 0.199631
C121  C     C_R   0.800943 0.237749 0.322939 0.932057
C122  C     C_R   0.624516 0.694241 0.820513 0.194216
C123  C     C_R   0.126001 0.806972 0.820605 0.199631
C124  C     C_R   0.875484 0.194241 0.179487 0.194217
C125  C     C_R   0.873999 0.806972 0.179395 0.199631
C126  C     C_R   0.124516 0.194241 0.820513 0.194216
C127  C     C_R   0.674282 0.269034 0.775441 -0.197265
C128  C     C_R   0.327697 0.733521 0.224004 -0.188588
C129  C     C_R   0.325718 0.269034 0.224559 -0.197265
C130  C     C_R   0.672303 0.733521 0.775996 -0.188587
C131  C     C_R   0.174282 0.769034 0.775441 -0.197264
C132  C     C_R   0.800470 0.763103 0.322960 0.930306
C133  C     C_R   0.827697 0.233521 0.224004 -0.188589
C134  C     C_R   0.825718 0.769034 0.224559 -0.197265
C135  C     C_R   0.172303 0.233521 0.775996 -0.188588
C136  C     C_R   0.702895 0.248519 0.822234 0.247748
C137  C     C_R   0.301358 0.758104 0.175227 0.244488
C138  C     C_R   0.297105 0.248519 0.177766 0.247749
C139  C     C_R   0.698642 0.758104 0.824773 0.244487
C140  C     C_R   0.202895 0.748519 0.822234 0.247748
C141  C     C_R   0.801358 0.258105 0.175227 0.244490
C142  C     C_R   0.797105 0.748519 0.177766 0.247748
C143  C     C_R   0.199057 0.237749 0.677061 0.932058
C144  C     C_R   0.198642 0.258104 0.824773 0.244488
C145  C     C_R   0.691349 0.284104 0.903278 0.086383
C146  C     C_R   0.314385 0.725866 0.091556 0.071165
C147  C     C_R   0.308651 0.284103 0.096721 0.086383
C148  C     C_R   0.685615 0.725866 0.908444 0.071163
C149  C     C_R   0.191349 0.784103 0.903278 0.086382
C150  C     C_R   0.814385 0.225867 0.091556 0.071171
C151  C     C_R   0.808651 0.784103 0.096721 0.086382
C152  C     C_R   0.185615 0.225866 0.908444 0.071166
C153  C     C_R   0.703781 0.130364 0.497562 0.928150
C154  C     C_R   0.051153 0.369300 0.505322 0.480147
C155  C     C_R   0.297624 0.870576 0.498445 0.916966
C156  C     C_R   0.296219 0.130364 0.502438 0.928150
C157  C     C_R   0.702376 0.870576 0.501555 0.916966
C158  C     C_R   0.203781 0.630364 0.497562 0.928150
C159  C     C_R   0.797624 0.370576 0.498445 0.916966
C160  C     C_R   0.796219 0.630364 0.502438 0.928150
C161  C     C_R   0.202377 0.370576 0.501554 0.916966
C162  C     C_R   0.073873 0.100502 0.933680 0.954732
C163  C     C_R   0.925414 0.900506 0.067008 0.959328
C164  C     C_R   0.926126 0.100502 0.066320 0.954730
H1    H     H_    0.800881 0.291239 0.835362 0.218105
H2    H     H_    0.362831 0.644018 0.996606 0.208096
H3    H     H_    0.356463 0.368232 0.005470 0.182552
H4    H     H_    0.637169 0.644018 0.003394 0.208096
H5    H     H_    0.143536 0.868232 0.994530 0.182552
H6    H     H_    0.862831 0.144018 0.996606 0.208095
H7    H     H_    0.856464 0.868232 0.005469 0.182552
H8    H     H_    0.137169 0.144018 0.003394 0.208096
H9    H     H_    0.962961 0.356207 0.659677 0.128164
H10   H     H_    0.023212 0.327444 0.665583 0.147036
H11   H     H_    0.974837 0.262254 0.669769 0.235484
H12   H     H_    0.205905 0.717272 0.157445 0.216969
H13   H     H_    0.984968 0.624318 0.649831 0.142599
H14   H     H_    0.914195 0.652428 0.713820 0.170977
H15   H     H_    0.968535 0.716391 0.683101 0.206064
H16   H     H_    0.037048 0.356208 0.340321 0.128177
H17   H     H_    0.976797 0.327464 0.334404 0.147014
H18   H     H_    0.025163 0.262259 0.330218 0.235485
H19   H     H_    0.015029 0.624323 0.350172 0.142600
H20   H     H_    0.085803 0.652429 0.286183 0.170974
H21   H     H_    0.031465 0.716395 0.316901 0.206062
H22   H     H_    0.462952 0.856206 0.659676 0.128178
H23   H     H_    0.199118 0.291239 0.164637 0.218107
H24   H     H_    0.523204 0.827460 0.665592 0.147016
H25   H     H_    0.474837 0.762256 0.669776 0.235484
H26   H     H_    0.484970 0.124321 0.649829 0.142600
H27   H     H_    0.414196 0.152428 0.713818 0.170974
H28   H     H_    0.468535 0.216393 0.683100 0.206062
H29   H     H_    0.537048 0.856206 0.340324 0.128178
H30   H     H_    0.476796 0.827460 0.334408 0.147015
H31   H     H_    0.525163 0.762256 0.330224 0.235484
H32   H     H_    0.515030 0.124322 0.350171 0.142600
H33   H     H_    0.585804 0.152428 0.286182 0.170974
H34   H     H_    0.794095 0.717272 0.842555 0.216969
H35   H     H_    0.531465 0.216394 0.316900 0.206062
H36   H     H_    0.635738 0.351977 0.140741 0.164526
H37   H     H_    0.622785 0.278700 0.220601 0.208003
H38   H     H_    0.573450 0.302026 0.186908 0.212162
H39   H     H_    0.363626 0.873847 0.951716 0.183670
H40   H     H_    0.370357 0.866539 0.838921 0.157135
H41   H     H_    0.426495 0.845621 0.856657 0.198326
H42   H     H_    0.364262 0.351976 0.859259 0.164526
H43   H     H_    0.377215 0.278700 0.779399 0.208003
H44   H     H_    0.426549 0.302027 0.813092 0.212162
H45   H     H_    0.300882 0.791239 0.835363 0.218107
H46   H     H_    0.636373 0.873845 0.048281 0.183671
H47   H     H_    0.629645 0.866540 0.161074 0.157135
H48   H     H_    0.573505 0.845621 0.143343 0.198325
H49   H     H_    0.135738 0.851977 0.140741 0.164526
H50   H     H_    0.122785 0.778700 0.220601 0.208002
H51   H     H_    0.073450 0.802027 0.186908 0.212162
H52   H     H_    0.863623 0.373855 0.951698 0.183664
H53   H     H_    0.870362 0.366529 0.838899 0.157139
H54   H     H_    0.926495 0.345622 0.856652 0.198328
H55   H     H_    0.864262 0.851976 0.859259 0.164526
H56   H     H_    0.705905 0.217272 0.157445 0.216969
H57   H     H_    0.877215 0.778700 0.779398 0.208003
H58   H     H_    0.926550 0.802026 0.813092 0.212162
H59   H     H_    0.136375 0.373849 0.048288 0.183669
H60   H     H_    0.129642 0.366537 0.161084 0.157135
H61   H     H_    0.073505 0.345622 0.143343 0.198326
H62   H     H_    0.699118 0.791239 0.164637 0.218107
H63   H     H_    0.294095 0.217272 0.842555 0.216969
H64   H     H_    0.643536 0.368232 0.994530 0.182552
O1    O     O_R   0.746490 0.236330 0.638080 -0.573669
O2    O     O_R   0.325830 0.813840 0.483730 -0.606801
O3    O     O_R   0.325830 0.186160 0.483730 -0.600441
O4    O     O_R   0.674170 0.813840 0.516270 -0.606801
O5    O     O_R   0.174170 0.686160 0.516270 -0.600441
O6    O     O_R   0.825830 0.313840 0.483730 -0.606801
O7    O     O_R   0.825830 0.686160 0.483730 -0.600441
O8    O     O_R   0.174170 0.313840 0.516270 -0.606803
O9    O     O_R   0.739960 0.127620 0.525000 -0.573773
O10   O     O_R   0.260040 0.872380 0.475000 -0.574584
O11   O     O_R   0.260040 0.127620 0.475000 -0.573772
O12   O     O_R   0.253510 0.763670 0.361920 -0.566789
O13   O     O_R   0.739960 0.872380 0.525000 -0.574584
O14   O     O_R   0.239960 0.627620 0.525000 -0.573772
O15   O     O_R   0.760040 0.372380 0.475000 -0.574585
O16   O     O_R   0.760040 0.627620 0.475000 -0.573772
O17   O     O_R   0.239960 0.372380 0.525000 -0.574584
O18   O     O_R   0.680700 0.294870 0.629350 -0.578970
O19   O     O_R   0.319300 0.705130 0.370650 -0.581756
O20   O     O_R   0.319300 0.294870 0.370650 -0.578970
O21   O     O_R   0.680700 0.705130 0.629350 -0.581755
O22   O     O_R   0.180700 0.794870 0.629350 -0.578970
O23   O     O_R   0.253510 0.236330 0.361920 -0.573669
O24   O     O_R   0.819300 0.205130 0.370650 -0.581755
O25   O     O_R   0.819300 0.794870 0.370650 -0.578970
O26   O     O_R   0.180700 0.205130 0.629350 -0.581756
O27   O     O_R   0.062020 0.072840 0.007170 -0.627774
O28   O     O_R   0.937980 0.927160 0.992830 -0.634042
O29   O     O_R   0.937980 0.072840 0.992830 -0.627774
O30   O     O_R   0.062020 0.927160 0.007170 -0.634042
O31   O     O_R   0.562020 0.572840 0.007170 -0.627774
O32   O     O_R   0.437980 0.427160 0.992830 -0.634041
O33   O     O_R   0.437980 0.572840 0.992830 -0.627774
O34   O     O_R   0.746490 0.763670 0.638080 -0.566789
O35   O     O_R   0.562020 0.427160 0.007170 -0.634042
O36   O     O_R   0.947860 0.073950 0.109290 -0.567562
O37   O     O_R   0.052140 0.926050 0.890710 -0.570946
O38   O     O_R   0.052140 0.073950 0.890710 -0.567562
O39   O     O_R   0.947860 0.926050 0.109290 -0.570946
O40   O     O_R   0.447860 0.573950 0.109290 -0.567562
O41   O     O_R   0.552140 0.426050 0.890710 -0.570946
O42   O     O_R   0.552140 0.573950 0.890710 -0.567563
O43   O     O_R   0.447860 0.426050 0.109290 -0.570945
O44   O     O_3   0.023942 0.305557 0.543831 -0.520476
O45   O     O_R   0.246490 0.736330 0.638080 -0.573669
O46   O     O_3   0.955540 0.686144 0.578568 -0.533615
O47   O     O_3   0.976059 0.305558 0.456159 -0.520475
O48   O     O_3   0.044459 0.686145 0.421435 -0.533614
O49   O     O_3   0.523941 0.805557 0.543837 -0.520477
O50   O     O_3   0.455541 0.186144 0.578566 -0.533615
O51   O     O_3   0.476059 0.805557 0.456163 -0.520477
O52   O     O_3   0.544459 0.186144 0.421434 -0.533615
O53   O     O_3   0.639752 0.246116 0.091384 -0.602667
O54   O     O_3   0.366349 0.768608 0.903740 -0.592709
O55   O     O_3   0.360248 0.246116 0.908616 -0.602667
O56   O     O_R   0.753510 0.263670 0.361920 -0.566789
O57   O     O_3   0.633651 0.768608 0.096260 -0.592709
O58   O     O_3   0.139751 0.746116 0.091384 -0.602667
O59   O     O_3   0.866349 0.268609 0.903741 -0.592707
O60   O     O_3   0.860248 0.746116 0.908615 -0.602667
O61   O     O_3   0.133651 0.268608 0.096259 -0.592708
O62   O     O_R   0.753510 0.736330 0.361920 -0.573669
O63   O     O_R   0.246490 0.263670 0.638080 -0.566789
O64   O     O_R   0.674170 0.186160 0.516270 -0.600440
Zn1   Zn    Zn3+2 0.792340 0.208750 0.507670 1.167058
Zn2   Zn    Zn3+2 0.494040 0.500000 0.919480 1.081344
Zn3   Zn    Zn3+2 0.005960 0.000000 0.080520 1.081345
Zn4   Zn    Zn3+2 0.994040 1.000000 0.919480 1.081344
Zn5   Zn    Zn3+2 0.207660 0.791250 0.492330 1.160489
Zn6   Zn    Zn3+2 0.207660 0.208750 0.492330 1.167055
Zn7   Zn    Zn3+2 0.792340 0.791250 0.507670 1.160488
Zn8   Zn    Zn3+2 0.292340 0.708750 0.507670 1.167058
Zn9   Zn    Zn3+2 0.707660 0.291250 0.492330 1.160488
Zn10  Zn    Zn3+2 0.707660 0.708750 0.492330 1.167058
Zn11  Zn    Zn3+2 0.292340 0.291250 0.507670 1.160488
Zn12  Zn    Zn3+2 0.505960 0.500000 0.080520 1.081345

loop_
_geom_bond_atom_site_label_1
_geom_bond_atom_site_label_2
_ccdc_geom_bond_type
C56   H9    S    
Br20  C142  S    
C37   C159  S    
C80   C92   A    
C74   C97   A    
C13   O47   S    
C102  C146  A    
C77   O12   A    
C22   C31   A    
C107  H7    S    
C121  O24   A    
C9    C14   A    
C88   O20   A    
C22   C44   A    
C10   C17   A    
C103  C112  A    
C106  C115  A    
C2    O46   S    
C12   C15   A    
C85   C94   A    
C66   H39   S    
Br22  C41   S    
O4    Zn10  S    
C8    C43   A    
C57   O51   S    
C91   C100  A    
C4    O31   A    
C143  O63   A    
C101  C145  A    
C74   C83   A    
C14   C16   A    
O2    Zn8   S    
C81   C90   A    
C17   C19   A    
C18   C20   A    
C156  O3    A    
C109  C118  A    
C64   H32   S    
Br24  C48   S    
C33   C153  S    
O21   Zn10  S    
C1    O1    A    
C129  C138  A    
C75   C84   A    
C114  C123  A    
Br8   C122  S    
C2    C19   A    
C76   C100  A    
C101  H64   S    
C136  C145  A    
C70   O58   S    
C71   H54   S    
C135  C144  A    
C6    O40   A    
C64   H33   S    
C38   C158  S    
O26   Zn6   S    
C59   H18   S    
C8    C16   A    
C3    O30   A    
C84   H12   S    
C46   C53   A    
C97   O53   S    
C25   C43   A    
C11   C19   A    
O43   Zn12  S    
C161  O17   A    
Br9   C123  S    
C105  H5    S    
O39   Zn3   S    
C103  H3    S    
C58   H15   S    
C116  C163  S    
C54   C57   A    
C21   C52   A    
C32   C40   A    
C110  O45   A    
C93   O58   S    
C72   H55   S    
C7    C109  S    
O7    Zn7   S    
Br13  C126  S    
C70   H50   S    
C5    O43   A    
C30   C39   A    
C101  C109  A    
C21   C43   A    
Br2   C53   S    
C22   C53   A    
C123  C131  A    
C61   H22   S    
C63   O51   S    
O12   Zn5   S    
C117  C162  S    
C59   O47   S    
C60   O48   S    
C29   C38   A    
O36   Zn3   S    
C132  O62   A    
Br12  C40   S    
C105  C114  A    
Br26  C50   S    
C37   C42   A    
O37   Zn4   S    
C28   C50   A    
C162  O27   A    
C29   C45   A    
C71   H52   S    
C81   C151  S    
C25   C33   A    
C7    O35   A    
C64   H35   S    
C58   O46   S    
C11   C47   A    
C24   C51   A    
O22   Zn5   S    
C62   H28   S    
C124  C133  A    
C27   C47   A    
C163  O39   A    
C28   C47   A    
C110  O22   A    
O45   Zn8   S    
Br23  C42   S    
O19   Zn8   S    
C58   H13   S    
C113  C122  A    
C35   C52   A    
C69   H47   S    
C108  H8    S    
C60   H21   S    
C154  O44   S    
C104  H4    S    
C72   H57   S    
C13   C50   A    
C87   H45   S    
C4    O42   A    
C81   C95   A    
C17   C24   A    
C137  C146  A    
C75   C146  S    
O40   Zn12  S    
C161  O8    A    
C132  C134  S    
O29   Zn4   S    
C33   C39   A    
C157  O4    A    
C155  O2    A    
C63   H30   S    
C67   O55   S    
C36   C160  S    
C61   H24   S    
C86   C95   A    
O15   Zn9   S    
C60   H20   S    
C67   H44   S    
C117  C126  A    
C89   H56   S    
C104  C113  A    
O56   Zn9   S    
C162  O38   A    
C80   C89   A    
C82   C91   A    
C1    C127  S    
C142  C151  A    
C71   O59   S    
C84   C93   A    
Br6   C119  S    
O31   Zn12  S    
C55   C68   A    
Br1   C39   S    
C120  C129  A    
Br14  C136  S    
C59   H16   S    
C62   H26   S    
Br11  C125  S    
C76   C85   A    
O42   Zn2   S    
C156  O11   A    
C78   C148  S    
Br15  C137  S    
C23   C32   A    
C89   C97   A    
O34   Zn7   S    
Br21  C144  S    
C65   H38   S    
C121  O56   A    
C74   C145  S    
C160  O7    A    
C138  C147  A    
C100  O55   S    
C163  O28   A    
C102  C111  A    
C56   H10   S    
C140  C149  A    
C104  C148  A    
C29   C51   A    
Br10  C124  S    
C2    C49   A    
C118  C127  A    
C130  C139  A    
O64   Zn9   S    
C96   O54   S    
C67   H42   S    
C71   H53   S    
C143  O26   A    
C135  C143  S    
O30   Zn3   S    
C46   O50   S    
C157  O13   A    
C6    O33   A    
C144  C152  A    
C32   C155  S    
C159  O15   A    
C30   C157  S    
C59   H17   S    
O23   Zn6   S    
C58   H14   S    
C73   H59   S    
C12   C68   A    
C75   C96   A    
C72   O60   S    
C99   O34   A    
C73   O61   S    
C16   C35   A    
C66   H40   S    
C132  O25   A    
C77   O19   A    
C26   C34   A    
C115  C164  S    
C65   O53   S    
O20   Zn11  S    
C9    C15   A    
C61   O49   S    
C86   H34   S    
C26   C45   A    
C134  C142  A    
C80   C150  S    
C14   C57   A    
C106  C150  A    
C119  C128  A    
C99   C130  S    
C4    C113  S    
O24   Zn1   S    
C83   H1    S    
C153  O9    A    
C56   H11   S    
C115  C124  A    
O16   Zn10  S    
C121  C133  S    
C23   C44   A    
C79   C93   A    
C63   H31   S    
C87   C96   A    
C122  C130  A    
O14   Zn8   S    
C102  H2    S    
C91   H63   S    
C66   H41   S    
O41   Zn2   S    
C64   O52   S    
C78   C98   A    
C159  O6    A    
C72   H58   S    
C125  C134  A    
C25   C55   A    
C34   C161  S    
C82   C94   A    
C105  C149  A    
Br4   C55   S    
O63   Zn11  S    
C128  C137  A    
C103  C147  A    
O9    Zn1   S    
C107  C151  A    
O10   Zn5   S    
C34   C41   A    
C9    C44   A    
C98   O57   S    
C3    O37   A    
C24   O48   S    
C73   H61   S    
C35   O49   S    
C112  C120  A    
O11   Zn6   S    
C69   H46   S    
C111  C119  A    
C155  O10   A    
C78   C86   A    
Br25  C49   S    
O28   Zn4   S    
Br27  C51   S    
C27   C49   A    
C38   C41   A    
C5    C112  S    
C28   C37   A    
C6    C111  S    
C131  C140  A    
C116  C125  A    
C70   H49   S    
O5    Zn5   S    
C90   H62   S    
C110  C131  S    
O6    Zn1   S    
Br16  C138  S    
C60   H19   S    
O1    Zn1   S    
C13   C18   A    
O25   Zn7   S    
C36   C42   A    
C63   H29   S    
O3    Zn11  S    
C108  C117  A    
C15   C46   A    
C69   O57   S    
C67   H43   S    
C48   C154  A    
O33   Zn2   S    
C76   C147  S    
C158  O5    A    
C7    O41   A    
C153  O64   A    
O35   Zn12  S    
C92   O59   S    
C126  C135  A    
C8    C12   A    
Br17  C139  S    
Br18  C140  S    
O13   Zn7   S    
C99   O21   A    
C21   C30   A    
C83   C92   A    
C31   C40   A    
C158  O14   A    
C5    O32   A    
C82   C152  S    
C164  O36   A    
C27   C36   A    
Br3   C54   S    
C70   H51   S    
C160  O16   A    
C23   C54   A    
C79   C87   A    
C62   H27   S    
C11   C18   A    
C26   C48   A    
C107  C116  A    
O38   Zn4   S    
O18   Zn9   S    
C85   H23   S    
C141  C150  A    
O32   Zn2   S    
Br7   C120  S    
C65   H37   S    
C1    O18   A    
C106  H6    S    
C69   H48   S    
Br5   C118  S    
C66   O54   S    
C10   C20   A    
C88   O23   A    
Br19  C141  S    
C164  O29   A    
C62   O50   S    
C127  C136  A    
C108  C152  A    
O8    Zn6   S    
C3    C114  S    
C133  C141  A    
C88   C129  S    
C68   O52   S    
C20   C154  A    
C65   H36   S    
C31   C156  S    
Br28  C52   S    
O27   Zn3   S    
C61   H25   S    
C73   H60   S    
C77   C128  S    
C94   O61   S    
C95   O60   S    
O17   Zn11  S    
O62   Zn10  S    
C90   C98   A    
C79   C149  S    
C139  C148  A    
C56   O44   S    
C10   C45   A    
