data_mof_unit_31050.cif
_audit_creation_date              2012-12-10T21:00:33-0500
_audit_creation_method            fapswitch 2.2
_symmetry_space_group_name_H-M    P1
_symmetry_Int_Tables_number       1
_space_group_crystal_system       triclinic
_cell_length_a                    18.093955
_cell_length_b                    18.13531
_cell_length_c                    18.403017
_cell_angle_alpha                 120.046497
_cell_angle_beta                  89.978687
_cell_angle_gamma                 119.761552
_cell_volume                      4283.16476967

loop_
_atom_site_label
_atom_site_type_symbol
_atom_type_description
_atom_site_fract_x
_atom_site_fract_y
_atom_site_fract_z
_atom_type_partial_charge
C1    C     C_R   0.109353 0.220226 0.609881 0.783195
C2    C     C_3   0.449918 0.897519 0.947127 0.052449
C3    C     C_3   0.853159 0.640102 0.729176 -0.928488
C4    C     C_3   0.143314 0.431389 0.251767 -0.412420
C5    C     C_3   0.146874 0.360012 0.270895 -0.928594
C6    C     C_3   0.888718 0.294711 0.340341 -0.403744
C7    C     C_3   0.902525 0.219944 0.343860 -0.895716
C8    C     C_3   0.111285 0.705292 0.659659 -0.403765
C9    C     C_3   0.097475 0.780058 0.656141 -0.895723
C10   C     C_3   0.417855 0.292448 0.344011 -0.380381
C11   C     C_3   0.325636 0.213366 0.338346 -0.892566
C12   C     C_3   0.582152 0.707562 0.655985 -0.380465
C13   C     C_3   0.446755 0.033186 0.025218 -0.134314
C14   C     C_3   0.674421 0.786610 0.661696 -0.892465
C15   C     C_3   0.515742 0.621036 0.436695 -0.394624
C16   C     C_3   0.458776 0.663968 0.463655 -0.899283
C17   C     C_3   0.484248 0.378950 0.563294 -0.394586
C18   C     C_3   0.541243 0.336050 0.536355 -0.899114
C19   C     C_3   0.553246 0.966815 0.974786 -0.134328
C20   C     C_3   0.417330 0.462303 0.453785 -0.236096
C21   C     C_3   0.582673 0.537699 0.546217 -0.235965
C22   C     C_3   0.461069 0.401920 0.428953 0.184549
C23   C     C_3   0.538935 0.598083 0.571050 0.184600
C24   C     C_3   0.550262 0.498570 0.448453 -0.126331
C25   C     C_3   0.449740 0.501432 0.551548 -0.126340
C26   C     C_3   0.507435 0.559236 0.473566 0.166933
C27   C     C_R   0.890646 0.779773 0.390119 0.783197
C28   C     C_3   0.492568 0.440766 0.526436 0.166956
C29   C     C_R   0.045162 0.137035 0.828847 -0.140072
C30   C     C_R   0.954801 0.862931 0.171142 -0.140072
C31   C     C_R   0.392747 0.781232 0.888105 0.757212
C32   C     C_R   0.607253 0.218768 0.111896 0.757213
C33   C     C_R   0.045677 0.092338 0.741274 -0.138050
C34   C     C_R   0.954288 0.907626 0.258716 -0.138006
C35   C     C_R   0.003574 0.098736 0.682608 0.153847
C36   C     C_R   0.996423 0.901262 0.317391 0.153859
C37   C     C_R   0.959761 0.148944 0.712209 -0.115745
C38   C     C_3   0.948094 0.404313 0.425870 0.245129
C39   C     C_R   0.040262 0.851084 0.287799 -0.115807
C40   C     C_R   0.959094 0.193184 0.799811 -0.121490
C41   C     C_R   0.040929 0.806847 0.200195 -0.121491
C42   C     C_R   0.001983 0.187441 0.858084 -0.121614
C43   C     C_R   0.998012 0.812561 0.141913 -0.121594
C44   C     C_R   0.953645 0.943426 0.534224 -0.259516
C45   C     C_R   0.046354 0.056573 0.465775 -0.259506
C46   C     C_R   0.948598 0.892175 0.445041 -0.048208
C47   C     C_R   0.051402 0.107824 0.554958 -0.048210
C48   C     C_R   0.996022 0.949286 0.410230 -0.013380
C49   C     C_3   0.051904 0.595687 0.574134 0.245143
C50   C     C_R   0.003978 0.050713 0.589769 -0.013372
C51   C     C_R   0.653985 0.591265 0.793274 -0.191782
C52   C     C_R   0.345992 0.408694 0.206695 -0.191782
C53   C     C_R   0.606985 0.539853 0.832035 0.198426
C54   C     C_R   0.393000 0.460116 0.167943 0.198444
C55   C     C_R   0.110315 0.500504 0.889217 0.792867
C56   C     C_R   0.889685 0.499497 0.110784 0.792874
C57   C     C_R   0.590785 0.594443 0.910593 0.128943
C58   C     C_R   0.409210 0.405535 0.089387 0.128939
C59   C     C_R   0.623757 0.698838 0.949212 -0.134866
C60   C     C_3   0.442100 0.967177 0.927869 -0.179580
C61   C     C_R   0.376236 0.301134 0.050758 -0.134848
C62   C     C_R   0.670030 0.748175 0.909485 -0.134044
C63   C     C_R   0.329948 0.251782 0.090472 -0.134040
C64   C     C_R   0.685002 0.694389 0.831580 -0.161339
C65   C     C_R   0.314969 0.305562 0.168377 -0.161413
C66   C     C_R   0.591179 0.542706 0.009999 -0.279806
C67   C     C_R   0.408821 0.457283 0.989991 -0.279806
C68   C     C_R   0.549871 0.497590 0.054230 -0.048495
C69   C     C_R   0.450129 0.502402 0.945762 -0.048513
C70   C     C_R   0.457552 0.454205 0.044366 0.014641
C71   C     C_3   0.557901 0.032824 0.072135 -0.179597
C72   C     C_R   0.542447 0.545781 0.955622 0.014640
C73   C     C_R   0.088942 0.769725 0.932860 0.177245
C74   C     C_R   0.911104 0.230288 0.067138 0.177257
C75   C     C_R   0.089006 0.710473 0.960676 -0.158501
C76   C     C_R   0.911030 0.289526 0.039310 -0.158584
C77   C     C_R   0.015049 0.607328 0.920304 0.101446
C78   C     C_R   0.984960 0.392688 0.079705 0.101465
C79   C     C_R   0.392427 0.500911 0.608039 0.789093
C80   C     C_R   0.607574 0.499089 0.391962 0.789076
C81   C     C_R   0.941244 0.562913 0.850922 -0.261341
C82   C     C_3   0.546218 0.037961 0.956347 -0.170884
C83   C     C_R   0.058744 0.437138 0.149127 -0.261269
C84   C     C_R   0.939420 0.621101 0.822615 0.204208
C85   C     C_R   0.060577 0.378965 0.177448 0.204231
C86   C     C_R   0.013541 0.725243 0.864979 -0.151025
C87   C     C_R   0.986485 0.274806 0.135060 -0.151002
C88   C     C_R   0.954676 0.546710 0.012350 -0.280610
C89   C     C_R   0.045328 0.453297 0.987653 -0.280622
C90   C     C_R   0.945648 0.497338 0.053886 -0.060758
C91   C     C_R   0.054355 0.502668 0.946117 -0.060766
C92   C     C_R   0.991116 0.449054 0.040779 0.018700
C93   C     C_3   0.453782 0.962039 0.043656 -0.170872
C94   C     C_R   0.008889 0.550955 0.959226 0.018709
C95   C     C_R   0.394070 0.500229 0.888731 0.802819
C96   C     C_R   0.605930 0.499770 0.111267 0.802812
C97   C     C_R   0.109497 0.501094 0.608149 0.784365
C98   C     C_R   0.890502 0.498906 0.391852 0.784354
C99   C     C_3   0.052125 0.472815 0.457881 -0.206717
C100  C     C_3   0.947871 0.527185 0.542124 -0.206657
C101  C     C_3   0.051837 0.567169 0.479802 -0.230468
C102  C     C_3   0.948160 0.432830 0.520202 -0.230446
C103  C     C_3   0.947994 0.497735 0.447756 -0.034289
C104  C     C_3   0.550083 0.102481 0.052876 0.052432
C105  C     C_3   0.052003 0.502265 0.552247 -0.034298
C106  C     C_3   0.578681 0.429507 0.790370 -0.449171
C107  C     C_3   0.476195 0.350150 0.751305 -0.851135
C108  C     C_3   0.421299 0.570463 0.209612 -0.449087
C109  C     C_3   0.523788 0.649829 0.248687 -0.851214
C110  C     C_3   0.166941 0.881927 0.978333 -0.431475
C111  C     C_3   0.211605 0.899939 0.913109 -0.874534
C112  C     C_3   0.833139 0.118069 0.021639 -0.431501
C113  C     C_3   0.788418 0.100021 0.086822 -0.874580
C114  C     C_3   0.856655 0.568717 0.748346 -0.412347
H1    H     H_    0.093607 0.621868 0.462371 0.131605
H2    H     H_    0.073615 0.846222 0.332464 0.098752
H3    H     H_    0.535043 0.294757 0.567031 0.251833
H4    H     H_    0.507404 0.431688 0.636677 0.219439
H5    H     H_    0.412586 0.314637 0.540888 0.198994
H6    H     H_    0.925459 0.232020 0.822558 0.124601
H7    H     H_    0.074587 0.768037 0.177455 0.124597
H8    H     H_    0.916293 0.899788 0.560764 0.172681
H9    H     H_    0.083705 0.100211 0.439234 0.172679
H10   H     H_    0.721202 0.732824 0.800979 0.139716
H11   H     H_    0.278756 0.267116 0.198969 0.139717
H12   H     H_    0.666821 0.551417 0.733054 0.144957
H13   H     H_    0.333154 0.448539 0.266918 0.144982
H14   H     H_    0.612753 0.741656 0.009861 0.123727
H15   H     H_    0.906390 0.378131 0.537632 0.131619
H16   H     H_    0.387243 0.258319 0.990107 0.123715
H17   H     H_    0.096446 0.451499 0.425499 0.161144
H18   H     H_    0.903555 0.548504 0.574518 0.161108
H19   H     H_    0.694440 0.828264 0.939218 0.126699
H20   H     H_    0.305533 0.171686 0.060728 0.126696
H21   H     H_    0.661987 0.575495 0.017135 0.171209
H22   H     H_    0.338012 0.424495 0.982855 0.171215
H23   H     H_    0.013499 0.773048 0.846394 0.152609
H24   H     H_    0.986533 0.227015 0.153661 0.152608
H25   H     H_    0.145097 0.745291 0.015552 0.118079
H26   H     H_    0.001905 0.221998 0.925901 0.130430
H27   H     H_    0.854955 0.254684 0.984406 0.118081
H28   H     H_    0.883667 0.483601 0.820748 0.129822
H29   H     H_    0.116298 0.516467 0.179323 0.129800
H30   H     H_    0.919274 0.582883 0.021333 0.177123
H31   H     H_    0.080730 0.417126 0.978672 0.177122
H32   H     H_    0.585059 0.070410 0.921099 0.122258
H33   H     H_    0.414941 0.929590 0.078904 0.122245
H34   H     H_    0.394228 0.939264 0.867851 0.128354
H35   H     H_    0.605775 0.060738 0.132153 0.128360
H36   H     H_    0.404921 0.063201 0.048677 0.138759
H37   H     H_    0.998092 0.778008 0.074096 0.130426
H38   H     H_    0.595083 0.936804 0.951332 0.138768
H39   H     H_    0.349182 0.431937 0.417165 0.153521
H40   H     H_    0.650821 0.568063 0.582835 0.153506
H41   H     H_    0.448102 0.344504 0.803220 0.257476
H42   H     H_    0.443119 0.370945 0.721553 0.248265
H43   H     H_    0.459438 0.272112 0.698825 0.242592
H44   H     H_    0.607270 0.406669 0.736053 0.200083
H45   H     H_    0.607082 0.425202 0.840501 0.204235
H46   H     H_    0.540541 0.727857 0.301184 0.242607
H47   H     H_    0.556867 0.629024 0.278418 0.248275
H48   H     H_    0.078210 0.132572 0.874050 0.128261
H49   H     H_    0.551882 0.655503 0.196787 0.257480
H50   H     H_    0.392698 0.593290 0.263922 0.200065
H51   H     H_    0.392900 0.574770 0.159481 0.204228
H52   H     H_    0.237032 0.850580 0.882740 0.284718
H53   H     H_    0.163281 0.882052 0.859988 0.251080
H54   H     H_    0.268562 0.982785 0.948376 0.235177
H55   H     H_    0.141993 0.931944 0.008043 0.198089
H56   H     H_    0.218788 0.906355 0.033221 0.202842
H57   H     H_    0.836720 0.117944 0.139986 0.251088
H58   H     H_    0.762940 0.149330 0.117134 0.284726
H59   H     H_    0.921729 0.867370 0.125930 0.128255
H60   H     H_    0.731491 0.017162 0.051536 0.235179
H61   H     H_    0.781316 0.093612 0.966712 0.202842
H62   H     H_    0.858132 0.068093 0.991979 0.198114
H63   H     H_    0.852990 0.701950 0.788803 0.264831
H64   H     H_    0.911343 0.676105 0.709150 0.258699
H65   H     H_    0.790600 0.594012 0.673557 0.244741
H66   H     H_    0.852635 0.505003 0.686538 0.202119
H67   H     H_    0.795701 0.532913 0.765687 0.200406
H68   H     H_    0.088682 0.323912 0.290868 0.258713
H69   H     H_    0.147116 0.298239 0.211268 0.264877
H70   H     H_    0.079317 0.053389 0.719277 0.123713
H71   H     H_    0.209422 0.406127 0.326535 0.244770
H72   H     H_    0.204293 0.467313 0.234513 0.200404
H73   H     H_    0.147233 0.495014 0.313563 0.202159
H74   H     H_    0.973725 0.245773 0.351990 0.264298
H75   H     H_    0.884974 0.215782 0.400122 0.260796
H76   H     H_    0.858280 0.140885 0.281281 0.243906
H77   H     H_    0.816854 0.266593 0.330688 0.197994
H78   H     H_    0.905786 0.297202 0.283308 0.230608
H79   H     H_    0.114974 0.784177 0.599849 0.260806
H80   H     H_    0.026290 0.754260 0.648065 0.264288
H81   H     H_    0.920624 0.946549 0.280706 0.123702
H82   H     H_    0.141761 0.859132 0.718697 0.243907
H83   H     H_    0.094227 0.702806 0.716697 0.230610
H84   H     H_    0.183148 0.733408 0.669303 0.197995
H85   H     H_    0.332117 0.202198 0.391320 0.264896
H86   H     H_    0.280174 0.238987 0.344261 0.261448
H87   H     H_    0.294724 0.137380 0.273041 0.244905
H88   H     H_    0.409218 0.294831 0.285734 0.228098
H89   H     H_    0.463291 0.267309 0.340376 0.195354
H90   H     H_    0.719915 0.761073 0.656055 0.261333
H91   H     H_    0.668053 0.797597 0.608576 0.264919
H92   H     H_    0.926431 0.153829 0.667551 0.098738
H93   H     H_    0.705225 0.862664 0.726905 0.244915
H94   H     H_    0.536752 0.732736 0.659568 0.195359
H95   H     H_    0.590715 0.705181 0.714275 0.228126
H96   H     H_    0.386652 0.599951 0.440415 0.249992
H97   H     H_    0.482387 0.720023 0.536797 0.260936
H98   H     H_    0.464928 0.705196 0.432934 0.251865
H99   H     H_    0.587399 0.685331 0.459068 0.198971
H100  H     H_    0.492556 0.568279 0.363312 0.219476
H101  H     H_    0.517696 0.280052 0.463199 0.260906
H102  H     H_    0.613382 0.400106 0.559679 0.249934
O1    O     O_3   0.251620 0.500000 0.748430 -0.476569
O2    O     O_R   0.570330 0.268390 0.136490 -0.644905
O3    O     O_R   0.134680 0.268390 0.572240 -0.649244
O4    O     O_R   0.865320 0.731610 0.427760 -0.649242
O5    O     O_R   0.306670 0.731630 0.863510 -0.646112
O6    O     O_R   0.693330 0.268370 0.136490 -0.646108
O7    O     O_R   0.135450 0.439270 0.865360 -0.641609
O8    O     O_R   0.864550 0.560730 0.134640 -0.641610
O9    O     O_R   0.429670 0.560710 0.692610 -0.652007
O10   O     O_R   0.570330 0.439290 0.307390 -0.652002
O11   O     O_R   0.308540 0.439240 0.865360 -0.649593
O12   O     O_3   0.748380 0.500000 0.251570 -0.476574
O13   O     O_R   0.691460 0.560760 0.134640 -0.649593
O14   O     O_R   0.133580 0.439310 0.571150 -0.638960
O15   O     O_R   0.866420 0.560690 0.428850 -0.638952
O16   O     O_R   0.430770 0.560690 0.864590 -0.639834
O17   O     O_R   0.569230 0.439310 0.135410 -0.639835
O18   O     O_R   0.133580 0.560760 0.692610 -0.650506
O19   O     O_R   0.866420 0.439240 0.307390 -0.650504
O20   O     O_R   0.134680 0.560740 0.864590 -0.636473
O21   O     O_R   0.865320 0.439260 0.135410 -0.636462
O22   O     O_R   0.306670 0.439270 0.571150 -0.640040
O23   O     O_R   0.693330 0.560730 0.428850 -0.640023
O24   O     O_R   0.135450 0.268370 0.694460 -0.631764
O25   O     O_R   0.864550 0.731630 0.305540 -0.631765
O26   O     O_R   0.429670 0.731610 0.863510 -0.644909
Zn1   Zn    Zn3+2 0.207400 0.586780 0.791530 0.957692
Zn2   Zn    Zn3+2 0.792600 0.413220 0.208470 0.957702
Zn3   Zn    Zn3+2 0.208510 0.413230 0.792630 0.966129
Zn4   Zn    Zn3+2 0.791490 0.586770 0.207370 0.966127
Zn5   Zn    Zn3+2 0.383150 0.586740 0.791530 0.952979
Zn6   Zn    Zn3+2 0.616850 0.413260 0.208470 0.952980
Zn7   Zn    Zn3+2 0.207400 0.413250 0.618010 0.950534
Zn8   Zn    Zn3+2 0.792600 0.586750 0.381990 0.950545

loop_
_geom_bond_atom_site_label_1
_geom_bond_atom_site_label_2
_ccdc_geom_bond_type
C34   H81   S    
O9    Zn5   S    
C51   H12   S    
C66   C68   A    
C71   C104  S    
C63   C65   A    
O4    Zn8   S    
C29   C42   A    
C41   C43   A    
C37   H92   S    
C31   O26   A    
C8    H84   S    
C18   H101  S    
C102  H15   S    
C5    H71   S    
C55   O20   A    
C15   H99   S    
C11   H85   S    
C9    H82   S    
C73   C110  S    
C113  H57   S    
C13   C60   S    
C45   H9    S    
C25   C28   S    
C89   H31   S    
C108  H50   S    
C12   C23   S    
C68   C96   S    
C36   C39   A    
C74   C76   A    
C75   H25   S    
C12   H94   S    
C4    H73   S    
C35   C37   A    
C3    H64   S    
C76   C78   A    
C13   H36   S    
C37   C40   A    
C74   C112  S    
C9    H79   S    
C57   C59   A    
O12   Zn4   S    
C106  C107  S    
C41   H7    S    
C106  H45   S    
C29   C33   A    
C77   C94   S    
C5    H69   S    
C108  C109  S    
C102  C105  S    
C11   H87   S    
C23   C26   S    
C4    H72   S    
C61   C63   A    
C3    H65   S    
C110  C111  S    
C55   C91   S    
C86   H23   S    
C82   H32   S    
C11   H86   S    
C60   C82   S    
C78   C83   A    
C24   C80   S    
C66   C72   A    
C98   O19   A    
C52   C54   A    
C8    C9    S    
C14   H90   S    
C6    H77   S    
C73   C86   A    
C62   C64   A    
C21   H40   S    
C32   C104  S    
C7    H76   S    
C93   H33   S    
C74   C87   A    
C89   C91   A    
C19   C82   S    
C10   H89   S    
C30   H59   S    
O3    Zn7   S    
C107  H42   S    
C83   C85   A    
O18   Zn1   S    
C97   C105  S    
C76   H27   S    
C58   C61   A    
C56   C90   S    
C27   O4    A    
C101  C103  S    
C22   C28   S    
C14   H93   S    
O23   Zn8   S    
C73   C75   A    
C8    H83   S    
C2    C60   S    
O1    Zn7   S    
C35   C50   S    
C15   H100  S    
C53   C106  S    
C40   H6    S    
C112  C113  S    
C107  H43   S    
C52   H13   S    
C44   C46   A    
C19   C71   S    
C47   C50   A    
O12   Zn8   S    
C45   C47   A    
C1    O24   A    
C99   C105  S    
C18   H102  S    
C88   C94   A    
C44   H8    S    
C20   H39   S    
C30   C34   A    
C85   C87   A    
C42   H26   S    
O25   Zn4   S    
C63   H20   S    
C7    H74   S    
C16   H98   S    
C95   O16   A    
C39   C41   A    
C109  H49   S    
C56   O8    A    
O6    Zn2   S    
C9    H80   S    
C1    C47   S    
C15   C26   S    
C49   C105  S    
C4    C85   S    
C78   C92   S    
C59   H14   S    
C106  H44   S    
C16   H97   S    
C100  C103  S    
C10   C22   S    
C98   O15   A    
C82   C104  S    
C13   C93   S    
C2    C31   S    
C13   C104  S    
O2    Zn6   S    
C69   C72   A    
O1    Zn1   S    
C38   C103  S    
O11   Zn3   S    
C75   C77   A    
C56   O21   A    
C90   C92   A    
C97   O14   A    
O12   Zn2   S    
C77   C81   A    
C96   O17   A    
C33   H70   S    
C100  C102  S    
C17   C18   S    
C1    O3    A    
C111  H52   S    
C96   O13   A    
C89   C92   A    
C10   H88   S    
C18   H3    S    
C61   H16   S    
C113  H58   S    
O13   Zn4   S    
C110  H56   S    
C27   C46   S    
O8    Zn4   S    
C81   H28   S    
C99   C101  S    
C21   C28   S    
C88   C90   A    
C114  H66   S    
C21   C23   S    
O22   Zn7   S    
C31   O5    A    
O24   Zn3   S    
C101  H1    S    
C22   C24   S    
C30   C43   A    
C14   H91   S    
C111  H53   S    
C20   C22   S    
C87   H24   S    
O14   Zn7   S    
C5    H68   S    
C81   C84   A    
C43   H37   S    
C80   O23   A    
C55   O7    A    
C108  H51   S    
O5    Zn1   S    
C45   C48   A    
C44   C50   A    
C32   O2    A    
C59   C62   A    
C84   C114  S    
O21   Zn2   S    
C112  H62   S    
C2    C19   S    
C25   C79   S    
C17   C28   S    
O20   Zn1   S    
C29   H48   S    
C2    C93   S    
C58   C70   S    
C51   C64   A    
O1    Zn5   S    
O1    Zn3   S    
C38   C99   S    
C69   C95   S    
C3    C114  S    
C53   C57   A    
C15   C16   S    
C12   H95   S    
C32   O6    A    
C100  H18   S    
O17   Zn6   S    
O10   Zn6   S    
C6    C7    S    
C71   C93   S    
C99   H17   S    
C114  H67   S    
O26   Zn5   S    
C27   O25   A    
C54   C108  S    
O16   Zn5   S    
C80   O10   A    
C67   C70   A    
C16   H96   S    
C67   H22   S    
C12   C14   S    
C38   C102  S    
C64   H10   S    
C49   C100  S    
C83   H29   S    
O15   Zn8   S    
C24   C26   S    
O12   Zn6   S    
C71   H35   S    
C20   C26   S    
O7    Zn3   S    
C97   O18   A    
C84   C86   A    
C40   C42   A    
C33   C35   A    
C110  H55   S    
C88   H30   S    
C36   C48   S    
C34   C36   A    
C23   C25   S    
C57   C72   S    
C3    H63   S    
C95   O11   A    
O19   Zn2   S    
C10   C11   S    
C17   H5    S    
C51   C53   A    
C66   H21   S    
C46   C48   A    
C4    C5    S    
C112  H61   S    
C54   C58   A    
C68   C70   A    
C39   H2    S    
C20   C25   S    
C21   C24   S    
C6    H78   S    
C17   H4    S    
C7    H75   S    
C109  H47   S    
C111  H54   S    
C60   H34   S    
C79   O22   A    
C67   C69   A    
C6    C38   S    
C109  H46   S    
C62   H19   S    
C8    C49   S    
C79   O9    A    
C107  H41   S    
C52   C65   A    
C98   C103  S    
C49   C101  S    
C65   H11   S    
C113  H60   S    
C91   C94   A    
C19   H38   S    
