data_mof_unit_15543.cif
_audit_creation_date              2013-03-05T16:01:22-0500
_audit_creation_method            fapswitch 2.2
_symmetry_space_group_name_H-M    P1
_symmetry_Int_Tables_number       1
_space_group_crystal_system       triclinic
_cell_length_a                    19.601836
_cell_length_b                    6.93548
_cell_length_c                    17.772873
_cell_angle_alpha                 90.000546
_cell_angle_beta                  108.050681
_cell_angle_gamma                 89.998833
_cell_volume                      2297.27100148

loop_
_atom_site_label
_atom_site_type_symbol
_atom_site_description
_atom_site_fract_x
_atom_site_fract_y
_atom_site_fract_z
_atom_type_partial_charge
O1    O     O_R   0.561700 0.369960 0.440190 -0.602497
O2    O     O_R   0.061700 0.630040 0.940190 -0.581878
O3    O     O_R   0.413790 0.033680 0.407460 -0.582414
O4    O     O_R   0.913790 0.966320 0.907460 -0.598706
O5    O     O_R   0.438300 0.869760 0.559810 -0.604348
O6    O     O_R   0.938300 0.130240 0.059810 -0.583431
C1    C     C_R   0.386663 0.203834 0.384807 1.049566
C2    C     C_R   0.886678 0.796173 0.884787 1.015867
O7    O     O_R   0.559630 0.039830 0.430710 -0.568694
O8    O     O_R   0.059630 0.960170 0.930710 -0.563970
O9    O     O_R   0.585190 0.875950 0.583220 -0.610579
O10   O     O_R   0.085190 0.124050 0.083220 -0.602052
C3    C     C_R   0.579149 0.208985 0.413764 1.012701
C4    C     C_R   0.080405 0.791378 0.914630 0.959457
O11   O     O_R   0.414810 0.363770 0.416780 -0.612886
O12   O     O_R   0.914810 0.636230 0.916780 -0.604180
O13   O     O_3   0.508210 0.205480 0.550010 -0.271498
O14   O     O_3   0.008210 0.794520 0.050010 -0.254158
V1    V     V_3+5 0.498480 0.928140 0.490720 1.219702
V2    V     V_3+5 0.998480 0.071860 0.990720 1.239767
O15   O     O_R   0.586210 0.546600 0.592540 -0.586174
O16   O     O_R   0.086210 0.453400 0.092540 -0.604106
C5    C     C_R   0.613511 0.715987 0.615397 1.047584
C6    C     C_R   0.113519 0.284018 0.115382 1.017612
O17   O     O_R   0.440370 0.540460 0.569290 -0.567479
O18   O     O_R   0.940370 0.459540 0.069290 -0.562529
C7    C     C_R   0.420860 0.709242 0.586321 1.016069
C8    C     C_R   0.919589 0.291144 0.085442 0.962763
V3    V     V_3+5 0.501520 0.428910 0.509280 1.221263
V4    V     V_3+5 0.001520 0.571090 0.009280 1.240951
O19   O     O_3   0.491790 0.701440 0.449990 -0.270027
O20   O     O_3   0.991790 0.298560 0.949990 -0.252320
C9    C     C_R   0.253556 0.785825 0.644630 -0.096510
C10   C     C_R   0.774359 0.115111 0.169115 -0.112472
H1    H     H_    0.198519 0.826718 0.614614 0.134649
H2    H     H_    0.737427 0.994740 0.158823 0.130331
C11   C     C_R   0.301684 0.775004 0.600872 -0.196501
C12   C     C_R   0.821357 0.128987 0.123964 -0.080599
H3    H     H_    0.282767 0.809422 0.538335 0.129016
H4    H     H_    0.818463 0.020404 0.079272 0.159177
C13   C     C_R   0.373190 0.718311 0.636543 -0.271354
C14   C     C_R   0.870733 0.281765 0.135212 -0.310668
C15   C     C_R   0.397026 0.675078 0.718838 0.349836
C16   C     C_R   0.872418 0.420943 0.194259 0.375927
C17   C     C_R   0.347612 0.687316 0.761979 -0.229855
C18   C     C_R   0.825358 0.404759 0.239674 -0.236413
C19   C     C_R   0.275755 0.741307 0.725676 0.071935
C20   C     C_R   0.775464 0.253283 0.227325 0.074270
C21   C     C_R   0.225668 0.615489 0.830975 -0.112700
C22   C     C_R   0.746477 0.285283 0.355469 -0.096530
C23   C     C_R   0.178669 0.629312 0.876126 -0.081186
C24   C     C_R   0.698356 0.274485 0.399236 -0.196502
H5    H     H_    0.181590 0.520747 0.920831 0.159048
H6    H     H_    0.717287 0.308791 0.461782 0.128843
C25   C     C_R   0.129252 0.782000 0.864852 -0.309205
C26   C     C_R   0.626831 0.217977 0.363554 -0.269900
C27   C     C_R   0.127524 0.921121 0.805777 0.376143
C28   C     C_R   0.602985 0.174836 0.281256 0.349884
C29   C     C_R   0.174602 0.905043 0.760381 -0.236857
C30   C     C_R   0.652386 0.187045 0.238102 -0.229894
C31   C     C_R   0.224537 0.753652 0.772753 0.074440
C32   C     C_R   0.724257 0.240898 0.274409 0.071818
C33   C     C_2   0.712813 0.896939 0.710552 -0.060012
C34   C     C_2   0.213055 0.103108 0.210242 -0.051989
C35   C     C_2   0.680329 0.726838 0.683454 -0.406760
C36   C     C_2   0.180442 0.273173 0.183312 -0.433725
H7    H     H_    0.688769 0.029795 0.682077 0.139087
H8    H     H_    0.189075 0.970282 0.181677 0.139463
H9    H     H_    0.702174 0.591592 0.710897 0.156408
H10   H     H_    0.202275 0.408407 0.210775 0.155612
C37   C     C_2   0.780185 0.920993 0.778255 -0.066399
C38   C     C_2   0.280463 0.079036 0.277899 -0.056280
C39   C     C_2   0.820312 0.773729 0.817197 -0.422022
C40   C     C_2   0.320334 0.226304 0.317182 -0.406398
H11   H     H_    0.797217 0.067650 0.795931 0.136435
H12   H     H_    0.297695 0.932374 0.295311 0.135249
H13   H     H_    0.804427 0.626646 0.799933 0.160714
H14   H     H_    0.304269 0.373409 0.300177 0.155152
N1    N     N_R   0.470749 0.626900 0.760651 0.227578
O21   O     O_R   0.495960 0.652237 0.836852 -0.368391
O22   O     O_R   0.512132 0.547243 0.724790 -0.410446
N2    N     N_R   0.922783 0.576591 0.210798 0.230538
O23   O     O_R   0.971209 0.586840 0.279886 -0.392083
O24   O     O_R   0.909770 0.728127 0.165486 -0.397172
H15   H     H_    0.365605 0.656544 0.824790 0.171356
H16   H     H_    0.826964 0.514092 0.283718 0.149571
H17   H     H_    0.262621 0.495161 0.841280 0.130311
H18   H     H_    0.801527 0.326070 0.385483 0.134731
N3    N     N_R   0.077074 0.076562 0.789179 0.230735
O25   O     O_R   0.028324 0.085820 0.720283 -0.391598
O26   O     O_R   0.090186 0.228663 0.834169 -0.397048
N4    N     N_R   0.529255 0.126788 0.239457 0.227438
O27   O     O_R   0.503928 0.153187 0.163327 -0.368471
O28   O     O_R   0.488040 0.045843 0.275211 -0.409942
H19   H     H_    0.172959 0.014357 0.716319 0.149445
H20   H     H_    0.634372 0.156338 0.175285 0.171358

loop_
_geom_bond_atom_site_label_1
_geom_bond_atom_site_label_2
_geom_bond_distance
_ccdc_geom_bond_type
C12   H4    1.083195 S    
C33   C35   1.356153 D    
O13   V3    1.698129 S    
C21   H17   1.082789 S    
C38   H12   1.086150 S    
V1    O19   1.718841 S    
O9    V1    1.997739 S    
C27   N3    1.430506 S    
C34   H8    1.086019 S    
C12   C14   1.406974 A    
O3    C1    1.305678 A    
C27   C29   1.405843 A    
O12   V4    2.015950 S    
C30   C32   1.406147 A    
O9    C5    1.292005 A    
O4    C2    1.305616 A    
O7    C3    1.298022 A    
N4    O27   1.301714 A    
O13   V1    2.173017 S    
O5    C7    1.295415 A    
O7    V1    1.991644 S    
O6    C8    1.300347 A    
O8    V2    1.991617 S    
C21   C23   1.400001 A    
C16   N2    1.430577 S    
C22   C24   1.398271 A    
O3    V1    1.989719 S    
O14   V4    1.698121 S    
N3    O26   1.300332 A    
C23   C25   1.406957 A    
C22   H18   1.082710 S    
C3    C26   1.480101 S    
C24   H6    1.083701 S    
C1    O11   1.289739 A    
C4    C25   1.492887 S    
C2    O12   1.289795 A    
C13   C15   1.422645 A    
C14   C16   1.418673 A    
O1    V3    1.991016 S    
C16   C18   1.405866 A    
O11   V3    2.015958 S    
C1    C40   1.480156 S    
C18   C20   1.405472 A    
C17   C19   1.406154 A    
O17   V3    1.991243 S    
C33   H7    1.086023 S    
C29   C31   1.405515 A    
C21   C31   1.405445 A    
V4    O20   2.143543 S    
C38   C40   1.342875 D    
O8    C4    1.300010 A    
N1    O22   1.299939 A    
O15   V3    2.022252 S    
C9    C11   1.398256 A    
C23   H5    1.083190 S    
C34   C36   1.356209 D    
C17   H15   1.082652 S    
C7    C13   1.480091 S    
C20   C32   1.495229 S    
O10   V2    1.997747 S    
N4    O28   1.299933 A    
C15   C17   1.411940 A    
C15   N1    1.444527 S    
C29   H19   1.083262 S    
C30   H20   1.082668 S    
C33   C37   1.494985 S    
O18   V4    1.991269 S    
N2    O24   1.300333 A    
C25   C27   1.418600 A    
C9    C19   1.403944 A    
O16   C6    1.302574 A    
C22   C32   1.403964 A    
C10   C20   1.405423 A    
C37   C39   1.342925 D    
V2    O20   1.718848 S    
O16   V4    2.022235 S    
C10   C12   1.400029 A    
C19   C31   1.495274 S    
O5    V1    1.990224 S    
C6    C36   1.484120 S    
O17   C7    1.296093 A    
O6    V2    1.990211 S    
O10   C6    1.292014 A    
O18   C8    1.298009 A    
O2    V4    1.991029 S    
C5    C35   1.484055 S    
O15   C5    1.302612 A    
V3    O19   2.143554 S    
C37   H11   1.086150 S    
C36   H10   1.082416 S    
C28   N4    1.444390 S    
C35   H9    1.082431 S    
C8    C14   1.492907 S    
C2    C39   1.480266 S    
C9    H1    1.082703 S    
C10   H2    1.082793 S    
C26   C28   1.422580 A    
O14   V2    2.173028 S    
C34   C38   1.495006 S    
C11   C13   1.403737 A    
O2    C4    1.302347 A    
N1    O21   1.301730 A    
O4    V2    1.989733 S    
O1    C3    1.297508 A    
C11   H3    1.083709 S    
N2    O23   1.300584 A    
C40   H14   1.082780 S    
C39   H13   1.082818 S    
N3    O25   1.300572 A    
C28   C30   1.411892 A    
C24   C26   1.403719 A    
C18   H16   1.083270 S    
