data_mof_unit_27762.cif
_audit_creation_date              2012-12-10T19:45:18-0500
_audit_creation_method            fapswitch 2.2
_symmetry_space_group_name_H-M    P1
_symmetry_Int_Tables_number       1
_space_group_crystal_system       triclinic
_cell_length_a                    14.956747
_cell_length_b                    14.144426
_cell_length_c                    10.729338
_cell_angle_alpha                 90.064287
_cell_angle_beta                  89.983941
_cell_angle_gamma                 90.032521
_cell_volume                      2269.83893794

loop_
_atom_site_label
_atom_site_type_symbol
_atom_type_description
_atom_site_fract_x
_atom_site_fract_y
_atom_site_fract_z
_atom_type_partial_charge
C1    C     C_R   0.327793 0.499970 0.499135 0.893250
C2    C     C_R   0.460790 0.895168 0.598092 -0.266870
C3    C     C_R   0.540018 0.895063 0.402595 -0.266548
C4    C     C_R   0.461018 0.795727 0.595888 0.020092
C5    C     C_R   0.539321 0.795624 0.404395 0.017415
C6    C     C_R   0.500467 0.946396 0.500403 0.128497
C7    C     C_R   0.497650 0.499831 0.262419 0.935570
C8    C     C_R   0.501964 0.499897 0.737616 0.936914
C9    C     C_2   0.495961 0.419916 0.932881 -0.163738
C10   C     C_2   0.500783 0.419696 0.066859 -0.162695
C11   C     C_2   0.510113 0.499543 0.869148 -0.333861
C12   C     C_R   0.672484 0.500006 0.498884 0.897488
C13   C     C_2   0.488342 0.499476 0.131039 -0.334629
C14   C     C_R   0.097677 0.563772 0.402019 0.572891
C15   C     C_R   0.908949 0.580477 0.521865 0.556429
C16   C     C_R   0.189701 0.566810 0.415947 -0.298762
C17   C     C_R   0.816262 0.580630 0.527706 -0.314740
C18   C     C_R   0.232309 0.499614 0.490656 -0.095538
C19   C     C_R   0.768572 0.499952 0.491989 -0.097548
C20   C     C_R   0.183852 0.429955 0.553243 -0.198167
C21   C     C_R   0.812892 0.419721 0.447168 -0.190815
C22   C     C_R   0.091832 0.429574 0.545063 -0.262507
C23   C     C_R   0.048799 0.497193 0.471570 0.006384
C24   C     C_R   0.904876 0.420247 0.437600 -0.286678
C25   C     C_3   0.031457 0.586358 0.211835 0.072622
C26   C     C_3   0.104187 0.602691 0.113561 -0.359757
C27   C     C_3   0.079642 0.556301 0.989685 -0.976028
C28   C     C_3   0.960925 0.662849 0.691783 0.066588
C29   C     C_3   0.917673 0.754619 0.737040 -0.335709
C30   C     C_3   0.924104 0.764884 0.878367 -0.981337
C31   C     C_R   0.408396 0.056845 0.301140 0.120273
C32   C     C_R   0.429466 0.077458 0.176404 -0.185261
C33   C     C_R   0.384172 0.031906 0.079395 -0.131650
C34   C     C_R   0.952615 0.500422 0.474237 0.020914
C35   C     C_R   0.317240 0.965996 0.106004 -0.112088
C36   C     C_R   0.295000 0.945990 0.229683 -0.137805
C37   C     C_R   0.339944 0.991521 0.326973 -0.118102
C38   C     C_R   0.592341 0.058041 0.699102 0.122206
C39   C     C_R   0.571039 0.078348 0.823898 -0.185444
C40   C     C_R   0.617383 0.034015 0.920759 -0.132731
C41   C     C_R   0.685697 0.969804 0.893893 -0.107227
C42   C     C_R   0.708110 0.950197 0.770130 -0.141877
C43   C     C_R   0.661948 0.994259 0.672993 -0.121291
C44   C     C_R   0.457143 0.104665 0.403840 -0.081476
C45   C     C_R   0.543144 0.105185 0.596568 -0.082029
C46   C     C_R   0.458759 0.204480 0.406275 -0.044848
C47   C     C_R   0.541302 0.204948 0.593864 -0.047377
C48   C     C_R   0.500254 0.053065 0.500271 0.012682
H1    H     H_    0.481587 0.353176 0.886686 0.164897
H2    H     H_    0.776485 0.357228 0.418130 0.168662
H3    H     H_    0.053962 0.378059 0.598006 0.163471
H4    H     H_    0.939073 0.358196 0.402349 0.162253
H5    H     H_    0.425532 0.244243 0.333653 0.137744
H6    H     H_    0.574487 0.245059 0.666347 0.138338
H7    H     H_    0.429264 0.931913 0.675013 0.140388
H8    H     H_    0.571636 0.931727 0.325757 0.140915
H9    H     H_    0.968766 0.620445 0.179305 0.173844
H10   H     H_    0.016383 0.509249 0.219975 0.122024
H11   H     H_    0.113299 0.679910 0.099121 0.228003
H12   H     H_    0.514278 0.352670 0.112603 0.164714
H13   H     H_    0.168558 0.572546 0.146409 0.215395
H14   H     H_    0.075414 0.478360 0.000805 0.268201
H15   H     H_    0.131656 0.572642 0.919034 0.266219
H16   H     H_    0.014382 0.583226 0.955801 0.262529
H17   H     H_    0.032539 0.662893 0.719369 0.172047
H18   H     H_    0.928993 0.601500 0.740244 0.114306
H19   H     H_    0.951343 0.815904 0.692305 0.235890
H20   H     H_    0.846124 0.755212 0.709533 0.207776
H21   H     H_    0.888719 0.705651 0.925113 0.263131
H22   H     H_    0.892451 0.832359 0.907585 0.263488
H23   H     H_    0.429823 0.757028 0.671127 0.127929
H24   H     H_    0.995212 0.765607 0.908240 0.272895
H25   H     H_    0.481439 0.128117 0.154381 0.113466
H26   H     H_    0.400941 0.047613 0.983540 0.126678
H27   H     H_    0.282361 0.930720 0.030783 0.122298
H28   H     H_    0.242750 0.895357 0.250194 0.138083
H29   H     H_    0.321204 0.976051 0.422283 0.130696
H30   H     H_    0.518210 0.127944 0.846057 0.113756
H31   H     H_    0.600469 0.049486 0.016675 0.126712
H32   H     H_    0.721561 0.935599 0.968943 0.123264
H33   H     H_    0.761530 0.901185 0.749411 0.130489
H34   H     H_    0.570436 0.756847 0.329082 0.129061
H35   H     H_    0.680828 0.979108 0.577601 0.128717
H36   H     H_    0.530035 0.565620 0.912258 0.148094
H37   H     H_    0.469089 0.565837 0.088336 0.147698
H38   H     H_    0.227937 0.619637 0.365799 0.161650
H39   H     H_    0.781987 0.642850 0.562047 0.165612
H40   H     H_    0.217052 0.377737 0.610760 0.160814
N1    N     N_R   0.500000 0.252470 0.500000 -0.102513
N2    N     N_R   0.500000 0.747550 0.500000 -0.093988
O1    O     O_R   0.369060 0.579480 0.500010 -0.619820
O2    O     O_3   0.957017 0.659008 0.559899 -0.623740
O3    O     O_R   0.630940 0.579480 0.499990 -0.621998
O4    O     O_R   0.369050 0.420520 0.500010 -0.619381
O5    O     O_R   0.630950 0.420520 0.499990 -0.623493
O6    O     O_R   0.500000 0.579460 0.319080 -0.631486
O7    O     O_R   0.500000 0.579460 0.680920 -0.630440
O8    O     O_R   0.499990 0.420500 0.319080 -0.625068
O9    O     O_R   0.500010 0.420500 0.680920 -0.625134
O10   O     O_3   0.055875 0.629399 0.326202 -0.625389
Zn1   Zn    Zn3+2 0.500000 0.606140 0.500000 0.940122
Zn2   Zn    Zn3+2 0.500000 0.393860 0.500000 0.935099

loop_
_geom_bond_atom_site_label_1
_geom_bond_atom_site_label_2
_ccdc_geom_bond_type
C24   H4    S    
C7    O8    A    
N1    Zn2   S    
C43   H35   S    
C41   C42   A    
C28   H18   S    
C35   C36   A    
C3    C6    A    
C41   H32   S    
C46   N1    A    
C7    O6    A    
C35   H27   S    
C26   C27   S    
C6    C48   S    
C36   C37   A    
C19   C21   A    
C26   H13   S    
C2    H7    S    
C38   C39   A    
C46   H5    S    
C38   C45   S    
C36   H28   S    
C33   C35   A    
C15   O2    S    
C29   H19   S    
C1    O4    A    
C12   O5    A    
C9    C10   S    
C15   C34   A    
C5    N2    A    
O5    Zn2   S    
C1    O1    A    
O6    Zn1   S    
C16   H38   S    
C47   N1    A    
C2    C6    A    
C42   H33   S    
C25   H9    S    
O1    Zn1   S    
C21   H2    S    
C30   H22   S    
C44   C46   A    
C4    N2    A    
C45   C47   A    
C31   C44   S    
C39   H30   S    
C9    H1    S    
O3    Zn1   S    
C39   C40   A    
C25   C26   S    
O8    Zn2   S    
C37   H29   S    
C24   C34   A    
C31   C37   A    
C14   C23   A    
C2    C4    A    
C8    O7    A    
N2    Zn1   S    
C29   C30   S    
C27   H14   S    
C29   H20   S    
C3    H8    S    
C25   O10   S    
C31   C32   A    
C23   C34   S    
C1    C18   S    
C40   H31   S    
C28   O2    S    
C9    C11   D    
C27   H15   S    
C47   H6    S    
C40   C41   A    
C20   C22   A    
C14   C16   A    
C12   O3    A    
C25   H10   S    
C32   H25   S    
C30   H21   S    
C26   H11   S    
C45   C48   A    
C15   C17   A    
C10   H12   S    
C28   C29   S    
C17   H39   S    
C8    O9    A    
C3    C5    A    
C10   C13   D    
C30   H24   S    
C14   O10   S    
C11   H36   S    
C32   C33   A    
C28   H17   S    
C38   C43   A    
C5    H34   S    
C8    C11   S    
C20   H40   S    
C12   C19   S    
C17   C19   A    
C18   C20   A    
C27   H16   S    
C33   H26   S    
C7    C13   S    
O9    Zn2   S    
O4    Zn2   S    
C16   C18   A    
C42   C43   A    
C21   C24   A    
C13   H37   S    
C22   C23   A    
C4    H23   S    
O7    Zn1   S    
C44   C48   A    
C22   H3    S    
