data_mof_unit_17575.cif
_audit_creation_date              2012-12-10T18:04:41-0500
_audit_creation_method            fapswitch 2.2
_symmetry_space_group_name_H-M    P1
_symmetry_Int_Tables_number       1
_space_group_crystal_system       triclinic
_cell_length_a                    19.620854
_cell_length_b                    17.722517
_cell_length_c                    12.581597
_cell_angle_alpha                 89.050761
_cell_angle_beta                  98.497173
_cell_angle_gamma                 90.269732
_cell_volume                      4326.3813608

loop_
_atom_site_label
_atom_site_type_symbol
_atom_type_description
_atom_site_fract_x
_atom_site_fract_y
_atom_site_fract_z
_atom_type_partial_charge
C1    C     C_R   0.409903 0.100964 0.442584 0.859487
C2    C     C_R   0.768484 0.773432 0.633021 0.139246
C3    C     C_R   0.271609 0.728649 0.660280 0.137138
C4    C     C_R   0.268463 0.273716 0.632565 0.139664
C5    C     C_R   0.332134 0.768830 0.690913 -0.243499
C6    C     C_R   0.338336 0.256836 0.645995 -0.222360
C7    C     C_R   0.834802 0.264610 0.688427 -0.239763
C8    C     C_R   0.838348 0.756485 0.646472 -0.222390
C9    C     C_R   0.372226 0.790722 0.613347 -0.203106
C10   C     C_R   0.365927 0.222059 0.564969 -0.203953
C11   C     C_R   0.873136 0.288233 0.609369 -0.206486
C12   C     C_R   0.413800 0.894628 0.446993 0.852372
C13   C     C_R   0.865953 0.721882 0.565301 -0.204063
C14   C     C_R   0.706826 0.145840 0.530238 0.143173
C15   C     C_R   0.658984 0.789839 0.515425 0.150557
C16   C     C_R   0.208692 0.645046 0.533132 0.136864
C17   C     C_R   0.158797 0.289738 0.515282 0.154081
C18   C     C_R   0.667296 0.170517 0.700064 -0.254970
C19   C     C_R   0.679073 0.846567 0.693032 -0.254677
C20   C     C_R   0.165043 0.673137 0.698796 -0.249139
C21   C     C_R   0.178930 0.346494 0.692845 -0.267501
C22   C     C_R   0.371469 0.827500 0.420884 -0.119894
C23   C     C_R   0.909915 0.600971 0.442604 0.861662
C24   C     C_R   0.350078 0.146531 0.402869 -0.109326
C25   C     C_R   0.868825 0.330032 0.418489 -0.118449
C26   C     C_R   0.850078 0.646520 0.402985 -0.110204
C27   C     C_R   0.642923 0.992936 0.132153 0.124959
C28   C     C_R   0.142531 0.488798 0.131991 0.126898
C29   C     C_R   0.379190 0.000660 0.763791 0.025596
C30   C     C_R   0.879200 0.501296 0.763834 0.027155
C31   C     C_R   0.353901 0.002260 0.860940 -0.259485
C32   C     C_R   0.853951 0.503565 0.860994 -0.258757
C33   C     C_R   0.588742 0.897473 0.556462 0.890704
C34   C     C_R   0.913303 0.395113 0.446515 0.852024
C35   C     C_R   0.593526 0.096805 0.558408 0.874624
C36   C     C_R   0.088505 0.397240 0.556338 0.872372
C37   C     C_R   0.093691 0.596639 0.558448 0.862981
C38   C     C_R   0.399986 0.003340 0.956168 -0.200990
C39   C     C_R   0.900067 0.504665 0.956197 -0.200950
C40   C     C_R   0.471992 0.002702 0.954187 0.036856
C41   C     C_R   0.972041 0.503411 0.954149 0.036499
C42   C     C_R   0.494881 0.000715 0.853123 0.237072
C43   C     C_R   0.994890 0.500770 0.853086 0.237048
C44   C     C_R   0.521880 0.002503 0.047841 -0.056543
C45   C     C_R   0.756272 0.202271 0.551535 0.036700
C46   C     C_R   0.021926 0.502818 0.047778 -0.056880
C47   C     C_R   0.593445 0.998020 0.039070 0.151830
C48   C     C_R   0.093322 0.496149 0.038987 0.150846
C49   C     C_R   0.614003 0.996756 0.937816 -0.282371
C50   C     C_R   0.113905 0.494826 0.937758 -0.281295
C51   C     C_R   0.565406 0.998867 0.846654 -0.240769
C52   C     C_R   0.065385 0.498245 0.846597 -0.239679
C53   C     C_R   0.503489 0.005607 0.150755 -0.067557
C54   C     C_R   0.003690 0.507366 0.150695 -0.065653
C55   C     C_R   0.620033 0.991117 0.231294 -0.092925
C56   C     C_R   0.724776 0.755281 0.535589 0.002178
C57   C     C_R   0.119561 0.487568 0.231047 -0.094573
C58   C     C_R   0.728841 0.208990 0.733660 -0.205937
C59   C     C_R   0.743354 0.813509 0.713605 -0.202992
C60   C     C_R   0.225525 0.713245 0.733118 -0.205378
C61   C     C_R   0.243332 0.313733 0.713200 -0.200428
C62   C     C_R   0.655710 0.139533 0.596855 -0.104019
C63   C     C_R   0.640155 0.840249 0.591394 -0.078335
C64   C     C_R   0.155811 0.639494 0.597295 -0.104704
C65   C     C_R   0.139916 0.340031 0.591311 -0.082642
C66   C     C_R   0.349647 0.811886 0.312125 -0.202483
C67   C     C_R   0.257555 0.701644 0.554316 0.042659
C68   C     C_R   0.309118 0.122897 0.308684 -0.181287
C69   C     C_R   0.843238 0.319085 0.309622 -0.199270
C70   C     C_R   0.809041 0.622820 0.308903 -0.181930
C71   C     C_R   0.298435 0.758971 0.283206 -0.159939
C72   C     C_R   0.238729 0.134973 0.295191 -0.166283
C73   C     C_R   0.788507 0.270404 0.280678 -0.155909
C74   C     C_R   0.738627 0.634718 0.295677 -0.165319
C75   C     C_R   0.267460 0.722483 0.362034 -0.166194
C76   C     C_R   0.209756 0.172710 0.373475 -0.203071
C77   C     C_R   0.758619 0.232839 0.359775 -0.187829
C78   C     C_R   0.224716 0.255439 0.535207 0.000117
C79   C     C_R   0.709721 0.672407 0.374074 -0.202825
C80   C     C_R   0.291646 0.733121 0.472596 0.099671
C81   C     C_R   0.251391 0.208906 0.459639 0.087925
C82   C     C_R   0.787587 0.237101 0.469401 0.087399
C83   C     C_R   0.751413 0.708708 0.460056 0.088262
C84   C     C_R   0.346657 0.783450 0.502405 0.081439
C85   C     C_R   0.322967 0.194109 0.474513 0.089016
C86   C     C_R   0.844757 0.284594 0.499074 0.084649
C87   C     C_R   0.822989 0.693999 0.474784 0.088974
C88   C     C_3   0.748150 0.060823 0.121521 -0.816681
C89   C     C_R   0.773298 0.225902 0.658845 0.142627
C90   C     C_3   0.250477 0.551685 0.123834 -0.813845
C91   C     C_3   0.782394 0.047559 0.477685 -0.783039
C92   C     C_3   0.547005 0.756566 0.406926 -0.767342
C93   C     C_3   0.247781 0.516177 0.519091 -0.736660
C94   C     C_3   0.046701 0.256047 0.407494 -0.769371
H1    H     H_    0.630553 0.162344 0.755572 0.175351
H2    H     H_    0.843862 0.500778 0.689216 0.149152
H3    H     H_    0.377611 0.003865 0.029327 0.132248
H4    H     H_    0.877776 0.505419 0.029438 0.132018
H5    H     H_    0.298887 0.002603 0.862510 0.151071
H6    H     H_    0.798946 0.504363 0.862594 0.151059
H7    H     H_    0.584733 0.997887 0.771974 0.217251
H8    H     H_    0.084721 0.497460 0.771920 0.216102
H9    H     H_    0.348487 0.783118 0.774233 0.151234
H10   H     H_    0.372481 0.273892 0.717367 0.146190
H11   H     H_    0.853254 0.276373 0.772010 0.150393
H12   H     H_    0.663494 0.884074 0.752118 0.163717
H13   H     H_    0.872487 0.773459 0.717893 0.146101
H14   H     H_    0.739953 0.228548 0.815551 0.141619
H15   H     H_    0.775724 0.824749 0.789263 0.146162
H16   H     H_    0.234557 0.735175 0.813874 0.141347
H17   H     H_    0.275756 0.325110 0.788762 0.146792
H18   H     H_    0.369266 0.843746 0.248886 0.157067
H19   H     H_    0.329695 0.086221 0.253130 0.144843
H20   H     H_    0.862113 0.352296 0.246970 0.155469
H21   H     H_    0.829594 0.586186 0.253273 0.144255
H22   H     H_    0.710181 0.205288 0.334003 0.129756
H23   H     H_    0.127042 0.666233 0.752512 0.174688
H24   H     H_    0.654824 0.668141 0.368384 0.168922
H25   H     H_    0.222145 0.689699 0.334369 0.132349
H26   H     H_    0.154848 0.168478 0.367528 0.169021
H27   H     H_    0.279557 0.749758 0.199114 0.141017
H28   H     H_    0.205896 0.109669 0.228380 0.143265
H29   H     H_    0.766098 0.265804 0.197064 0.140887
H30   H     H_    0.705748 0.609339 0.228982 0.143284
H31   H     H_    0.421713 0.815716 0.641778 0.183627
H32   H     H_    0.421289 0.214522 0.575564 0.153037
H33   H     H_    0.923291 0.312247 0.636224 0.181369
H34   H     H_    0.163355 0.383995 0.751934 0.165366
H35   H     H_    0.921320 0.714397 0.575847 0.153334
H36   H     H_    0.656072 0.983211 0.304175 0.148660
H37   H     H_    0.155230 0.476954 0.303522 0.140758
H38   H     H_    0.741041 0.953553 0.185577 0.224535
H39   H     H_    0.746501 0.092168 0.196907 0.239291
H40   H     H_    0.722636 0.094825 0.052006 0.248686
H41   H     H_    0.802840 0.052475 0.111334 0.244874
H42   H     H_    0.238826 0.444125 0.184249 0.225481
H43   H     H_    0.250108 0.582073 0.200343 0.239764
H44   H     H_    0.226405 0.587729 0.055510 0.247714
H45   H     H_    0.667843 0.993319 0.928141 0.187179
H46   H     H_    0.304757 0.540902 0.113335 0.245360
H47   H     H_    0.695941 0.093013 0.380194 0.226497
H48   H     H_    0.823295 0.084213 0.452251 0.242833
H49   H     H_    0.779102 0.995200 0.429923 0.231647
H50   H     H_    0.796036 0.031737 0.564028 0.252546
H51   H     H_    0.637028 0.796853 0.343522 0.229870
H52   H     H_    0.542512 0.701912 0.364822 0.224120
H53   H     H_    0.510893 0.796648 0.359849 0.260654
H54   H     H_    0.531784 0.748114 0.487974 0.226981
H55   H     H_    0.189541 0.579102 0.394954 0.239106
H56   H     H_    0.167676 0.490323 0.928091 0.186538
H57   H     H_    0.260957 0.475322 0.459370 0.226108
H58   H     H_    0.207695 0.490893 0.562239 0.229110
H59   H     H_    0.294831 0.527377 0.577497 0.245486
H60   H     H_    0.136302 0.297057 0.343453 0.228811
H61   H     H_    0.042156 0.201606 0.364834 0.222540
H62   H     H_    0.010284 0.296228 0.361244 0.260835
H63   H     H_    0.031910 0.247072 0.488731 0.226644
H64   H     H_    0.451190 0.011430 0.165666 0.130200
H65   H     H_    0.951602 0.515448 0.165449 0.129826
H66   H     H_    0.343878 0.000077 0.689150 0.149548
N1    N     N_R   0.552340 1.000000 0.237260 -0.111431
N2    N     N_2   0.116244 0.285384 0.413227 -0.309852
N3    N     N_R   0.052340 0.500000 0.237260 -0.110631
N4    N     N_R   0.448170 0.000000 0.762060 -0.136046
N5    N     N_R   0.948170 0.500000 0.762060 -0.135691
N6    N     N_2   0.714741 0.988187 0.126807 -0.315186
N7    N     N_2   0.214071 0.480668 0.126584 -0.315443
N8    N     N_2   0.716578 0.085735 0.459517 -0.293345
N9    N     N_2   0.616643 0.785688 0.413149 -0.311307
N10   N     N_2   0.223097 0.585536 0.464839 -0.315885
O1    O     O_R   0.448200 0.076800 0.373930 -0.614151
O2    O     O_R   0.585240 0.076800 0.457600 -0.603803
O3    O     O_R   0.085240 0.423200 0.457600 -0.591720
O4    O     O_R   0.085240 0.576800 0.457600 -0.613370
O5    O     O_R   0.551780 0.923190 0.626070 -0.656622
O6    O     O_R   0.551780 0.076810 0.626070 -0.641726
O7    O     O_R   0.051780 0.423190 0.626070 -0.652281
O8    O     O_R   0.051780 0.576810 0.626070 -0.638486
O9    O     O_R   0.448200 0.923200 0.373930 -0.623534
O10   O     O_R   0.948200 0.576800 0.373930 -0.613082
O11   O     O_R   0.948200 0.423200 0.373930 -0.621460
O12   O     O_R   0.414750 0.076790 0.542400 -0.603706
O13   O     O_R   0.414750 0.923210 0.542400 -0.620537
O14   O     O_R   0.914750 0.576790 0.542400 -0.603812
O15   O     O_R   0.914750 0.423210 0.542400 -0.618127
O16   O     O_R   0.585240 0.923200 0.457600 -0.586573
Zn1   Zn    Zn3+2 0.522330 0.000000 0.387520 0.938702
Zn2   Zn    Zn3+2 0.022330 0.500000 0.387520 0.931745
Zn3   Zn    Zn3+2 0.477660 0.000000 0.612480 0.921837
Zn4   Zn    Zn3+2 0.977660 0.500000 0.612480 0.922548

loop_
_geom_bond_atom_site_label_1
_geom_bond_atom_site_label_2
_ccdc_geom_bond_type
C17   C78   A    
C94   H62   S    
C83   C87   A    
C5    H9    S    
C10   C85   A    
C8    C13   A    
C35   O2    A    
C90   N7    S    
C92   H54   S    
C74   H30   S    
C45   C82   A    
C80   C84   A    
C90   H43   S    
O15   Zn4   S    
C47   C49   A    
C28   C57   A    
C7    C11   A    
C37   O8    A    
C52   H8    S    
C53   H64   S    
C76   H26   S    
C35   O6    A    
H38   N6    S    
C88   H39   S    
H51   N9    S    
O8    Zn4   S    
C42   N4    A    
C43   C52   A    
C32   C39   A    
C12   O13   A    
O9    Zn1   S    
C11   C86   A    
C14   C62   A    
C79   H24   S    
C12   C22   S    
C15   N9    S    
C34   O11   A    
C23   C26   S    
C73   C77   A    
C22   C66   A    
C30   H2    S    
O10   Zn2   S    
C28   N7    S    
O4    Zn2   S    
C37   O4    A    
C44   C53   A    
C18   C58   A    
C19   C63   A    
C94   H61   S    
C73   H29   S    
C70   C74   A    
C50   C52   A    
C41   C46   A    
C7    H11   S    
C69   C73   A    
C33   O16   A    
O12   Zn3   S    
C31   H5    S    
C54   N3    A    
C20   C60   A    
C77   H22   S    
C45   C89   A    
C24   C85   A    
C94   N2    S    
C21   C61   A    
C44   C47   A    
C68   C72   A    
C25   C34   S    
C91   H48   S    
C21   C65   A    
C3    C60   A    
C40   C42   A    
C54   H65   S    
C36   O3    A    
C92   H53   S    
C18   H1    S    
C41   C43   A    
C29   N4    A    
C13   C87   A    
C38   H3    S    
O13   Zn3   S    
C20   H23   S    
C90   H44   S    
O11   Zn2   S    
H60   N2    S    
C14   C45   A    
C91   H49   S    
C43   N5    A    
C42   C51   A    
C93   N10   S    
C46   C48   A    
C69   H20   S    
C71   C75   A    
C58   H14   S    
C67   C80   A    
C92   H52   S    
H55   N10   S    
C30   C32   A    
C91   N8    S    
C75   H25   S    
C55   N1    A    
C39   C41   A    
C17   N2    S    
C2    C59   A    
C26   C87   A    
C39   H4    S    
C27   N6    S    
C49   C51   A    
C82   C86   A    
C4    C61   A    
C1    O1    A    
C9    H31   S    
C32   H6    S    
N3    Zn2   S    
C22   C84   A    
C20   C64   A    
C34   O15   A    
C11   H33   S    
C4    C78   A    
C50   H56   S    
C66   C71   A    
C57   N3    A    
C92   N9    S    
C33   C63   S    
C55   H36   S    
C46   C54   A    
N5    Zn4   S    
C72   C76   A    
C16   C67   A    
C21   H34   S    
C23   O10   A    
O3    Zn2   S    
C4    C6    A    
C94   H63   S    
C88   N6    S    
C74   C79   A    
C49   H45   S    
C26   C70   A    
O14   Zn4   S    
C93   H57   S    
C25   C69   A    
C14   N8    S    
N4    Zn3   S    
C61   H17   S    
C8    H13   S    
C37   C64   S    
C29   H66   S    
C56   C83   A    
C91   H50   S    
C75   C80   A    
C27   C47   A    
C28   C48   A    
H47   N8    S    
C15   C63   A    
O7    Zn4   S    
C72   H28   S    
C36   C65   S    
C57   H37   S    
C18   C62   A    
C36   O7    A    
C88   H41   S    
C5    C9    A    
C3    C5    A    
C76   C81   A    
O5    Zn3   S    
C90   H46   S    
C1    O12   A    
H42   N7    S    
C70   H21   S    
C51   H7    S    
C16   C64   A    
C68   H19   S    
C17   C65   A    
C6    H10   S    
C31   C38   A    
O1    Zn1   S    
C19   C59   A    
C15   C56   A    
C93   H59   S    
C88   H40   S    
C23   O14   A    
C29   C31   A    
C2    C56   A    
C38   C40   A    
C78   C81   A    
C53   N1    A    
O6    Zn3   S    
C3    C67   A    
C77   C82   A    
O2    Zn1   S    
C48   C50   A    
C25   C86   A    
C59   H15   S    
C35   C62   S    
C27   C55   A    
C33   O5    A    
C58   C89   A    
C60   H16   S    
C6    C10   A    
C24   C68   A    
C9    C84   A    
C79   C83   A    
C19   H12   S    
C16   N10   S    
C40   C44   A    
C12   O9    A    
C1    C24   S    
N1    Zn1   S    
C2    C8    A    
C71   H27   S    
C13   H35   S    
C93   H58   S    
C30   N5    A    
C66   H18   S    
O16   Zn1   S    
C10   H32   S    
C81   C85   A    
C7    C89   A    
