data_mof_unit_60271.cif
_audit_creation_date              2013-03-05T16:59:52-0500
_audit_creation_method            fapswitch 2.2
_symmetry_space_group_name_H-M    P1
_symmetry_Int_Tables_number       1
_space_group_crystal_system       triclinic
_cell_length_a                    10.780738
_cell_length_b                    16.287694
_cell_length_c                    16.710192
_cell_angle_alpha                 91.994574
_cell_angle_beta                  95.570232
_cell_angle_gamma                 108.510826
_cell_volume                      2762.55355432

loop_
_atom_site_label
_atom_site_type_symbol
_atom_site_description
_atom_site_fract_x
_atom_site_fract_y
_atom_site_fract_z
_atom_type_partial_charge
O1    O     O_R   0.494500 0.421750 0.612630 -0.600636
O2    O     O_R   0.505500 0.578250 0.387370 -0.600637
O3    O     O_R   0.504370 0.562470 0.618930 -0.544631
O4    O     O_R   0.495630 0.437530 0.381070 -0.544619
C1    C     C_R   0.490934 0.490339 0.653102 0.958840
C2    C     C_R   0.509064 0.509661 0.346898 0.958838
O5    O     O_R   0.679100 0.455920 0.498020 -0.598066
O6    O     O_R   0.320900 0.544080 0.501980 -0.598069
O7    O     O_R   0.688960 0.596630 0.504320 -0.550987
O8    O     O_R   0.311040 0.403370 0.495680 -0.550988
C3    C     C_R   0.745309 0.537895 0.500948 0.850496
C4    C     C_R   0.254691 0.462105 0.499053 0.850491
Zn1   Zn    Zn3+2 0.493410 0.406040 0.495790 1.099804
Zn2   Zn    Zn3+2 0.506590 0.593960 0.504210 1.099799
C5    C     C_2   0.887980 0.563590 0.502656 0.059765
C6    C     C_2   0.112021 0.436410 0.497345 0.059768
C7    C     C_2   0.939064 0.503580 0.478286 0.073656
C8    C     C_2   0.060937 0.496420 0.521715 0.073651
C9    C     C_R   0.461086 0.485354 0.737791 -0.323522
C10   C     C_R   0.538898 0.514645 0.262206 -0.323520
C11   C     C_R   0.484609 0.562637 0.787187 0.200020
C12   C     C_R   0.515368 0.437362 0.212807 0.200022
C13   C     C_R   0.456355 0.558433 0.866505 0.110433
C14   C     C_R   0.543594 0.441570 0.133483 0.110430
C15   C     C_R   0.424488 0.478828 0.901208 0.071413
C16   C     C_R   0.575444 0.521176 0.098781 0.071409
C17   C     C_R   0.386288 0.401180 0.852331 0.223123
C18   C     C_R   0.613651 0.598823 0.147660 0.223126
C19   C     C_R   0.398689 0.404275 0.769253 0.068584
C20   C     C_R   0.601277 0.595726 0.230740 0.068587
N1    N     N_2   0.443629 0.476548 0.985557 -0.083533
N2    N     N_2   0.556299 0.523457 0.014433 -0.083542
N3    N     N_R   0.515370 0.719110 0.509820 -0.174780
N4    N     N_R   0.484630 0.280890 0.490180 -0.174777
C21   C     C_R   0.432504 0.744436 0.453870 0.227434
C22   C     C_R   0.567497 0.255565 0.546130 0.227433
C23   C     C_R   0.441856 0.833600 0.447976 0.054651
C24   C     C_R   0.558145 0.166401 0.552024 0.054649
C25   C     C_R   0.535945 0.898804 0.499423 0.128470
C26   C     C_R   0.464056 0.101196 0.500578 0.128471
C27   C     C_R   0.629262 0.873200 0.547207 0.026131
C28   C     C_R   0.370737 0.126800 0.452795 0.026131
C29   C     C_R   0.610333 0.784056 0.558839 0.287240
C30   C     C_R   0.389666 0.215943 0.441162 0.287243
N5    N     N_2   0.551207 0.990268 0.496130 -0.073817
N6    N     N_2   0.448794 0.009732 0.503872 -0.073817
I1    I     I_    0.146558 0.566048 0.636258 -0.098244
I2    I     I_    0.853446 0.433955 0.363742 -0.098215
N7    N     N_R   0.688203 0.764752 0.625795 0.263604
O9    O     O_R   0.725947 0.817693 0.690168 -0.246783
O10   O     O_R   0.712924 0.692243 0.627260 -0.270594
N8    N     N_R   0.311794 0.235246 0.374206 0.263604
O11   O     O_R   0.274045 0.182302 0.309835 -0.246788
O12   O     O_R   0.287079 0.307757 0.372738 -0.270601
N9    N     N_R   0.029642 0.349471 0.470653 0.229601
O13   O     O_R   0.057371 0.307228 0.411334 -0.261305
O14   O     O_R   0.926893 0.311622 0.506736 -0.332567
N10   N     N_R   0.970358 0.650529 0.529345 0.229602
O15   O     O_R   0.942632 0.692774 0.588665 -0.261302
O16   O     O_R   0.073105 0.688378 0.493261 -0.332568
N11   N     N_R   0.454949 0.353568 0.240040 0.257825
O17   O     O_R   0.529033 0.312832 0.275043 -0.314104
O18   O     O_R   0.336705 0.309374 0.207648 -0.241545
N12   N     N_R   0.545054 0.646430 0.759959 0.257826
O19   O     O_R   0.470991 0.687187 0.724969 -0.314097
O20   O     O_R   0.663311 0.690601 0.792345 -0.241549
I3    I     I_    0.542459 0.327141 0.066526 0.073741
I4    I     I_    0.457488 0.672866 0.933454 0.073762
N13   N     N_R   0.335461 0.319674 0.887465 0.246195
O21   O     O_R   0.382234 0.256829 0.873168 -0.284319
O22   O     O_R   0.250161 0.310495 0.939265 -0.284561
N14   N     N_R   0.664456 0.680330 0.112525 0.246193
O23   O     O_R   0.617670 0.743168 0.126827 -0.284324
O24   O     O_R   0.749752 0.689519 0.060720 -0.284557
I5    I     I_    0.302423 0.287391 0.693614 -0.097232
I6    I     I_    0.697556 0.712610 0.306375 -0.097230
I7    I     I_    0.714530 0.346855 0.630058 -0.099875
I8    I     I_    0.285471 0.653145 0.369941 -0.099877
I9    I     I_    0.657587 0.126582 0.652887 -0.037688
I10   I     I_    0.342415 0.873419 0.347113 -0.037683
I11   I     I_    0.816601 0.968310 0.584769 0.007745
I12   I     I_    0.183397 0.031689 0.415236 0.007742

loop_
_geom_bond_atom_site_label_1
_geom_bond_atom_site_label_2
_geom_bond_distance
_ccdc_geom_bond_type
C15   N1    1.408059 S    
N9    O13   1.298452 A    
C16   N2    1.408056 S    
C17   C19   1.408641 A    
C28   I12   2.138308 S    
C7    I2    2.154739 S    
C8    I1    2.154744 S    
Zn2   N3    2.008808 S    
C25   C27   1.398999 A    
C10   C20   1.423307 A    
N5    N6    1.258319 D    
O5    C3    1.295417 A    
O1    C1    1.298692 A    
C9    C11   1.419323 A    
C14   C16   1.394136 A    
C22   I7    2.148751 S    
C24   I9    2.139504 S    
N10   O16   1.300977 A    
N13   O22   1.301350 A    
O4    Zn1   2.002015 S    
N11   O18   1.300927 A    
C11   N12   1.424910 S    
C14   I3    2.136210 S    
C3    C5    1.457264 S    
C4    C6    1.457262 S    
N7    O10   1.291124 A    
C17   N13   1.436003 S    
C25   N5    1.449574 S    
C30   N8    1.437073 S    
C26   C28   1.399000 A    
C27   C29   1.423648 A    
C18   N14   1.436008 S    
C28   C30   1.423648 A    
N8    O12   1.291123 A    
C11   C13   1.387674 A    
C23   I10   2.139504 S    
N3    C29   1.388271 A    
N4    C30   1.388271 A    
N14   O24   1.301354 A    
C29   N7    1.437073 S    
N10   O15   1.298452 A    
O2    C2    1.298694 A    
N12   O20   1.300914 A    
C13   I4    2.136208 S    
C26   N6    1.449574 S    
O7    Zn2   1.952532 S    
C20   I6    2.149934 S    
N1    N2    1.250314 D    
O6    C4    1.295416 A    
C27   I11   2.138306 S    
C7    C8    1.478047 S    
O7    C3    1.288148 A    
O3    Zn2   2.002012 S    
O8    C4    1.288149 A    
C1    C9    1.480768 S    
O4    C2    1.296922 A    
C10   C12   1.419324 A    
N9    O14   1.300976 A    
C5    N10   1.439939 S    
C12   C14   1.387680 A    
O1    Zn1   1.958676 S    
C9    C19   1.423304 A    
N8    O11   1.301488 A    
C5    C7    1.334952 D    
O6    Zn2   1.902536 S    
C21   C23   1.431041 A    
N14   O23   1.301235 A    
O3    C1    1.296923 A    
O8    Zn1   1.952531 S    
C19   I5    2.149933 S    
C15   C17   1.402942 A    
C2    C10   1.480767 S    
C21   I8    2.148750 S    
C16   C18   1.402938 A    
N12   O19   1.301165 A    
C18   C20   1.408636 A    
C6    N9    1.439935 S    
Zn1   N4    2.008807 S    
C23   C25   1.406768 A    
C12   N11   1.424921 S    
C24   C26   1.406769 A    
C22   C24   1.431040 A    
N3    C21   1.393206 A    
N4    C22   1.393206 A    
C13   C15   1.394129 A    
N11   O17   1.301174 A    
O2    Zn2   1.958676 S    
N13   O21   1.301225 A    
O5    Zn1   1.902537 S    
C6    C8    1.334953 D    
N7    O9    1.301488 A    
