data_mof_unit_54392.cif
_audit_creation_date              2012-12-10T16:35:13-0500
_audit_creation_method            fapswitch 2.2
_symmetry_space_group_name_H-M    P1
_symmetry_Int_Tables_number       1
_space_group_crystal_system       triclinic
_cell_length_a                    10.888152
_cell_length_b                    10.893196
_cell_length_c                    10.880911
_cell_angle_alpha                 80.821485
_cell_angle_beta                  97.249498
_cell_angle_gamma                 89.734928
_cell_volume                      1263.43739598

loop_
_atom_site_label
_atom_site_type_symbol
_atom_type_description
_atom_site_fract_x
_atom_site_fract_y
_atom_site_fract_z
_atom_type_partial_charge
C1    C     C_R   0.833813 0.472234 0.526606 0.561571
C2    C     C_2   0.468540 0.029400 0.527543 0.241323
C3    C     C_2   0.534228 0.966492 0.457885 0.000951
C4    C     C_2   0.029574 0.534358 0.466208 0.232893
C5    C     C_3   0.270543 0.976359 0.554714 -0.007635
C6    C     C_3   0.194422 0.881895 0.628741 -0.350280
C7    C     C_3   0.608418 0.026278 0.354103 -0.284811
C8    C     C_3   0.654894 0.935430 0.274014 -0.309281
C9    C     C_3   0.724960 0.003117 0.171585 -0.461633
C10   C     C_3   0.958129 0.603315 0.261107 -0.015267
C11   C     C_3   0.875847 0.700564 0.172398 -0.379595
C12   C     C_2   0.965653 0.454074 0.542296 -0.001445
C13   C     C_3   0.022266 0.346272 0.641896 -0.281550
C14   C     C_3   0.928449 0.269563 0.715004 -0.313199
C15   C     C_3   0.993572 0.166318 0.813384 -0.456113
C16   C     C_3   0.253265 0.541153 0.960255 -0.006462
C17   C     C_3   0.154451 0.607949 0.860568 -0.365613
C18   C     C_3   0.629524 0.354280 0.034358 -0.274681
C19   C     C_3   0.755775 0.410464 0.065776 -0.287254
C20   C     C_3   0.853008 0.310053 0.125501 -0.462695
C21   C     C_2   0.460359 0.524896 0.025437 0.247472
C22   C     C_2   0.534189 0.454468 0.970952 0.002671
C23   C     C_R   0.164307 0.526429 0.473677 0.490933
C24   C     C_R   0.521689 0.473082 0.837280 0.560878
C25   C     C_R   0.475466 0.524633 0.160659 0.497254
C26   C     C_R   0.522905 0.833859 0.475587 0.565022
C27   C     C_R   0.476283 0.164141 0.521913 0.502811
H1    H     H_    0.259767 0.958274 0.455844 0.129760
H2    H     H_    0.574843 0.889456 0.227977 0.186497
H3    H     H_    0.547917 0.097031 0.288656 0.159404
H4    H     H_    0.690358 0.071764 0.397461 0.171525
H5    H     H_    0.917177 0.510721 0.257915 0.126185
H6    H     H_    0.050217 0.603705 0.227107 0.150786
H7    H     H_    0.916409 0.793676 0.174108 0.162282
H8    H     H_    0.869056 0.679567 0.075226 0.095034
H9    H     H_    0.781587 0.700690 0.201279 0.152082
H10   H     H_    0.045414 0.101940 0.767785 0.157248
H11   H     H_    0.058786 0.206602 0.882420 0.150521
H12   H     H_    0.232557 0.070960 0.556396 0.139871
H13   H     H_    0.923754 0.112629 0.864260 0.142143
H14   H     H_    0.876074 0.330927 0.763604 0.164763
H15   H     H_    0.861999 0.226505 0.649172 0.172409
H16   H     H_    0.072630 0.281540 0.595205 0.160677
H17   H     H_    0.087794 0.384812 0.712074 0.170727
H18   H     H_    0.223287 0.543713 0.053896 0.134059
H19   H     H_    0.258900 0.442414 0.945140 0.119257
H20   H     H_    0.179695 0.602981 0.765751 0.158315
H21   H     H_    0.064037 0.562740 0.869388 0.092473
H22   H     H_    0.145108 0.706731 0.872528 0.157263
H23   H     H_    0.201705 0.897540 0.727754 0.161563
H24   H     H_    0.829784 0.265283 0.218487 0.167866
H25   H     H_    0.858256 0.238757 0.063734 0.148780
H26   H     H_    0.945443 0.352086 0.138554 0.117952
H27   H     H_    0.786873 0.461386 0.978630 0.166130
H28   H     H_    0.747090 0.477567 0.130688 0.183984
H29   H     H_    0.597846 0.295231 0.116463 0.167242
H30   H     H_    0.640951 0.287959 0.968335 0.122690
H31   H     H_    0.095675 0.891290 0.587041 0.104719
H32   H     H_    0.229027 0.786494 0.625898 0.169971
H33   H     H_    0.667751 0.081524 0.114821 0.153596
H34   H     H_    0.813206 0.038253 0.214144 0.150776
H35   H     H_    0.745986 0.938567 0.107480 0.147009
H36   H     H_    0.717485 0.862948 0.334424 0.179834
O1    O     O_3   0.500000 0.500000 0.500000 -0.439292
O2    O     O_R   0.597340 0.765700 0.560080 -0.517610
O3    O     O_R   0.548200 0.222430 0.451790 -0.593527
O4    O     O_R   0.441590 0.789440 0.401000 -0.557042
O5    O     O_R   0.412860 0.222430 0.587130 -0.525322
O6    O     O_3   0.395478 0.964437 0.610378 -0.547340
O7    O     O_3   0.967158 0.631905 0.383858 -0.562154
O8    O     O_3   0.367733 0.600854 0.950868 -0.548239
O9    O     O_R   0.441590 0.410520 0.779910 -0.548932
O10   O     O_R   0.548210 0.443940 0.230290 -0.587076
O11   O     O_R   0.787780 0.544200 0.591150 -0.535731
O12   O     O_R   0.222430 0.601350 0.398650 -0.530242
O13   O     O_R   0.767360 0.410530 0.454140 -0.561401
O14   O     O_R   0.222430 0.443930 0.556060 -0.593941
O15   O     O_R   0.597340 0.544190 0.781580 -0.536341
O16   O     O_R   0.412870 0.601350 0.208220 -0.526104
Zn1   Zn    Zn3+2 0.396020 0.396030 0.603970 0.910629
Zn2   Zn    Zn3+2 0.618560 0.587010 0.606350 0.954871
Zn3   Zn    Zn3+2 0.396030 0.620930 0.379070 0.926908
Zn4   Zn    Zn3+2 0.589390 0.396030 0.410610 0.876230

loop_
_geom_bond_atom_site_label_1
_geom_bond_atom_site_label_2
_ccdc_geom_bond_type
O5    Zn1   S    
C6    H31   S    
C19   C20   S    
C17   H21   S    
C4    O7    S    
C7    C8    S    
O1    Zn4   S    
C1    C12   S    
C21   O8    S    
C9    H34   S    
C26   O4    A    
C11   H9    S    
C20   H24   S    
C3    C7    S    
C5    C6    S    
C18   C19   S    
C15   H10   S    
C5    O6    S    
C27   O5    A    
O3    Zn4   S    
C8    C9    S    
C2    C27   S    
C4    C12   D    
C2    O6    S    
C18   H29   S    
C14   H15   S    
C26   O2    A    
C7    H3    S    
C25   O16   A    
C21   C22   D    
O1    Zn1   S    
C16   O8    S    
O13   Zn4   S    
C11   H7    S    
O1    Zn2   S    
C7    H4    S    
C9    H35   S    
C17   H22   S    
C4    C23   S    
C16   C17   S    
C23   O14   A    
C15   H11   S    
C5    H1    S    
C18   H30   S    
O2    Zn2   S    
C8    H2    S    
C6    H23   S    
O1    Zn3   S    
C14   H14   S    
C10   O7    S    
C19   H27   S    
C24   O15   A    
C5    H12   S    
C22   C24   S    
C1    O11   A    
O11   Zn2   S    
C16   H19   S    
C13   H16   S    
C24   O9    A    
O14   Zn1   S    
C19   H28   S    
C21   C25   S    
C18   C22   S    
C1    O13   A    
C6    H32   S    
C3    C26   S    
C17   H20   S    
C23   O12   A    
C20   H26   S    
C16   H18   S    
O16   Zn3   S    
O12   Zn3   S    
C9    H33   S    
C11   H8    S    
C2    C3    D    
O9    Zn1   S    
C27   O3    A    
O15   Zn2   S    
C10   H6    S    
C25   O10   A    
C15   H13   S    
C10   C11   S    
C8    H36   S    
C10   H5    S    
C12   C13   S    
O4    Zn3   S    
C20   H25   S    
C14   C15   S    
C13   C14   S    
O10   Zn4   S    
C13   H17   S    
