data_mof_unit_18392.cif
_audit_creation_date              2013-03-05T15:55:11-0500
_audit_creation_method            fapswitch 2.2
_symmetry_space_group_name_H-M    P1
_symmetry_Int_Tables_number       1
_space_group_crystal_system       triclinic
_cell_length_a                    14.551396
_cell_length_b                    16.213866
_cell_length_c                    6.920171
_cell_angle_alpha                 89.999976
_cell_angle_beta                  98.65219
_cell_angle_gamma                 90.0
_cell_volume                      1614.12570025

loop_
_atom_site_label
_atom_site_type_symbol
_atom_site_description
_atom_site_fract_x
_atom_site_fract_y
_atom_site_fract_z
_atom_type_partial_charge
O1    O     O_R   0.831700 0.662810 0.581550 -0.589656
O2    O     O_R   0.168300 0.337190 0.418450 -0.589656
O3    O     O_R   0.168300 0.162810 0.418450 -0.589656
O4    O     O_R   0.831700 0.837190 0.581550 -0.589655
O5    O     O_R   0.842890 0.834390 0.255500 -0.564105
O6    O     O_R   0.157110 0.165610 0.744500 -0.564107
O7    O     O_R   0.157110 0.334390 0.744500 -0.564107
O8    O     O_R   0.842890 0.665610 0.255500 -0.564108
O9    O     O_R   0.661690 0.835580 0.024130 -0.545184
O10   O     O_R   0.338310 0.164420 0.975870 -0.545184
O11   O     O_R   0.338310 0.335580 0.975870 -0.545184
O12   O     O_R   0.661690 0.664420 0.024130 -0.545185
C1    C     C_R   0.866111 0.864159 0.430593 1.010410
C2    C     C_R   0.133889 0.135841 0.569407 1.010411
C3    C     C_R   0.133889 0.364159 0.569407 1.010410
C4    C     C_R   0.866111 0.635841 0.430593 1.010409
C5    C     C_R   0.065203 0.066250 0.538754 -0.350552
C6    C     C_R   0.934797 0.933750 0.461245 -0.350552
C7    C     C_R   0.934797 0.566249 0.461246 -0.350552
C8    C     C_R   0.065203 0.433750 0.538754 -0.350551
H1    H     H_    0.125143 0.016093 0.296909 0.181495
H2    H     H_    0.874858 0.983907 0.703091 0.181493
H3    H     H_    0.874857 0.516093 0.703091 0.181493
H4    H     H_    0.125143 0.483907 0.296909 0.181492
C9    C     C_R   0.006493 0.944613 0.345776 0.381345
C10   C     C_R   0.993507 0.055387 0.654223 0.381345
C11   C     C_R   0.993507 0.444613 0.654223 0.381345
C12   C     C_R   0.006493 0.555387 0.345777 0.381345
O13   O     O_3   0.687240 0.750000 0.366320 -0.242251
O14   O     O_3   0.312760 0.250000 0.633680 -0.242251
V1    V     V_3+5 0.757720 0.750000 0.115230 1.341773
V2    V     V_3+5 0.242280 0.250000 0.884770 1.341773
O15   O     O_R   0.650500 0.664000 0.690740 -0.596764
O16   O     O_R   0.349500 0.336000 0.309260 -0.596764
O17   O     O_R   0.349500 0.164000 0.309260 -0.596764
O18   O     O_R   0.650500 0.836000 0.690740 -0.596764
C13   C     C_R   0.628520 0.636012 0.853960 1.057344
C14   C     C_R   0.371480 0.363988 0.146040 1.057344
C15   C     C_R   0.371480 0.136012 0.146040 1.057344
C16   C     C_R   0.628520 0.863988 0.853959 1.057345
C17   C     C_R   0.070423 0.009805 0.386218 -0.146886
C18   C     C_R   0.929577 0.990194 0.613782 -0.146889
C19   C     C_R   0.929577 0.509805 0.613782 -0.146887
C20   C     C_R   0.070423 0.490195 0.386218 -0.146887
V3    V     V_3+5 0.735670 0.750000 0.607790 1.299034
V4    V     V_3+5 0.264330 0.250000 0.392210 1.299034
O19   O     O_3   0.806150 0.750000 0.906560 -0.244142
O20   O     O_3   0.193850 0.250000 0.093440 -0.244142
C21   C     C_2   0.559629 0.931412 0.845486 -0.574011
C22   C     C_2   0.440371 0.068588 0.154514 -0.574010
C23   C     C_2   0.440371 0.431412 0.154514 -0.574011
C24   C     C_2   0.559629 0.568588 0.845486 -0.574010
C25   C     C_2   0.534584 0.966238 0.007549 0.622969
C26   C     C_2   0.465416 0.033762 0.992451 0.622969
C27   C     C_2   0.465416 0.466238 0.992451 0.622968
C28   C     C_2   0.534584 0.533762 0.007549 0.622969
H5    H     H_    0.470946 0.046668 0.298275 0.202205
H6    H     H_    0.529054 0.953332 0.701724 0.202205
H7    H     H_    0.529054 0.546668 0.701724 0.202205
H8    H     H_    0.470946 0.453331 0.298275 0.202205
N1    N     N_R   0.017824 0.888897 0.190657 0.238500
O21   O     O_R   0.096110 0.849721 0.194964 -0.337852
O22   O     O_R   0.961087 0.893037 0.026757 -0.375090
N2    N     N_R   0.982175 0.111104 0.809341 0.238499
O23   O     O_R   0.903893 0.150285 0.805023 -0.337851
O24   O     O_R   0.038910 0.106962 0.973245 -0.375091
N3    N     N_R   0.982175 0.388896 0.809341 0.238499
O25   O     O_R   0.903893 0.349716 0.805027 -0.337851
O26   O     O_R   0.038911 0.393038 0.973245 -0.375090
N4    N     N_R   0.017825 0.611105 0.190661 0.238498
O27   O     O_R   0.096105 0.650289 0.194984 -0.337852
O28   O     O_R   0.961093 0.606962 0.026755 -0.375090
F1    F     F_    0.427135 0.059852 0.810871 -0.691370
F2    F     F_    0.572865 0.940148 0.189129 -0.691371
F3    F     F_    0.572865 0.559852 0.189129 -0.691371
F4    F     F_    0.427135 0.440148 0.810871 -0.691371

loop_
_geom_bond_atom_site_label_1
_geom_bond_atom_site_label_2
_geom_bond_distance
_ccdc_geom_bond_type
O6    V2    1.997117 S    
C27   C28   1.480186 S    
O15   V3    2.005954 S    
C25   F2    1.362943 S    
C25   C26   1.480186 S    
O2    V4    2.015062 S    
C22   C26   1.353660 D    
C1    C6    1.501110 S    
C5    C10   1.417317 A    
O8    V1    1.997117 S    
C6    C18   1.407725 A    
C16   C21   1.478438 S    
O12   C13   1.288748 A    
H3    C19   1.083709 S    
O4    C1    1.300231 A    
N1    O22   1.300325 A    
C10   N2    1.431374 S    
N4    O27   1.300697 A    
O16   V4    2.005954 S    
O5    C1    1.300811 A    
O7    C3    1.300810 A    
O8    C4    1.300811 A    
C28   F3    1.362944 S    
V1    O19   1.699425 S    
V2    O20   1.699425 S    
C2    C5    1.501109 S    
C6    C9    1.417318 A    
C8    C20   1.407725 A    
C7    C19   1.407725 A    
O4    V3    2.015060 S    
V3    O19   2.165307 S    
C3    C8    1.501110 S    
V4    O20   2.165309 S    
N3    O25   1.300701 A    
O18   C16   1.301040 A    
C9    C17   1.408076 A    
C13   C24   1.478437 S    
C14   C23   1.478437 S    
C12   C20   1.408077 A    
O9    C16   1.288748 A    
O15   C13   1.301041 A    
C21   H6    1.086651 S    
O13   V3    1.713072 S    
O10   C15   1.288749 A    
N3    O26   1.300325 A    
N2    O24   1.300325 A    
O11   C14   1.288749 A    
O17   C15   1.301040 A    
C7    C12   1.417316 A    
C24   H7    1.086651 S    
C11   C19   1.408075 A    
O6    C2    1.300810 A    
C26   F1    1.362943 S    
O18   V3    2.005955 S    
O1    C4    1.300230 A    
C9    N1    1.431375 S    
O2    C3    1.300231 A    
O3    C2    1.300230 A    
H1    C17   1.083710 S    
C27   F4    1.362944 S    
O11   V2    2.002602 S    
O12   V1    2.002603 S    
H4    C20   1.083710 S    
C10   C18   1.408076 A    
O7    V2    1.997115 S    
O16   C14   1.301040 A    
C22   H5    1.086651 S    
O14   V4    1.713072 S    
C12   N4    1.431371 S    
C8    C11   1.417318 A    
O3    V4    2.015063 S    
N2    O23   1.300699 A    
O13   V1    2.146436 S    
O14   V2    2.146436 S    
O1    V3    2.015062 S    
H2    C18   1.083709 S    
C4    C7    1.501109 S    
C21   C25   1.353661 D    
C23   C27   1.353661 D    
N1    O21   1.300704 A    
C5    C17   1.407725 A    
C11   N3    1.431373 S    
O9    V1    2.002602 S    
O10   V2    2.002603 S    
C15   C22   1.478438 S    
N4    O28   1.300324 A    
C23   H8    1.086651 S    
O17   V4    2.005955 S    
C24   C28   1.353661 D    
O5    V1    1.997117 S    
