data_mof_unit_13474.cif
_audit_creation_date              2012-12-10T18:56:24-0500
_audit_creation_method            fapswitch 2.2
_symmetry_space_group_name_H-M    P1
_symmetry_Int_Tables_number       1
_space_group_crystal_system       triclinic
_cell_length_a                    10.689959
_cell_length_b                    9.79543
_cell_length_c                    18.71448
_cell_angle_alpha                 89.551324
_cell_angle_beta                  90.131888
_cell_angle_gamma                 88.690397
_cell_volume                      1959.06659897

loop_
_atom_site_label
_atom_site_type_symbol
_atom_type_description
_atom_site_fract_x
_atom_site_fract_y
_atom_site_fract_z
_atom_type_partial_charge
C1    C     C_R   0.875681 0.495963 0.511586 -0.191092
C2    C     C_R   0.130046 0.507442 0.528995 -0.188965
C3    C     C_R   0.344007 0.643706 0.960068 0.132152
C4    C     C_R   0.318592 0.396771 0.039181 0.153156
C5    C     C_R   0.350117 0.646119 0.035479 0.139334
C6    C     C_R   0.320164 0.393415 0.963713 0.143698
C7    C     C_R   0.344744 0.521015 0.073848 0.084853
C8    C     C_R   0.341292 0.515920 0.925421 0.083291
C9    C     C_R   0.261255 0.501803 0.510181 0.890048
C10   C     C_R   0.741428 0.498150 0.501547 0.906526
C11   C     C_R   0.498530 0.500700 0.364815 0.914782
C12   C     C_R   0.497434 0.499694 0.635230 0.879267
C13   C     C_R   0.069714 0.390554 0.555617 0.087255
C14   C     C_R   0.940025 0.614020 0.490035 0.075464
C15   C     C_R   0.938128 0.387952 0.550950 0.132061
C16   C     C_R   0.061057 0.628362 0.514329 0.107906
C17   C     C_R   0.332024 0.509475 0.724706 -0.328836
C18   C     C_R   0.339462 0.546893 0.274114 -0.312816
C19   C     C_R   0.545346 0.465225 0.237262 -0.362401
C20   C     C_R   0.548522 0.496816 0.763996 -0.347282
C21   C     C_R   0.290421 0.511536 0.795742 0.505388
C22   C     C_R   0.298642 0.553638 0.202831 0.489648
C23   C     C_R   0.508282 0.473746 0.165164 0.494835
C24   C     C_R   0.509463 0.504029 0.835153 0.491822
C25   C     C_R   0.380392 0.508304 0.850471 -0.092915
C26   C     C_R   0.384124 0.516377 0.149085 -0.082567
C27   C     C_R   0.553929 0.069868 0.554820 -0.094087
C28   C     C_R   0.444889 0.930059 0.445515 -0.099591
C29   C     C_R   0.445116 0.074213 0.445442 -0.077532
C30   C     C_R   0.553947 0.925784 0.554835 -0.085010
C31   C     C_R   0.459908 0.500370 0.709358 -0.125240
C32   C     C_R   0.461881 0.504539 0.290559 -0.131507
H1    H     H_    0.596777 0.122790 0.598625 0.134227
H2    H     H_    0.400626 0.876949 0.402128 0.127548
H3    H     H_    0.400906 0.130725 0.402013 0.133454
H4    H     H_    0.597549 0.869304 0.598469 0.132127
H5    H     H_    0.265708 0.516739 0.681099 0.137846
H6    H     H_    0.276210 0.571328 0.317518 0.148618
H7    H     H_    0.637921 0.428403 0.252439 0.146425
H8    H     H_    0.647100 0.489261 0.751529 0.155207
N1    N     N_R   0.500000 0.857200 0.500000 -0.074242
N2    N     N_R   0.500000 0.142800 0.500000 -0.072012
O1    O     O_R   0.316770 0.614620 0.500000 -0.620431
O2    O     O_R   0.683230 0.385380 0.500000 -0.618798
O3    O     O_R   0.683230 0.614620 0.500000 -0.596218
O4    O     O_R   0.316770 0.385380 0.500000 -0.608131
O5    O     O_R   0.500030 0.614710 0.398180 -0.616918
O6    O     O_R   0.499970 0.385290 0.601820 -0.615519
O7    O     O_R   0.499970 0.614710 0.601820 -0.621053
O8    O     O_R   0.500030 0.385290 0.398180 -0.609660
Zn1   Zn    Zn3+2 0.500000 0.653120 0.500000 0.922770
Zn2   Zn    Zn3+2 0.500000 0.346880 0.500000 0.930337
C33   C     C_3   0.145251 0.276285 0.593141 -0.371524
C34   C     C_3   0.162509 0.150951 0.545333 -0.816455
H9    H     H_    0.076576 0.090118 0.543671 0.223068
H10   H     H_    0.185331 0.180770 0.489653 0.270772
H11   H     H_    0.240494 0.085507 0.566347 0.249646
H12   H     H_    0.238334 0.311393 0.610292 0.215823
H13   H     H_    0.102935 0.247545 0.644916 0.177391
C35   C     C_3   0.892612 0.709295 0.430080 -0.378608
C36   C     C_3   0.826724 0.840750 0.456068 -0.787169
H14   H     H_    0.737356 0.857537 0.426583 0.260510
H15   H     H_    0.806391 0.836252 0.514198 0.259856
H16   H     H_    0.885713 0.930518 0.445403 0.211121
H17   H     H_    0.972456 0.737398 0.395315 0.174098
H18   H     H_    0.828841 0.653587 0.394111 0.191743
C37   C     C_3   0.866472 0.274590 0.589045 -0.369211
C38   C     C_3   0.798659 0.329692 0.654719 -0.871488
H19   H     H_    0.867694 0.355656 0.696463 0.236344
H20   H     H_    0.743065 0.422963 0.641373 0.251611
H21   H     H_    0.735726 0.251356 0.676763 0.245750
H22   H     H_    0.802925 0.221548 0.552505 0.222554
H23   H     H_    0.925473 0.188298 0.608091 0.198319
C39   C     C_3   0.109264 0.770494 0.530565 -0.359131
C40   C     C_3   0.156867 0.779426 0.607645 -0.846706
H24   H     H_    0.247981 0.724781 0.614245 0.278130
H25   H     H_    0.170174 0.887434 0.622376 0.240615
H26   H     H_    0.087987 0.735502 0.645255 0.254140
H27   H     H_    0.180927 0.803476 0.491767 0.220129
H28   H     H_    0.033105 0.847898 0.526267 0.210319
O9    O     O_3   0.164974 0.528165 0.814208 -0.609642
C41   C     C_3   0.086968 0.446820 0.772082 -0.369235
H29   H     H_    0.127239 0.342231 0.764085 0.150284
H30   H     H_    0.065891 0.497829 0.720082 0.180586
H31   H     H_    0.996803 0.435490 0.800484 0.198185
O10   O     O_3   0.175927 0.587469 0.182758 -0.612808
C42   C     C_3   0.119356 0.685776 0.227833 -0.369717
H32   H     H_    0.183918 0.769463 0.241397 0.154291
H33   H     H_    0.082648 0.636301 0.276855 0.167578
H34   H     H_    0.038198 0.733103 0.199200 0.195009
O11   O     O_3   0.585248 0.432408 0.108831 -0.593720
C43   C     C_3   0.712144 0.462710 0.120373 -0.278746
H35   H     H_    0.758276 0.382084 0.153894 0.163993
H36   H     H_    0.724051 0.565463 0.144166 0.141360
H37   H     H_    0.760439 0.462955 0.067972 0.202429
O12   O     O_3   0.595178 0.495927 0.890849 -0.589120
C44   C     C_3   0.672066 0.611058 0.889275 -0.295716
H38   H     H_    0.616590 0.708227 0.883717 0.139167
H39   H     H_    0.742778 0.602432 0.846038 0.161471
H40   H     H_    0.723511 0.615441 0.940723 0.195075
C45   C     C_3   0.343472 0.776087 0.916111 -0.408143
C46   C     C_3   0.211054 0.836750 0.909048 -0.846486
H41   H     H_    0.150491 0.765784 0.879624 0.301056
H42   H     H_    0.169050 0.856540 0.962217 0.248014
H43   H     H_    0.213624 0.934683 0.878865 0.241285
H44   H     H_    0.406153 0.852201 0.939555 0.207440
H45   H     H_    0.380741 0.761139 0.861474 0.199538
C47   C     C_3   0.291066 0.268804 0.083288 -0.382385
C48   C     C_3   0.150808 0.257365 0.096362 -0.885802
H46   H     H_    0.115582 0.345437 0.128018 0.299392
H47   H     H_    0.098740 0.254822 0.045023 0.254985
H48   H     H_    0.132578 0.161984 0.126668 0.243730
H49   H     H_    0.326796 0.174463 0.057516 0.211237
H50   H     H_    0.339208 0.268084 0.135792 0.208918
C49   C     C_3   0.371564 0.779905 0.074758 -0.395397
C50   C     C_3   0.510598 0.811380 0.079957 -0.879227
H51   H     H_    0.558511 0.738544 0.117032 0.265902
H52   H     H_    0.556492 0.805023 0.026920 0.258146
H53   H     H_    0.521640 0.916079 0.101041 0.246929
H54   H     H_    0.332087 0.777942 0.129319 0.216448
H55   H     H_    0.320998 0.866873 0.048791 0.210099
C51   C     C_3   0.305052 0.259466 0.923660 -0.413072
C52   C     C_3   0.429568 0.181127 0.915954 -0.838308
H56   H     H_    0.495605 0.239725 0.882864 0.285268
H57   H     H_    0.473394 0.159868 0.968775 0.265960
H58   H     H_    0.413494 0.082731 0.888887 0.234463
H59   H     H_    0.235723 0.193573 0.950017 0.208929
H60   H     H_    0.265320 0.277774 0.869648 0.211485

loop_
_geom_bond_atom_site_label_1
_geom_bond_atom_site_label_2
_ccdc_geom_bond_type
C45   H45   S    
C42   H32   S    
C45   C46   S    
C49   H55   S    
O4    Zn2   S    
C29   N2    A    
C11   O5    A    
C12   O6    A    
C12   O7    A    
C33   H13   S    
C52   H56   S    
C33   C34   S    
C27   H1    S    
C4    C47   S    
C7    C26   S    
C16   C39   S    
C28   C29   A    
C24   O12   S    
C20   H8    S    
C52   H57   S    
O3    Zn1   S    
C49   C50   S    
C44   H38   S    
C28   N1    A    
C47   C48   S    
C46   H43   S    
C37   H22   S    
C23   C26   A    
C47   H50   S    
C51   H59   S    
C36   H15   S    
C2    C13   A    
C20   C24   A    
C38   H19   S    
O7    Zn1   S    
O8    Zn2   S    
C30   N1    A    
C1    C15   A    
C2    C16   A    
O2    Zn2   S    
C28   H2    S    
C9    O4    A    
C39   H28   S    
C5    C49   S    
C27   C30   A    
C8    C25   S    
C36   H14   S    
C4    C7    A    
C19   C32   A    
C44   H39   S    
O9    C41   S    
C13   C33   S    
C34   H10   S    
C9    O1    A    
C39   C40   S    
C10   O2    A    
C37   C38   S    
C24   C25   A    
C4    C6    A    
C3    C8    A    
C48   H48   S    
O11   C43   S    
C5    C7    A    
O10   C42   S    
C52   H58   S    
C6    C8    A    
C43   H37   S    
C17   C21   A    
C35   C36   S    
C47   H49   S    
C36   H16   S    
C19   C23   A    
C40   H24   S    
C15   C37   S    
O12   C44   S    
C10   O3    A    
C43   H36   S    
C17   H5    S    
C46   H42   S    
C40   H25   S    
C19   H7    S    
C37   H23   S    
C21   O9    S    
C35   H17   S    
C49   H54   S    
C41   H30   S    
C39   H27   S    
C13   C15   A    
C12   C31   S    
C17   C31   A    
C23   O11   S    
C18   C32   A    
C6    C51   S    
C44   H40   S    
C45   H44   S    
C21   C25   A    
C34   H9    S    
C18   C22   A    
C1    C10   S    
C3    C5    A    
C11   C32   S    
O5    Zn1   S    
C33   H12   S    
C20   C31   A    
C41   H31   S    
C14   C35   S    
C29   H3    S    
C50   H53   S    
C30   H4    S    
C48   H47   S    
C18   H6    S    
C11   O8    A    
C48   H46   S    
C27   N2    A    
O1    Zn1   S    
C38   H21   S    
C3    C45   S    
C43   H35   S    
C50   H52   S    
C50   H51   S    
C14   C16   A    
C22   O10   S    
C51   H60   S    
C46   H41   S    
C40   H26   S    
C35   H18   S    
O6    Zn2   S    
C38   H20   S    
C41   H29   S    
C22   C26   A    
C42   H34   S    
C42   H33   S    
C1    C14   A    
C51   C52   S    
C2    C9    S    
N1    Zn1   S    
N2    Zn2   S    
C34   H11   S    
