data_mof_unit_5488.cif
_audit_creation_date              2012-12-10T18:38:07-0500
_audit_creation_method            fapswitch 2.2
_symmetry_space_group_name_H-M    P1
_symmetry_Int_Tables_number       1
_space_group_crystal_system       triclinic
_cell_length_a                    15.106336
_cell_length_b                    13.872997
_cell_length_c                    10.694555
_cell_angle_alpha                 89.424485
_cell_angle_beta                  89.638609
_cell_angle_gamma                 90.136907
_cell_volume                      2241.09515039

loop_
_atom_site_label
_atom_site_type_symbol
_atom_type_description
_atom_site_fract_x
_atom_site_fract_y
_atom_site_fract_z
_atom_type_partial_charge
C1    C     C_R   0.329857 0.499879 0.500587 0.841958
C2    C     C_R   0.669900 0.500162 0.498612 0.839408
C3    C     C_R   0.543568 0.107432 0.593770 -0.275256
C4    C     C_R   0.431665 0.892280 0.443011 -0.273195
C5    C     C_R   0.456655 0.108610 0.406105 -0.275896
C6    C     C_R   0.568430 0.891719 0.556930 -0.274124
C7    C     C_R   0.543441 0.208862 0.591277 0.102993
C8    C     C_R   0.433335 0.790878 0.443101 0.099034
C9    C     C_R   0.456785 0.209996 0.408495 0.091889
C10   C     C_R   0.566725 0.790305 0.556808 0.096214
C11   C     C_R   0.500068 0.054717 0.499992 0.130192
C12   C     C_R   0.500050 0.945297 0.499995 0.130282
C13   C     C_R   0.499760 0.500570 0.259940 0.833649
C14   C     C_R   0.500243 0.499451 0.740119 0.833120
C15   C     C_3   0.499076 0.591500 0.037845 0.157311
C16   C     C_3   0.500972 0.408714 0.962458 0.159260
C17   C     C_3   0.571830 0.545932 0.956899 0.093272
C18   C     C_3   0.428195 0.454334 0.043289 0.083192
C19   C     C_3   0.427618 0.543821 0.957422 0.087847
C20   C     C_3   0.572472 0.456437 0.042812 0.095625
C21   C     C_3   0.500358 0.498296 0.875431 -0.150721
C22   C     C_3   0.499679 0.501859 0.124746 -0.151705
C23   C     C_R   0.095737 0.580906 0.453164 0.479866
C24   C     C_R   0.903884 0.431385 0.423800 0.458084
C25   C     C_R   0.904469 0.570580 0.562444 0.473192
C26   C     C_R   0.094336 0.415269 0.533730 0.464846
C27   C     C_R   0.187504 0.582636 0.463886 -0.296831
C28   C     C_R   0.811546 0.429486 0.430289 -0.304357
C29   C     C_R   0.812402 0.573101 0.556847 -0.295283
C30   C     C_R   0.186541 0.415603 0.531394 -0.288158
C31   C     C_R   0.233288 0.499594 0.499821 -0.177229
C32   C     C_R   0.766016 0.500733 0.495467 -0.164707
C33   C     C_R   0.048162 0.498586 0.493678 -0.082739
C34   C     C_R   0.950917 0.500071 0.493585 -0.090146
Cu1   Cu    Cu3+1 0.500000 0.596430 0.500000 0.949117
Cu2   Cu    Cu3+1 0.500000 0.403570 0.500000 0.944943
H1    H     H_    0.223075 0.647943 0.438675 0.168882
H2    H     H_    0.775333 0.374031 0.381679 0.175000
H3    H     H_    0.777000 0.629386 0.605617 0.163349
H4    H     H_    0.221415 0.350310 0.557334 0.185528
H5    H     H_    0.576851 0.071192 0.670027 0.128172
H6    H     H_    0.376163 0.928252 0.399703 0.129331
H7    H     H_    0.423526 0.073339 0.329743 0.129889
H8    H     H_    0.623958 0.927287 0.600200 0.130766
H9    H     H_    0.578238 0.247737 0.662985 0.116721
H10   H     H_    0.380648 0.751916 0.397708 0.108482
H11   H     H_    0.422396 0.249688 0.336214 0.115525
H12   H     H_    0.619440 0.750863 0.602073 0.113073
N1    N     N_R   0.500000 0.258690 0.500000 -0.174824
N2    N     N_R   0.500000 0.741310 0.500000 -0.170763
O1    O     O_R   0.371460 0.581430 0.500010 -0.594503
O2    O     O_R   0.628540 0.418570 0.499990 -0.586532
O3    O     O_R   0.628540 0.581430 0.499990 -0.592548
O4    O     O_R   0.371460 0.418570 0.500010 -0.587989
O5    O     O_R   0.499980 0.581420 0.316850 -0.572674
O6    O     O_R   0.500020 0.418580 0.683150 -0.580591
O7    O     O_R   0.500020 0.581420 0.683150 -0.579387
O8    O     O_R   0.499980 0.418580 0.316850 -0.589209
N3    N     N_3   0.348772 0.591793 0.910248 -0.576688
H13   H     H_    0.310524 0.611313 0.987664 0.214546
H14   H     H_    0.312230 0.540610 0.861292 0.228942
N4    N     N_3   0.651331 0.408561 0.090268 -0.593715
H15   H     H_    0.690094 0.389597 0.013107 0.206013
H16   H     H_    0.687477 0.459578 0.140093 0.223155
N5    N     N_3   0.498388 0.691397 0.078372 -0.542572
H17   H     H_    0.496736 0.734741 0.997953 0.227045
H18   H     H_    0.438726 0.702630 0.125968 0.210744
N6    N     N_3   0.501712 0.308710 0.922521 -0.551615
H19   H     H_    0.499117 0.265628 0.003174 0.224397
H20   H     H_    0.563279 0.296232 0.880832 0.202363
N7    N     N_3   0.650634 0.595561 0.910388 -0.577462
H21   H     H_    0.629613 0.652875 0.853927 0.223121
H22   H     H_    0.684140 0.547749 0.852020 0.191636
N8    N     N_3   0.349184 0.404817 0.089352 -0.574367
H23   H     H_    0.369988 0.347475 0.145861 0.220959
H24   H     H_    0.315351 0.452619 0.147390 0.200019
O9    O     O_3   0.052750 0.660934 0.405010 -0.572514
C35   C     C_3   0.045364 0.652442 0.273439 0.069915
H25   H     H_    0.986305 0.694438 0.244421 0.177342
H26   H     H_    0.033300 0.576852 0.242793 0.110161
C36   C     C_3   0.127251 0.694721 0.206536 -0.373688
H27   H     H_    0.141949 0.767344 0.244265 0.235210
H28   H     H_    0.185360 0.647568 0.222917 0.198899
C37   C     C_3   0.113747 0.703135 0.065647 -0.932746
H29   H     H_    0.100269 0.631074 0.025561 0.257067
H30   H     H_    0.174655 0.732789 0.020971 0.261592
H31   H     H_    0.058005 0.752596 0.044589 0.260085
O10   O     O_3   0.948837 0.363361 0.354226 -0.545274
C38   C     C_3   0.935514 0.379293 0.224542 0.064911
H32   H     H_    0.001473 0.387907 0.179206 0.152626
H33   H     H_    0.897742 0.446173 0.201173 0.079326
C39   C     C_3   0.888157 0.292900 0.166716 -0.367165
H34   H     H_    0.820343 0.285928 0.206406 0.212709
H35   H     H_    0.881667 0.305619 0.064434 0.172242
C40   C     C_3   0.938235 0.198785 0.188942 -0.711673
H36   H     H_    0.007529 0.205179 0.154590 0.241657
H37   H     H_    0.905031 0.139537 0.138141 0.213921
H38   H     H_    0.938719 0.180159 0.290196 0.282987
O11   O     O_3   0.947657 0.642410 0.627704 -0.571521
C41   C     C_3   0.968540 0.610414 0.750365 0.055319
H39   H     H_    0.007380 0.668820 0.794656 0.189333
H40   H     H_    0.012740 0.546658 0.748652 0.113841
C42   C     C_3   0.885603 0.590742 0.831601 -0.379712
H41   H     H_    0.838008 0.651128 0.820405 0.238450
H42   H     H_    0.853286 0.522973 0.801092 0.195477
C43   C     C_3   0.907976 0.579927 0.969811 -0.933246
H43   H     H_    0.960470 0.525105 0.983578 0.238776
H44   H     H_    0.847909 0.556858 0.022628 0.263436
H45   H     H_    0.930364 0.649991 0.007408 0.263695
O12   O     O_3   0.051359 0.329290 0.561711 -0.567793
C44   C     C_3   0.019117 0.329226 0.686153 0.060779
H46   H     H_    0.974252 0.266051 0.696591 0.179135
H47   H     H_    0.977750 0.393299 0.705986 0.109473
C45   C     C_3   0.094106 0.318775 0.781789 -0.373727
H48   H     H_    0.136560 0.256526 0.756522 0.237709
H49   H     H_    0.135549 0.385052 0.781417 0.207775
C46   C     C_3   0.057417 0.303151 0.913450 -0.924438
H50   H     H_    0.014985 0.364817 0.940274 0.244264
H51   H     H_    0.112852 0.297467 0.980817 0.267078
H52   H     H_    0.017874 0.235596 0.918190 0.261142

loop_
_geom_bond_atom_site_label_1
_geom_bond_atom_site_label_2
_ccdc_geom_bond_type
C14   O6    A    
C16   C21   S    
Cu1   O3    S    
C40   H36   S    
Cu1   Cu2   S    
C37   H31   S    
C4    C8    A    
C4    H6    S    
C45   H48   S    
C40   H38   S    
O9    C35   S    
C15   C19   S    
N8    H24   S    
C7    H9    S    
C14   C21   S    
C19   C21   S    
C37   H30   S    
C5    C11   A    
C29   C32   A    
Cu2   O8    S    
C46   H51   S    
C6    C12   A    
C30   C31   A    
C35   H26   S    
C43   H43   S    
C15   N5    S    
C1    C31   S    
C17   C20   S    
C2    C32   S    
C18   C19   S    
O12   C44   S    
C41   H39   S    
N4    H16   S    
C25   O11   S    
C15   C22   S    
C44   H46   S    
N6    H19   S    
N5    H18   S    
C16   N6    S    
C23   C27   A    
C38   H33   S    
C26   O12   S    
Cu2   O2    S    
C25   C34   A    
C5    H7    S    
N3    H13   S    
C18   N8    S    
C6    H8    S    
C41   H40   S    
C36   H28   S    
C36   H27   S    
C25   C29   A    
N3    H14   S    
N8    H23   S    
C27   C31   A    
C28   C32   A    
C9    N1    A    
C37   H29   S    
C7    N1    A    
C44   H47   S    
C46   H52   S    
N7    H22   S    
C35   H25   S    
C13   O8    A    
C23   C33   A    
Cu1   O5    S    
C39   C40   S    
C24   C34   A    
C42   C43   S    
C1    O4    A    
C5    C9    A    
N4    H15   S    
Cu2   O6    S    
C24   O10   S    
C26   C33   A    
O11   C41   S    
C28   H2    S    
C16   C20   S    
C29   H3    S    
Cu1   N2    S    
C39   H35   S    
C33   C34   S    
C30   H4    S    
C42   H42   S    
C23   O9    S    
C38   C39   S    
C1    O1    A    
C2    O2    A    
N6    H20   S    
C20   C22   S    
C17   N7    S    
C10   H12   S    
C4    C12   A    
C10   N2    A    
C8    N2    A    
C36   C37   S    
C15   C17   S    
C14   O7    A    
C3    H5    S    
C18   C22   S    
C24   C28   A    
C2    O3    A    
C6    C10   A    
C45   H49   S    
C11   C12   S    
C40   H37   S    
C9    H11   S    
C3    C11   A    
C3    C7    A    
Cu1   O7    S    
C19   N3    S    
N7    H21   S    
C46   H50   S    
Cu1   O1    S    
C35   C36   S    
C43   H44   S    
C27   H1    S    
C39   H34   S    
C13   C22   S    
C44   C45   S    
C41   C42   S    
C20   N4    S    
C8    H10   S    
C45   C46   S    
Cu2   O4    S    
O10   C38   S    
C16   C18   S    
N5    H17   S    
C42   H41   S    
C38   H32   S    
C43   H45   S    
Cu2   N1    S    
C13   O5    A    
C26   C30   A    
C17   C21   S    
