data_mof_unit_34199.cif
_audit_creation_date              2013-03-05T16:12:41-0500
_audit_creation_method            fapswitch 2.2
_symmetry_space_group_name_H-M    P1
_symmetry_Int_Tables_number       1
_space_group_crystal_system       triclinic
_cell_length_a                    24.216284
_cell_length_b                    7.1548
_cell_length_c                    22.179208
_cell_angle_alpha                 89.999191
_cell_angle_beta                  99.433206
_cell_angle_gamma                 89.998061
_cell_volume                      3790.8634982

loop_
_atom_site_label
_atom_site_type_symbol
_atom_site_description
_atom_site_fract_x
_atom_site_fract_y
_atom_site_fract_z
_atom_type_partial_charge
O1    O     O_R   0.801940 0.607920 0.199180 -0.584459
O2    O     O_R   0.198060 0.392080 0.800820 -0.583473
O3    O     O_R   0.698060 0.107920 0.300820 -0.584697
O4    O     O_R   0.301940 0.892080 0.699180 -0.583465
O5    O     O_R   0.687840 0.274940 0.181980 -0.561345
O6    O     O_R   0.312160 0.725060 0.818020 -0.561355
O7    O     O_R   0.812160 0.774940 0.318020 -0.561211
O8    O     O_R   0.187840 0.225060 0.681980 -0.561361
C1    C     C_R   0.667957 0.446621 0.166452 0.975513
C2    C     C_R   0.332012 0.553376 0.833609 0.975576
C3    C     C_R   0.832048 0.946615 0.333542 0.976033
C4    C     C_R   0.167990 0.053382 0.666389 0.975558
O9    O     O_R   0.800890 0.278000 0.191820 -0.600103
O10   O     O_R   0.199110 0.722000 0.808180 -0.598593
O11   O     O_R   0.699110 0.778000 0.308180 -0.600088
O12   O     O_R   0.300890 0.222000 0.691820 -0.598583
O13   O     O_R   0.811910 0.110860 0.310720 -0.577898
O14   O     O_R   0.188090 0.889140 0.689280 -0.577934
O15   O     O_R   0.688090 0.610860 0.189280 -0.577777
O16   O     O_R   0.311910 0.389140 0.810720 -0.577940
C5    C     C_R   0.818324 0.446779 0.178445 0.984844
C6    C     C_R   0.181880 0.553184 0.821732 0.983469
C7    C     C_R   0.681673 0.946782 0.321551 0.984642
C8    C     C_R   0.318117 0.053181 0.678264 0.983481
O17   O     O_3   0.753490 0.442410 0.289000 -0.281392
O18   O     O_3   0.246510 0.557590 0.711000 -0.280487
O19   O     O_3   0.746510 0.942410 0.211000 -0.281267
O20   O     O_3   0.253490 0.057590 0.789000 -0.280491
V1    V     V_3+5 0.749350 0.166330 0.242770 1.235279
V2    V     V_3+5 0.250650 0.833670 0.757230 1.237419
V3    V     V_3+5 0.750650 0.666330 0.257230 1.235367
V4    V     V_3+5 0.249350 0.333670 0.742770 1.237424
C9    C     C_R   0.404178 0.185202 0.554229 0.368828
C10   C     C_R   0.587251 0.805174 0.436657 0.374681
C11   C     C_R   0.095762 0.685272 0.945713 0.368881
C12   C     C_R   0.912668 0.305135 0.063257 0.374542
C13   C     C_R   0.365879 0.193649 0.595940 -0.270852
C14   C     C_R   0.627906 0.798998 0.397719 -0.262903
C15   C     C_R   0.134082 0.693689 0.904023 -0.270825
C16   C     C_R   0.872045 0.298989 0.102239 -0.263034
H1    H     H_    0.339854 0.316419 0.596682 0.182236
H2    H     H_    0.650394 0.669897 0.393798 0.177899
H3    H     H_    0.160101 0.816465 0.903278 0.182258
H4    H     H_    0.849542 0.169931 0.106166 0.178067
C17   C     C_R   0.359399 0.043427 0.635176 -0.191317
C18   C     C_R   0.639466 0.956304 0.363681 -0.187711
C19   C     C_R   0.140585 0.543443 0.864806 -0.191323
C20   C     C_R   0.860517 0.456283 0.136299 -0.187790
C21   C     C_R   0.392580 0.883400 0.632733 -0.062725
C22   C     C_R   0.609650 0.122203 0.369559 -0.070307
C23   C     C_R   0.107407 0.383415 0.867245 -0.062739
C24   C     C_R   0.890340 0.622149 0.130416 -0.070129
H5    H     H_    0.388707 0.764792 0.662057 0.172795
H6    H     H_    0.617242 0.246287 0.344187 0.166395
H7    H     H_    0.111295 0.264792 0.837932 0.172779
H8    H     H_    0.882768 0.746228 0.155800 0.166546
C25   C     C_R   0.431979 0.875134 0.593207 -0.074075
C26   C     C_R   0.568982 0.130025 0.407623 -0.070448
C27   C     C_R   0.067991 0.375167 0.906750 -0.073961
C28   C     C_R   0.930990 0.629946 0.092331 -0.070553
H9    H     H_    0.457748 0.751213 0.593404 0.178779
H10   H     H_    0.546446 0.259568 0.410738 0.196863
H11   H     H_    0.042227 0.251239 0.906553 0.178934
H12   H     H_    0.953538 0.759463 0.089221 0.196706
C29   C     C_R   0.438284 0.023849 0.553743 -0.061971
C30   C     C_R   0.557352 0.973510 0.441437 -0.068354
C31   C     C_R   0.061662 0.523904 0.946197 -0.062118
C32   C     C_R   0.942584 0.473457 0.058484 -0.068383
C33   C     C_1   0.480546 0.006995 0.514380 0.137842
C34   C     C_1   0.515647 0.991518 0.481418 0.142701
C35   C     C_1   0.019392 0.507028 0.985548 0.138061
C36   C     C_1   0.984287 0.491512 0.018503 0.142894
C37   C     C_R   0.925427 0.823301 0.387704 0.318149
C38   C     C_R   0.074780 0.177108 0.611891 0.319238
C39   C     C_R   0.574617 0.323276 0.112247 0.318209
C40   C     C_R   0.425228 0.677087 0.888087 0.319195
C41   C     C_R   0.882054 0.957504 0.382582 -0.302517
C42   C     C_R   0.118073 0.042583 0.617199 -0.303213
C43   C     C_R   0.617971 0.457515 0.117389 -0.302587
C44   C     C_R   0.381938 0.542560 0.882788 -0.303223
C45   C     C_R   0.886429 0.106742 0.424152 -0.188736
C46   C     C_R   0.113721 0.893324 0.575622 -0.187103
C47   C     C_R   0.613591 0.606768 0.075821 -0.188543
C48   C     C_R   0.386306 0.393275 0.924359 -0.187070
C49   C     C_R   0.932981 0.126401 0.471050 0.134024
C50   C     C_R   0.067233 0.873873 0.528609 0.133827
C51   C     C_R   0.567041 0.626404 0.028916 0.133855
C52   C     C_R   0.432806 0.373805 0.971359 0.133790
C53   C     C_R   0.976311 0.991273 0.476510 -0.016085
C54   C     C_R   0.023917 0.009052 0.523109 -0.016131
C55   C     C_R   0.523722 0.491246 0.023452 -0.016113
C56   C     C_R   0.476112 0.509014 0.976858 -0.016115
C57   C     C_R   0.972316 0.839033 0.435112 -0.056234
C58   C     C_R   0.027921 0.161371 0.564468 -0.056641
C59   C     C_R   0.527733 0.338978 0.064838 -0.056147
C60   C     C_R   0.472094 0.661350 0.935503 -0.056624
C61   C     C_R   0.937202 0.277912 0.512744 0.254030
C62   C     C_R   0.063051 0.722531 0.486846 0.250642
C63   C     C_R   0.562812 0.777914 0.987220 0.253903
C64   C     C_R   0.437013 0.222406 0.013106 0.250647
C65   C     C_R   0.984212 0.292751 0.558670 -0.159800
C66   C     C_R   0.016059 0.707780 0.440872 -0.154699
C67   C     C_R   0.515798 0.792742 0.941296 -0.159797
C68   C     C_R   0.484017 0.207639 0.059065 -0.154593
H13   H     H_    0.852678 0.207473 0.419531 0.172941
H14   H     H_    0.147433 0.792434 0.580326 0.173333
H15   H     H_    0.647333 0.707529 0.080452 0.173037
H16   H     H_    0.352599 0.292374 0.919660 0.173341
H17   H     H_    0.986122 0.408436 0.590333 0.188275
H18   H     H_    0.014176 0.592222 0.409164 0.189159
H19   H     H_    0.513881 0.908431 0.909633 0.188291
H20   H     H_    0.485939 0.091999 0.090751 0.189091
N1    N     N_R   0.407141 0.339964 0.513051 0.246739
O21   O     O_R   0.385290 0.500658 0.523340 -0.402537
O22   O     O_R   0.426237 0.317571 0.462010 -0.357121
N2    N     N_R   0.577543 0.640508 0.470878 0.224381
O23   O     O_R   0.617078 0.517094 0.484745 -0.417678
O24   O     O_R   0.528334 0.605406 0.484547 -0.375395
N3    N     N_R   0.092771 0.840082 0.986866 0.246733
O25   O     O_R   0.114682 0.000699 0.976612 -0.402617
O26   O     O_R   0.073568 0.817826 0.037848 -0.357472
N4    N     N_R   0.922301 0.140476 0.028983 0.224633
O27   O     O_R   0.882828 0.016728 0.015404 -0.417728
O28   O     O_R   0.971357 0.105895 0.014847 -0.375613
N5    N     N_R   0.923624 0.679154 0.342366 0.231567
O29   O     O_R   0.925024 0.723210 0.285725 -0.412850
O30   O     O_R   0.917231 0.505172 0.356793 -0.423873
N6    N     N_R   0.076585 0.321566 0.657106 0.231073
O31   O     O_R   0.083134 0.495389 0.642613 -0.425370
O32   O     O_R   0.074649 0.278005 0.713654 -0.423496
N7    N     N_R   0.576416 0.179182 0.157596 0.231499
O33   O     O_R   0.574473 0.223236 0.214138 -0.412523
O34   O     O_R   0.583065 0.005258 0.143258 -0.423784
N8    N     N_R   0.423415 0.821537 0.842866 0.231077
O35   O     O_R   0.416879 0.995371 0.857357 -0.425417
O36   O     O_R   0.425334 0.777960 0.786316 -0.423516
C69   C     C_3   0.892001 0.424760 0.509910 -0.957099
H21   H     H_    0.902359 0.532534 0.546045 0.252744
H22   H     H_    0.886481 0.497575 0.465207 0.272557
H23   H     H_    0.851930 0.358255 0.516249 0.250123
C70   C     C_3   0.108287 0.575828 0.489637 -0.946544
H24   H     H_    0.097994 0.468306 0.453410 0.253868
H25   H     H_    0.148362 0.642529 0.483414 0.251788
H26   H     H_    0.113767 0.502680 0.534278 0.270720
C71   C     C_3   0.608008 0.924764 0.990045 -0.957103
H27   H     H_    0.597649 0.032516 0.953900 0.252748
H28   H     H_    0.613521 0.997609 0.034741 0.272561
H29   H     H_    0.648082 0.858255 0.983715 0.250169
C72   C     C_3   0.391792 0.075664 0.010315 -0.946491
H30   H     H_    0.402105 0.968100 0.046527 0.253869
H31   H     H_    0.351716 0.142320 0.016564 0.251790
H32   H     H_    0.386300 0.002576 0.965664 0.270724

loop_
_geom_bond_atom_site_label_1
_geom_bond_atom_site_label_2
_geom_bond_distance
_ccdc_geom_bond_type
C26   H10   1.083499 S    
C47   C51   1.410081 A    
C21   H5    1.082555 S    
O1    C5    1.325877 A    
C51   C55   1.417297 A    
O19   V1    1.747033 S    
O13   V1    1.993853 S    
C38   C58   1.419658 A    
C11   N3    1.444610 S    
O1    V3    1.974637 S    
C44   C48   1.403617 A    
O4    V2    1.974645 S    
O15   V3    1.993882 S    
N6    O31   1.300733 A    
C10   C30   1.418165 A    
C71   H27   1.110844 S    
C39   C59   1.419846 A    
O7    C3    1.343462 A    
C69   H22   1.108537 S    
C26   C30   1.401799 A    
C22   H6    1.082848 S    
C8    C17   1.493558 S    
C67   H19   1.081559 S    
C14   H2    1.082957 S    
C70   H25   1.110201 S    
C11   C15   1.414555 A    
O4    C8    1.325456 A    
C37   N5    1.436101 S    
C65   H17   1.081558 S    
C56   C60   1.417539 A    
C21   C25   1.398747 A    
N2    O23   1.301665 A    
O2    V4    1.974637 S    
C1    C43   1.491197 S    
O3    V1    1.974645 S    
C24   C28   1.399355 A    
C27   C31   1.401917 A    
O3    C7    1.325863 A    
C1    O15   1.339415 A    
C64   C68   1.401964 A    
C38   N6    1.435798 S    
C52   C56   1.417274 A    
C58   C65   1.405626 A    
C2    O16   1.339606 A    
C4    C42   1.491684 S    
O2    C6    1.325463 A    
O14   V2    1.993856 S    
C37   C57   1.419946 A    
C3    C41   1.491234 S    
C16   H4    1.082947 S    
C23   H7    1.082557 S    
C32   C36   1.454788 S    
C5    C20   1.495164 S    
O11   C7    1.328748 A    
C6    C19   1.493554 S    
C63   C71   1.511077 S    
O12   C8    1.328331 A    
C7    C18   1.495161 S    
C53   C57   1.417661 A    
C72   H31   1.110207 S    
N4    O28   1.301081 A    
O10   V2    1.983802 S    
C61   C69   1.511078 S    
C71   H28   1.108530 S    
C39   N7    1.435973 S    
C54   C58   1.417540 A    
O5    V1    1.995501 S    
N3    O26   1.300975 A    
C15   H3    1.082769 S    
C69   H23   1.110207 S    
C45   H13   1.081882 S    
O7    V3    1.995555 S    
C9    C29   1.420528 A    
C22   C26   1.399384 A    
C40   C44   1.413828 A    
C12   C16   1.412797 A    
C63   C67   1.401702 A    
C50   C54   1.417259 A    
C72   H32   1.108484 S    
C55   C56   1.422247 A    
C68   H20   1.081606 S    
C40   N8    1.435806 S    
O18   V4    1.747009 S    
C19   C23   1.404884 A    
C46   C50   1.410393 A    
C9    C13   1.414540 A    
O8    V4    1.995554 S    
C12   N4    1.441649 S    
O5    C1    1.343453 A    
C42   C46   1.403597 A    
C11   C31   1.420555 A    
O8    C4    1.343497 A    
C17   C21   1.404892 A    
O9    C5    1.328740 A    
O11   V3    1.983779 S    
C52   C64   1.417793 A    
N2    O24   1.301324 A    
O6    V2    1.995496 S    
C62   C70   1.511041 S    
N5    O29   1.301002 A    
C66   H18   1.081553 S    
C23   C27   1.398732 A    
C13   C17   1.407791 A    
N7    O33   1.301378 A    
C71   H29   1.110212 S    
C59   C68   1.405621 A    
C15   C19   1.407792 A    
N1    O21   1.301346 A    
O16   V4    1.993885 S    
O9    V1    1.983800 S    
C16   C20   1.408635 A    
C3    O13   1.339413 A    
C49   C53   1.417280 A    
C10   C14   1.412729 A    
C9    N1    1.444575 S    
O17   V3    1.747010 S    
C48   C52   1.410404 A    
C25   C29   1.401917 A    
N7    O34   1.300901 A    
N6    O32   1.300598 A    
C57   C66   1.405654 A    
O6    C2    1.343507 A    
N8    O36   1.300602 A    
N3    O25   1.301333 A    
C12   C32   1.418309 A    
C25   H9    1.083805 S    
N8    O35   1.300743 A    
C70   H26   1.108491 S    
C64   C72   1.511038 S    
O12   V4    1.983780 S    
C69   H21   1.110836 S    
C18   C22   1.406429 A    
C27   H11   1.083805 S    
C28   H12   1.083510 S    
O10   C6    1.328332 A    
C2    C44   1.491703 S    
C53   C54   1.422264 A    
C35   C36   1.213657 T    
C62   C66   1.401952 A    
C70   H24   1.110817 S    
C40   C60   1.419662 A    
C43   C47   1.403389 A    
C30   C34   1.454791 S    
C39   C43   1.413698 A    
C29   C33   1.455002 S    
O20   V2    1.747032 S    
C48   H16   1.081884 S    
C47   H15   1.081885 S    
C31   C35   1.454993 S    
C46   H14   1.081882 S    
C13   H1    1.082773 S    
C33   C34   1.213656 T    
C50   C62   1.417755 A    
C45   C49   1.410037 A    
C14   C18   1.408651 A    
C49   C61   1.417648 A    
C55   C59   1.417624 A    
C51   C63   1.417647 A    
C20   C24   1.406378 A    
C28   C32   1.401811 A    
C41   C45   1.403373 A    
C38   C42   1.413817 A    
C60   C67   1.405649 A    
C4    O14   1.339606 A    
N5    O30   1.300820 A    
C37   C41   1.413818 A    
N4    O27   1.301559 A    
C72   H30   1.110826 S    
C10   N2    1.441477 S    
C61   C65   1.401692 A    
C24   H8    1.082841 S    
N1    O22   1.301016 A    
