data_mof_unit_50580.cif
_audit_creation_date              2012-12-11T17:24:59-0500
_audit_creation_method            fapswitch 2.2
_symmetry_space_group_name_H-M    P1
_symmetry_Int_Tables_number       1
_space_group_crystal_system       triclinic
_cell_length_a                    6.952477
_cell_length_b                    20.553012
_cell_length_c                    24.412708
_cell_angle_alpha                 90.301325
_cell_angle_beta                  90.527456
_cell_angle_gamma                 89.524918
_cell_volume                      3488.12328847

loop_
_atom_site_label
_atom_site_type_symbol
_atom_type_description
_atom_site_fract_x
_atom_site_fract_y
_atom_site_fract_z
_atom_type_partial_charge
O1    O     O_R   0.507280 0.423750 0.460310 -0.528401
O2    O     O_R   0.171030 0.555650 0.437630 -0.524870
O3    O     O_R   0.004080 0.576250 0.539690 -0.531948
C1    C     C_R   0.338961 0.575797 0.421897 0.752995
O4    O     O_R   0.177330 0.422980 0.453960 -0.535879
O5    O     O_R   0.010420 0.442640 0.556140 -0.532274
C2    C     C_R   0.346004 0.398885 0.443476 0.873857
O6    O     O_R   0.500930 0.557360 0.443860 -0.535881
O7    O     O_3   0.340310 0.506600 0.533500 -0.384670
V1    V     V_3+5 0.064140 0.498780 0.493780 1.576137
O8    O     O_R   0.680890 0.444350 0.562370 -0.544757
C3    C     C_R   0.850612 0.424439 0.578156 0.727851
O9    O     O_R   0.674590 0.577020 0.546040 -0.544181
C4    C     C_R   0.842671 0.600904 0.557021 0.713712
V2    V     V_3+5 0.564550 0.501220 0.506220 1.538173
O10   O     O_3   0.838250 0.493400 0.466500 -0.360084
C5    C     C_R   0.972926 0.838703 0.909671 -0.143343
C6    C     C_R   0.843823 0.663738 0.587230 -0.098250
C7    C     C_R   0.013908 0.721820 0.904483 0.661394
C8    C     C_R   0.023134 0.779779 0.934198 -0.231043
C9    C     C_R   0.918507 0.839554 0.853984 -0.209435
C10   C     C_R   0.907897 0.780936 0.822391 0.032421
C11   C     C_R   0.955133 0.721776 0.849077 -0.034208
C12   C     C_R   0.853430 0.778947 0.765432 0.068043
C13   C     C_R   0.853664 0.718606 0.735798 0.005664
C14   C     C_R   0.870131 0.660076 0.766768 -0.058926
C15   C     C_R   0.932748 0.662654 0.821381 -0.143580
C16   C     C_R   0.785689 0.834732 0.738200 -0.194391
C17   C     C_R   0.732025 0.833598 0.682963 -0.041244
C18   C     C_R   0.772788 0.777917 0.650065 0.025557
C19   C     C_R   0.833333 0.719519 0.676855 0.115110
C20   C     C_R   0.759962 0.779116 0.591382 -0.180506
C21   C     C_R   0.786564 0.721219 0.560609 -0.077428
C22   C     C_R   0.879831 0.664661 0.643710 -0.160091
H1    H     H_    0.951505 0.617565 0.843758 0.219944
H2    H     H_    0.944223 0.621386 0.660946 0.110464
H3    H     H_    0.067260 0.778595 0.976877 0.151359
H4    H     H_    0.889440 0.886719 0.836555 0.119821
H5    H     H_    0.756893 0.879169 0.760385 0.141173
H6    H     H_    0.655458 0.236957 0.815617 0.139281
C23   C     C_R   0.751086 0.286616 0.743843 -0.076881
H7    H     H_    0.618759 0.314497 0.739985 0.127084
C24   C     C_R   0.898950 0.294777 0.706040 0.103210
C25   C     C_R   0.068669 0.257990 0.711904 -0.155214
H8    H     H_    0.182966 0.264927 0.682646 0.171272
C26   C     C_R   0.093341 0.213076 0.755277 -0.020847
C27   C     C_R   0.941591 0.205099 0.793324 0.052255
C28   C     C_R   0.772368 0.242315 0.786991 -0.124306
C29   C     C_1   0.877929 0.340983 0.661272 0.009075
C30   C     C_1   0.952687 0.158886 0.838511 0.033036
C31   C     C_1   0.962005 0.120677 0.876341 -0.130872
C32   C     C_1   0.863461 0.379259 0.623608 -0.123555
H9    H     H_    0.667946 0.735027 0.317908 0.201614
C33   C     C_R   0.572840 0.786095 0.245758 0.703533
C34   C     C_R   0.425147 0.795758 0.206778 -0.180628
C35   C     C_R   0.251507 0.759922 0.211711 -0.222062
C36   C     C_R   0.232653 0.715108 0.255421 0.659426
C37   C     C_R   0.382090 0.705735 0.293797 -0.118628
C38   C     C_R   0.551497 0.741525 0.288586 -0.247183
C39   C     C_1   0.455731 0.841576 0.161861 0.174468
C40   C     C_1   0.362015 0.659603 0.338770 0.143942
C41   C     C_1   0.348330 0.621257 0.376428 -0.100402
C42   C     C_1   0.474592 0.879527 0.124104 -0.095045
C43   C     C_R   0.473420 0.162039 0.088651 -0.096419
C44   C     C_R   0.351558 0.337935 0.411324 -0.275175
C45   C     C_R   0.527026 0.278554 0.092900 -0.007898
C46   C     C_R   0.523477 0.219959 0.063444 -0.219543
C47   C     C_R   0.436709 0.161475 0.144923 -0.090688
C48   C     C_R   0.451319 0.218953 0.177306 0.058362
C49   C     C_R   0.478848 0.278941 0.149496 -0.074668
C50   C     C_R   0.431209 0.219219 0.235950 -0.178828
C51   C     C_R   0.411893 0.279706 0.264742 -0.070400
C52   C     C_R   0.405763 0.337249 0.233794 -0.093587
C53   C     C_R   0.444549 0.337426 0.178134 0.615737
C54   C     C_R   0.436388 0.161531 0.267259 0.566435
C55   C     C_R   0.389934 0.162171 0.322545 0.649911
C56   C     C_R   0.352396 0.220946 0.350527 -0.307953
C57   C     C_R   0.387696 0.280623 0.323175 -0.060321
C58   C     C_R   0.292768 0.221643 0.406176 -0.113113
C59   C     C_R   0.291409 0.280414 0.435621 0.484580
C60   C     C_R   0.401540 0.338292 0.355795 0.530435
H10   H     H_    0.561955 0.219210 0.020475 0.136220
H11   H     H_    0.391441 0.115829 0.161769 0.186437
H12   H     H_    0.362789 0.383278 0.251253 0.229895
O11   O     O_R   0.323320 0.942780 0.056240 -0.528631
O12   O     O_R   0.647300 0.077050 0.046060 -0.534290
O13   O     O_R   0.813840 0.057330 0.943840 -0.543163
C61   C     C_R   0.478711 0.101136 0.056642 0.715451
O14   O     O_R   0.653250 0.944380 0.062400 -0.526080
O15   O     O_R   0.819830 0.923720 0.960300 -0.537792
C62   C     C_R   0.485191 0.924523 0.078335 0.722676
O16   O     O_R   0.317330 0.076390 0.039790 -0.537751
O17   O     O_3   0.483830 0.993470 0.966560 -0.374115
V3    V     V_3+5 0.760140 0.001210 0.006210 1.499606
O18   O     O_R   0.149290 0.922840 0.953850 -0.539725
C63   C     C_R   0.980691 0.899252 0.942612 0.728935
O19   O     O_R   0.143340 0.055500 0.937510 -0.531305
C64   C     C_R   0.973703 0.075514 0.921810 0.709112
V4    V     V_3+5 0.259690 0.998600 0.993650 1.488844
O20   O     O_3   0.986130 0.006520 0.033440 -0.358729
C65   C     C_2   0.750855 0.841620 0.560969 0.892153
O21   O     O_2   0.890239 0.877349 0.561702 -0.485704
O22   O     O_R   0.586316 0.860449 0.531589 -0.590067
H13   H     H_    0.474809 0.829784 0.537000 0.324190
C66   C     C_2   0.278326 0.175937 0.759347 0.774939
O23   O     O_2   0.385607 0.173139 0.719936 -0.529291
O24   O     O_R   0.332808 0.144949 0.807998 -0.668236
H14   H     H_    0.461862 0.121870 0.805212 0.299133
F1    F     F_    0.738734 0.820155 0.242471 -0.628382
C67   C     C_2   0.087952 0.768386 0.172295 0.957482
O25   O     O_2   0.064861 0.819649 0.147805 -0.555489
O26   O     O_R   0.957525 0.717803 0.163705 -0.594333
H15   H     H_    0.851459 0.729727 0.136694 0.304841
F2    F     F_    0.066857 0.681453 0.261618 -0.620655
F3    F     F_    0.429076 0.395264 0.151796 -0.629106
F4    F     F_    0.475356 0.394226 0.335858 -0.691628
F5    F     F_    0.230770 0.281841 0.488451 -0.653799
F6    F     F_    0.400948 0.104671 0.349599 -0.590632
C68   C     C_2   0.596569 0.336956 0.063885 0.908470
O27   O     O_2   0.544117 0.347517 0.016778 -0.539737
O28   O     O_R   0.729285 0.378196 0.089454 -0.608947
H16   H     H_    0.767851 0.415736 0.065237 0.340936
F7    F     F_    0.499904 0.104037 0.246443 -0.631689
C69   C     C_2   0.216133 0.163072 0.433502 1.032355
O29   O     O_2   0.265655 0.150106 0.480421 -0.482559
O30   O     O_R   0.082284 0.123907 0.406116 -0.617040
H17   H     H_    0.039274 0.085841 0.429098 0.345313
C70   C     C_2   0.768334 0.721101 0.499811 0.760064
O31   O     O_2   0.903660 0.702791 0.471851 -0.542675
O32   O     O_R   0.595530 0.740054 0.474734 -0.653837
H18   H     H_    0.600907 0.737224 0.433300 0.309142
C71   C     C_2   0.615101 0.889600 0.663490 0.802964
O33   O     O_2   0.671331 0.945172 0.671146 -0.511684
O34   O     O_R   0.435842 0.878665 0.638898 -0.654277
H19   H     H_    0.367744 0.920557 0.628135 0.345519
F8    F     F_    0.060412 0.665392 0.930331 -0.652451
C72   C     C_2   0.789525 0.597018 0.747763 0.758888
O35   O     O_2   0.867147 0.545765 0.761040 -0.547937
O36   O     O_R   0.620990 0.596238 0.716014 -0.656160
H20   H     H_    0.580227 0.550527 0.705619 0.296604

loop_
_geom_bond_atom_site_label_1
_geom_bond_atom_site_label_2
_ccdc_geom_bond_type
C13   C19   A    
C58   C69   S    
C50   C54   A    
C34   C35   A    
O13   V3    S    
O17   V3    S    
C52   C53   A    
C4    C6    S    
O2    C1    A    
O18   C63   A    
C20   C65   S    
C1    O6    A    
C14   C72   S    
C70   O31   D    
O19   C64   A    
H9    C38   S    
C56   C57   A    
C66   O24   S    
C14   C15   A    
C65   O21   D    
C39   C42   T    
C54   F7    S    
C43   C47   A    
C16   C17   A    
O5    C3    A    
C18   C19   A    
O18   V4    S    
C17   C71   S    
V2    O10   S    
C26   C66   S    
C1    C41   S    
C5    C8    A    
C35   C36   A    
C23   H7    S    
O14   V3    S    
C48   C50   A    
C67   O25   D    
C51   C57   A    
O12   V3    S    
O9    C4    A    
O19   V4    S    
C33   C34   A    
O8    V2    S    
C9    H4    S    
C61   O16   A    
C47   C48   A    
C49   C53   A    
C27   C28   A    
O24   H14   S    
O1    V2    S    
C11   C15   A    
O14   C62   A    
O7    V1    S    
O17   V4    S    
C52   H12   S    
C22   H2    S    
O13   C64   A    
C37   C40   S    
C56   C58   A    
C45   C46   A    
C65   O22   S    
C44   C59   A    
C34   C39   S    
C23   C24   A    
C48   C49   A    
C35   C67   S    
O26   H15   S    
C3    C32   S    
C25   C26   A    
O15   V3    S    
C27   C30   S    
C33   C38   A    
C68   O28   S    
O11   C62   A    
O36   H20   S    
C43   C46   A    
C12   C13   A    
O4    C2    A    
C24   C29   S    
C16   H5    S    
C15   H1    S    
C7    F8    S    
C21   C70   S    
C5    C9    A    
C33   F1    S    
C7    C11   A    
C54   C55   A    
C17   C18   A    
O11   V4    S    
C2    C44   S    
C72   O36   S    
C44   C60   A    
V4    O20   S    
V3    O20   S    
O8    C3    A    
C29   C32   T    
C30   C31   T    
C19   C22   A    
C5    C63   S    
C26   C27   A    
C55   C56   A    
C6    C22   A    
O28   H16   S    
O34   H19   S    
O3    C4    A    
C55   F6    S    
O6    V2    S    
C45   C68   S    
O9    V2    S    
C24   C25   A    
C10   C12   A    
C37   C38   A    
O2    V1    S    
C25   H8    S    
C69   O30   S    
C66   O23   D    
H6    C28   S    
C59   F5    S    
O1    C2    A    
C47   H11   S    
C12   C16   A    
C51   C52   A    
C70   O32   S    
O5    V1    S    
C68   O27   D    
O15   C63   A    
C36   F2    S    
C72   O35   D    
C20   C21   A    
C7    C8    A    
O32   H18   S    
C13   C14   A    
O4    V1    S    
O3    V1    S    
V1    O10   S    
C18   C20   A    
C8    H3    S    
C57   C60   A    
C36   C37   A    
C45   C49   A    
C31   C64   S    
O30   H17   S    
C53   F3    S    
C60   F4    S    
C23   C28   A    
C71   O33   D    
O12   C61   A    
O7    V2    S    
C40   C41   T    
C6    C21   A    
C67   O26   S    
C58   C59   A    
C50   C51   A    
C46   H10   S    
C71   O34   S    
C42   C62   S    
O22   H13   S    
C10   C11   A    
C9    C10   A    
C43   C61   S    
O16   V4    S    
C69   O29   D    
