data_mof_unit_66617.cif
_audit_creation_date              2013-03-05T15:47:57-0500
_audit_creation_method            fapswitch 2.2
_symmetry_space_group_name_H-M    P1
_symmetry_Int_Tables_number       1
_space_group_crystal_system       triclinic
_cell_length_a                    27.183049
_cell_length_b                    7.127018
_cell_length_c                    12.640956
_cell_angle_alpha                 89.971961
_cell_angle_beta                  107.162886
_cell_angle_gamma                 89.972556
_cell_volume                      2339.92923

loop_
_atom_site_label
_atom_site_type_symbol
_atom_site_description
_atom_site_fract_x
_atom_site_fract_y
_atom_site_fract_z
_atom_type_partial_charge
O1    O     O_R   0.437360 0.505910 0.042120 -0.612238
O2    O     O_R   0.562640 0.005910 0.957880 -0.612411
O3    O     O_R   0.542480 0.176660 0.157100 -0.590919
O4    O     O_R   0.457520 0.676660 0.842900 -0.590819
C1    C     C_R   0.556573 0.346493 0.197453 0.961711
C2    C     C_R   0.443438 0.846630 0.802535 0.961691
O5    O     O_R   0.436520 0.176250 0.054800 -0.581675
O6    O     O_R   0.563480 0.676250 0.945200 -0.582486
O7    O     O_R   0.455920 0.005040 0.854840 -0.593224
O8    O     O_R   0.544080 0.505040 0.145160 -0.593278
C3    C     C_R   0.419276 0.345061 0.064969 0.967807
C4    C     C_R   0.580707 0.845028 0.934965 0.968562
O9    O     O_3   0.506490 0.338900 0.934520 -0.285286
O10   O     O_3   0.493510 0.838900 0.065480 -0.284980
V1    V     V_3+5 0.498800 0.064400 0.012150 1.243737
V2    V     V_3+5 0.501200 0.564400 0.987850 1.243307
C5    C     C_R   0.664884 0.066497 0.791981 0.425970
C6    C     C_R   0.335006 0.566145 0.207923 0.429747
H1    H     H_    0.584979 0.076779 0.777881 0.163786
H2    H     H_    0.414917 0.576374 0.222082 0.163583
C7    C     C_R   0.623960 0.862205 0.890789 -0.142090
C8    C     C_R   0.375982 0.362287 0.108995 -0.146883
C9    C     C_R   0.864166 0.738273 0.164649 0.573307
C10   C     C_R   0.135879 0.238193 0.835225 0.529899
C11   C     C_R   0.818832 0.684573 0.185565 -0.258728
C12   C     C_R   0.181276 0.185014 0.814284 -0.218566
C13   C     C_R   0.771150 0.744428 0.119579 0.497650
C14   C     C_R   0.228873 0.245561 0.880185 0.531798
C15   C     C_R   0.766414 0.814438 0.011109 -0.061038
C16   C     C_R   0.233551 0.314856 0.988685 -0.087307
C17   C     C_R   0.812720 0.861442 0.982313 -0.129915
C18   C     C_R   0.187235 0.361214 0.017572 -0.170146
C19   C     C_R   0.717073 0.853025 0.933585 0.098979
C20   C     C_R   0.282873 0.353266 0.066182 0.107657
C21   C     C_R   0.713294 0.982568 0.847055 -0.245647
C22   C     C_R   0.286619 0.482373 0.152809 -0.251025
C23   C     C_R   0.757162 0.018978 0.815508 0.240455
C24   C     C_R   0.242738 0.518547 0.184370 0.227752
C25   C     C_R   0.805076 0.938635 0.873157 0.343046
C26   C     C_R   0.194856 0.438175 0.126731 0.350993
C27   C     C_R   0.670832 0.773857 0.941571 -0.013139
C28   C     C_R   0.329123 0.274268 0.058037 -0.010411
C29   C     C_R   0.621187 0.004771 0.814953 -0.167738
C30   C     C_R   0.378722 0.504537 0.184927 -0.165079
C31   C     C_R   0.862708 0.836265 0.066135 -0.318988
C32   C     C_R   0.137272 0.336002 0.933736 -0.322002
H3    H     H_    0.671058 0.652981 0.992406 0.172172
H4    H     H_    0.328895 0.153743 0.006983 0.175481
H5    H     H_    0.821246 0.623730 0.265091 0.210980
H6    H     H_    0.178895 0.125725 0.734454 0.198337
C33   C     C_R   0.090807 0.864914 0.311142 -0.065267
C34   C     C_R   0.909293 0.365566 0.688832 -0.074860
C35   C     C_R   0.408213 0.872950 0.690095 -0.169497
C36   C     C_R   0.591793 0.372485 0.309884 -0.169767
C37   C     C_R   0.107554 0.761672 0.499235 0.040297
C38   C     C_R   0.892950 0.264054 0.500670 0.016644
C39   C     C_R   0.075432 0.770208 0.391859 -0.149066
C40   C     C_R   0.924986 0.272624 0.608048 -0.163548
C41   C     C_R   0.139353 0.952752 0.338631 -0.035151
C42   C     C_R   0.860631 0.452734 0.661223 -0.030036
C43   C     C_R   0.174923 0.931050 0.445693 0.047259
C44   C     C_R   0.825152 0.430864 0.554087 0.061478
C45   C     C_R   0.157999 0.834972 0.527125 -0.030013
C46   C     C_R   0.842225 0.334928 0.472861 -0.002681
C47   C     C_R   0.227839 0.986253 0.471671 0.099108
C48   C     C_R   0.772195 0.485599 0.527965 0.097642
C49   C     C_R   0.264056 0.914428 0.568910 0.070628
C50   C     C_R   0.735997 0.412751 0.431085 0.090671
C51   C     C_R   0.245014 0.833850 0.650374 -0.204358
C52   C     C_R   0.755083 0.330342 0.350166 -0.219346
C53   C     C_R   0.192673 0.805626 0.632915 0.472556
C54   C     C_R   0.807464 0.302821 0.367524 0.428758
C55   C     C_R   0.246074 0.106772 0.403394 -0.046061
C56   C     C_R   0.753944 0.606892 0.595801 -0.047644
C57   C     C_R   0.298533 0.138674 0.423076 0.002164
C58   C     C_R   0.701492 0.638832 0.576129 0.000724
C59   C     C_R   0.335219 0.046668 0.509488 -0.031481
C60   C     C_R   0.664821 0.546340 0.490075 -0.032560
C61   C     C_R   0.318105 0.931543 0.583572 0.174711
C62   C     C_R   0.681929 0.430397 0.416331 0.171373
C63   C     C_R   0.388747 0.073559 0.526597 0.409798
C64   C     C_R   0.611302 0.573646 0.472963 0.410324
C65   C     C_R   0.424269 0.988846 0.617426 -0.181295
C66   C     C_R   0.575764 0.488793 0.382364 -0.180906
C67   C     C_R   0.355652 0.840028 0.670946 -0.126735
C68   C     C_R   0.644343 0.338915 0.329120 -0.125451
H7    H     H_    0.345297 0.750120 0.729420 0.133351
H8    H     H_    0.654631 0.248707 0.270726 0.132946
H9    H     H_    0.464914 0.019828 0.634354 0.169553
H10   H     H_    0.535127 0.520131 0.365388 0.169569
H11   H     H_    0.309940 0.234367 0.368253 0.166267
H12   H     H_    0.690084 0.735128 0.630627 0.166324
H13   H     H_    0.092704 0.687977 0.557758 0.205049
H14   H     H_    0.908164 0.192219 0.442119 0.222122
H15   H     H_    0.038384 0.701995 0.372059 0.192233
H16   H     H_    0.962205 0.205694 0.627767 0.212857
H17   H     H_    0.150000 0.022334 0.272761 0.146322
H18   H     H_    0.849817 0.521663 0.727065 0.145130
H19   H     H_    0.270201 0.795717 0.730297 0.231450
H20   H     H_    0.729908 0.289945 0.270747 0.218087
H21   H     H_    0.220283 0.177701 0.333434 0.118159
H22   H     H_    0.779735 0.678487 0.665396 0.117123
O11   O     O_R   0.955980 0.206520 0.854760 -0.518349
O12   O     O_R   0.044020 0.706520 0.145240 -0.518668
O13   O     O_R   0.063490 0.536770 0.945200 -0.541375
O14   O     O_R   0.936510 0.036770 0.054800 -0.535146
C69   C     C_R   0.085276 0.366506 0.950157 1.168541
C70   C     C_R   0.914688 0.866610 0.049635 1.160176
O15   O     O_R   0.957530 0.536190 0.842880 -0.594302
O16   O     O_R   0.042470 0.036190 0.157120 -0.594090
O17   O     O_R   0.937350 0.707210 0.042130 -0.599172
O18   O     O_R   0.062650 0.207210 0.957870 -0.598960
C71   C     C_R   0.943693 0.368956 0.802607 1.039300
C72   C     C_R   0.056309 0.868792 0.197412 1.036884
O19   O     O_3   0.993540 0.373870 0.065440 -0.246488
O20   O     O_3   0.006460 0.873870 0.934560 -0.248260
V3    V     V_3+5 0.001200 0.648440 0.987860 1.406240
V4    V     V_3+5 0.998800 0.148440 0.012140 1.409740
N1    N     N_R   0.407880 0.192187 0.455686 0.234729
O21   O     O_R   0.444966 0.309924 0.498646 -0.357883
O22   O     O_R   0.395414 0.158631 0.350000 -0.358835
N2    N     N_R   0.592196 0.692905 0.543609 0.234775
O23   O     O_R   0.555110 0.810721 0.500392 -0.357906
O24   O     O_R   0.604702 0.659956 0.649389 -0.358927
N3    N     N_R   0.753965 0.147723 0.727042 0.288990
O25   O     O_R   0.772755 0.315211 0.750460 -0.360131
O26   O     O_R   0.731010 0.100901 0.624806 -0.381007
N4    N     N_R   0.245874 0.647203 0.272775 0.290736
O27   O     O_R   0.227030 0.814704 0.249261 -0.361461
O28   O     O_R   0.268817 0.600290 0.375047 -0.378624
N5    N     N_R   0.659525 0.231363 0.725053 0.258177
O29   O     O_R   0.677055 0.389861 0.772231 -0.367020
O30   O     O_R   0.625666 0.233188 0.627751 -0.348529
N6    N     N_R   0.340318 0.730766 0.274922 0.258014
O31   O     O_R   0.322780 0.889435 0.227792 -0.364573
O32   O     O_R   0.374140 0.732229 0.372272 -0.349098
S1    S     S_3+6 0.922295 0.708366 0.275041 -0.011587
O33   O     O_2   0.953371 0.551310 0.247691 -0.274800
O34   O     O_2   0.952971 0.887049 0.290650 -0.329081
O35   O     O_3   0.909528 0.657298 0.394197 -0.517779
H23   H     H_    0.943688 0.642378 0.449712 0.376673
S2    S     S_3+6 0.077754 0.209123 0.724693 -0.008675
O36   O     O_2   0.045905 0.055734 0.753024 -0.240232
O37   O     O_2   0.047495 0.389087 0.707647 -0.352935
O38   O     O_3   0.089967 0.151311 0.605770 -0.515585
H24   H     H_    0.091271 0.271601 0.567455 0.372135
S3    S     S_3+6 0.724663 0.780823 0.192985 -0.050702
O39   O     O_2   0.691301 0.610028 0.183496 -0.396997
O40   O     O_2   0.751567 0.814045 0.313690 -0.252956
O41   O     O_3   0.687620 0.969117 0.143805 -0.524130
H25   H     H_    0.656654 0.952638 0.168924 0.352462
S4    S     S_3+6 0.275169 0.285083 0.806677 -0.048008
O42   O     O_2   0.309084 0.115780 0.815671 -0.385677
O43   O     O_2   0.248148 0.318885 0.686055 -0.263709
O44   O     O_3   0.311588 0.474358 0.856399 -0.521126
H26   H     H_    0.343086 0.457955 0.833197 0.351437
S5    S     S_3+6 0.854138 0.992037 0.814152 -0.065543
O45   O     O_2   0.870601 0.177517 0.867993 -0.302788
O46   O     O_2   0.897392 0.853287 0.837331 -0.357371
O47   O     O_3   0.833606 0.020738 0.675682 -0.498903
H27   H     H_    0.842828 0.903682 0.643844 0.354198
S6    S     S_3+6 0.145780 0.491562 0.185684 -0.068743
O48   O     O_2   0.129344 0.677210 0.131834 -0.310224
O49   O     O_2   0.102518 0.353051 0.162462 -0.356600
O50   O     O_3   0.166291 0.519906 0.324158 -0.501520
H28   H     H_    0.157203 0.402583 0.355977 0.346900
S7    S     S_3+6 0.173191 0.703432 0.740311 -0.040881
O51   O     O_2   0.127408 0.803652 0.756570 -0.268896
O52   O     O_2   0.157438 0.509408 0.701184 -0.306754
O53   O     O_3   0.221184 0.699019 0.860209 -0.509533
H29   H     H_    0.205073 0.733478 0.918288 0.364821
S8    S     S_3+6 0.826990 0.196253 0.261389 -0.026840
O54   O     O_2   0.871904 0.296626 0.241258 -0.266186
O55   O     O_2   0.844002 0.004756 0.304453 -0.245244
O56   O     O_3   0.778920 0.182604 0.142183 -0.492396
H30   H     H_    0.774840 0.311738 0.111726 0.338933

loop_
_geom_bond_atom_site_label_1
_geom_bond_atom_site_label_2
_geom_bond_distance
_ccdc_geom_bond_type
C50   C62   1.431346 A    
C48   C50   1.423881 A    
S5    O45   1.494202 D    
C9    C31   1.417785 A    
C5    N5    1.429589 S    
C69   O18   1.308679 A    
S3    O39   1.501850 D    
O1    C3    1.312736 A    
C37   H13   1.078039 S    
O2    C4    1.312846 A    
N4    O27   1.298099 A    
O16   V4    2.030175 S    
C2    O7    1.302154 A    
C36   C66   1.397301 A    
O38   H24   0.990240 S    
O15   V3    2.031329 S    
S7    O52   1.488759 D    
C34   C71   1.466231 S    
C38   H14   1.077865 S    
O13   C69   1.343314 A    
O50   H28   0.990195 S    
C56   C58   1.391735 A    
C54   S8    1.754832 S    
S3    O40   1.503653 D    
C58   C60   1.404601 A    
S6    O48   1.494222 D    
C42   H18   1.079409 S    
C12   H6    1.078424 S    
O10   V1    1.764773 S    
C68   H8    1.076358 S    
C13   C15   1.428525 A    
O53   H29   0.990439 S    
C48   C56   1.407174 A    
C15   C19   1.434766 A    
C47   C55   1.407328 A    
O20   V3    1.764008 S    
C42   C44   1.420576 A    
C51   C53   1.388687 A    
C40   H16   1.078830 S    
C62   C68   1.421581 A    
C34   C42   1.408558 A    
C63   C65   1.399875 A    
C7    C29   1.383257 A    
C8    C30   1.383304 A    
C10   S2    1.785875 S    
S8    O55   1.490956 D    
C47   C49   1.423700 A    
C20   C28   1.408514 A    
C44   C46   1.420847 A    
C38   C46   1.411752 A    
C33   C39   1.386578 A    
C38   C40   1.380950 A    
O16   C72   1.307745 A    
C23   N3    1.428867 S    
C31   C70   1.503649 S    
O15   C71   1.307375 A    
C56   H22   1.078241 S    
O5    V1    2.080877 S    
S5    O46   1.497154 D    
C24   C26   1.412287 A    
C53   S7    1.754332 S    
C25   S5    1.751333 S    
C35   C67   1.396886 A    
C55   C57   1.392144 A    
S2    O38   1.683714 S    
O13   V3    2.080689 S    
C66   H10   1.084426 S    
H2    C30   1.085718 S    
H1    C29   1.085721 S    
S7    O53   1.683162 S    
S6    O49   1.497083 D    
C67   H7    1.076426 S    
C65   H9    1.084416 S    
S1    O35   1.682204 S    
C41   C43   1.420477 A    
C33   C72   1.466726 S    
C44   C48   1.432571 A    
C1    C36   1.472485 S    
S3    O41   1.682191 S    
C49   C61   1.430844 A    
O35   H23   0.990607 S    
O4    C2    1.325897 A    
C7    C27   1.395718 A    
S7    O51   1.500514 D    
C36   C68   1.396980 A    
C16   C20   1.434448 A    
N6    O32   1.300789 A    
O11   C71   1.324893 A    
O19   V3    2.225634 S    
C4    C7    1.448021 S    
C37   C45   1.411769 A    
C49   C51   1.404461 A    
O4    V2    2.030013 S    
O5    C3    1.311075 A    
C5    C29   1.375771 A    
C26   S6    1.751075 S    
C6    C30   1.375829 A    
O18   V4    2.088455 S    
S6    O50   1.685278 S    
S1    O34   1.503387 D    
C60   C64   1.419533 A    
O56   H30   0.990917 S    
C17   C25   1.442125 A    
S4    O44   1.682175 S    
C59   C63   1.419600 A    
O6    C4    1.311151 A    
O19   V4    1.764484 S    
C32   C69   1.503669 S    
C43   C45   1.421003 A    
C27   H3    1.073435 S    
C59   C61   1.422454 A    
O1    V2    2.087805 S    
C28   H4    1.073593 S    
O2    V1    2.087608 S    
C57   C59   1.404785 A    
N1    O22   1.300016 A    
C34   C40   1.386025 A    
C58   H12   1.080800 S    
O12   C72   1.324827 A    
C51   H19   1.074540 S    
C50   C52   1.404956 A    
C45   C53   1.405750 A    
C14   S4    1.793524 S    
S5    O47   1.685283 S    
C64   C66   1.399591 A    
C37   C39   1.381611 A    
C17   C31   1.466690 A    
N3    O25   1.298114 A    
C41   H17   1.079347 S    
S2    O37   1.504058 D    
O11   V4    2.028820 S    
C33   C41   1.408716 A    
C2    C35   1.472628 S    
N2    O24   1.300022 A    
N5    O29   1.300856 A    
O3    C1    1.325803 A    
C61   C67   1.421389 A    
C18   C26   1.442211 A    
O3    V1    2.031167 S    
S8    O54   1.500360 D    
O12   V3    2.029445 S    
C55   H21   1.078173 S    
C21   C23   1.388947 A    
O41   H25   0.990423 S    
C18   C32   1.466600 A    
C9    S1    1.785380 S    
C10   C12   1.388866 A    
S4    O43   1.503656 D    
N5    O30   1.300782 A    
N4    O28   1.302165 A    
C24   N4    1.428899 S    
N1    O21   1.301327 A    
S8    O56   1.681010 S    
N6    O31   1.300851 A    
C57   H11   1.080786 S    
C11   C13   1.385211 A    
S1    O33   1.502609 D    
C63   N1    1.436532 S    
C3    C8    1.447839 S    
C12   C14   1.385274 A    
C70   O17   1.308822 A    
O17   V3    2.088255 S    
C35   C65   1.397440 A    
C19   C27   1.408569 A    
O47   H27   0.990191 S    
C52   H20   1.074282 S    
C14   C16   1.427935 A    
O7    V1    2.031082 S    
C10   C32   1.418145 A    
C1    O8    1.302122 A    
C15   C17   1.449088 A    
C13   S3    1.793630 S    
O8    V2    2.030443 S    
C16   C18   1.448673 A    
C8    C28   1.395662 A    
O14   C70   1.343420 A    
C22   C24   1.388930 A    
C19   C21   1.411383 A    
C20   C22   1.411185 A    
O20   V4    2.226302 S    
C6    N6    1.429560 S    
C60   C62   1.422792 A    
C46   C54   1.405775 A    
C11   H5    1.078678 S    
C43   C47   1.433014 A    
C23   C25   1.412098 A    
C9    C11   1.388383 A    
S4    O42   1.501904 D    
O6    V2    2.081296 S    
C39   H15   1.079378 S    
O9    V2    1.765249 S    
O44   H26   0.990398 S    
N3    O26   1.302153 A    
S2    O36   1.502126 D    
C52   C54   1.389032 A    
C5    C21   1.425577 A    
N2    O23   1.301331 A    
C6    C22   1.425548 A    
C64   N2    1.436574 S    
O14   V4    2.081107 S    
