data_mof_unit_45122.cif
_audit_creation_date              2012-12-11T17:07:53-0500
_audit_creation_method            fapswitch 2.2
_symmetry_space_group_name_H-M    P1
_symmetry_Int_Tables_number       1
_space_group_crystal_system       triclinic
_cell_length_a                    17.473543
_cell_length_b                    17.154249
_cell_length_c                    17.469948
_cell_angle_alpha                 89.997776
_cell_angle_beta                  90.000542
_cell_angle_gamma                 89.291967
_cell_volume                      5236.13860014

loop_
_atom_site_label
_atom_site_type_symbol
_atom_type_description
_atom_site_fract_x
_atom_site_fract_y
_atom_site_fract_z
_atom_type_partial_charge
Br1   Br    Br    0.432985 0.799223 0.918218 -0.555080
Br2   Br    Br    0.704816 0.935459 0.395439 -0.667606
Br3   Br    Br    0.067014 0.700781 0.418264 -0.555051
Br4   Br    Br    0.295180 0.064545 0.395417 -0.667551
Br5   Br    Br    0.933606 0.700124 0.579120 -0.536854
Br6   Br    Br    0.720579 0.061595 0.651112 -0.622032
Br7   Br    Br    0.066410 0.299875 0.579093 -0.536782
Br8   Br    Br    0.279457 0.938362 0.651030 -0.621989
Br9   Br    Br    0.204805 0.435454 0.895509 -0.667350
Br10  Br    Br    0.567038 0.200757 0.918095 -0.555004
Br11  Br    Br    0.795206 0.564576 0.895555 -0.667236
Br12  Br    Br    0.433639 0.200128 0.079065 -0.536887
Br13  Br    Br    0.220560 0.561573 0.151057 -0.621873
Br14  Br    Br    0.566388 0.799876 0.079098 -0.536830
Br15  Br    Br    0.779455 0.438360 0.151020 -0.621945
Br16  Br    Br    0.932985 0.299216 0.418300 -0.555087
C1    C     C_R   0.400780 0.305830 0.887171 -0.107237
C2    C     C_R   0.196373 0.893241 0.398594 -0.114175
C3    C     C_R   0.710617 0.763248 0.313549 -0.155560
C4    C     C_R   0.173913 0.237417 0.748249 -0.172797
C5    C     C_R   0.207923 0.860398 0.809158 -0.146580
C6    C     C_R   0.826087 0.762611 0.748263 -0.172950
C7    C     C_R   0.792175 0.139667 0.809207 -0.146504
C8    C     C_R   0.746567 0.183662 0.859726 -0.144657
C9    C     C_R   0.789441 0.736781 0.813632 -0.155581
C10   C     C_R   0.253519 0.816419 0.859703 -0.144680
C11   C     C_R   0.210565 0.263252 0.813611 -0.155401
C12   C     C_R   0.673963 0.737389 0.248200 -0.172963
C13   C     C_R   0.099176 0.194138 0.387083 -0.107169
C14   C     C_R   0.707946 0.360424 0.309153 -0.146581
C15   C     C_R   0.326028 0.262599 0.248176 -0.172964
C16   C     C_R   0.292062 0.639592 0.309155 -0.146566
C17   C     C_3   0.987252 0.355817 0.783906 -0.805870
C18   C     C_3   0.577284 0.894661 0.637782 -0.737432
C19   C     C_3   0.012339 0.644723 0.784733 -0.806931
C20   C     C_3   0.422716 0.105370 0.637810 -0.737375
C21   C     C_3   0.850022 0.906656 0.184222 -0.873182
C22   C     C_3   0.803914 0.166005 0.180842 -0.836655
C23   C     C_3   0.149897 0.093291 0.184278 -0.873358
C24   C     C_R   0.803624 0.106764 0.398604 -0.114141
C25   C     C_3   0.195984 0.833906 0.180804 -0.836667
C26   C     C_3   0.487704 0.855202 0.284791 -0.806999
C27   C     C_3   0.077242 0.394467 0.137535 -0.737298
C28   C     C_3   0.512222 0.144882 0.284933 -0.807199
C29   C     C_3   0.922659 0.605392 0.137743 -0.736923
C30   C     C_3   0.350114 0.406584 0.684357 -0.873254
C31   C     C_3   0.304058 0.666149 0.680792 -0.836565
C32   C     C_3   0.649783 0.593452 0.684467 -0.873489
C33   C     C_3   0.695388 0.333188 0.680621 -0.836212
C34   C     C_R   0.925053 0.167919 0.644227 -0.165457
C35   C     C_R   0.195573 0.106927 0.601880 -0.131119
C36   C     C_R   0.074967 0.832063 0.644224 -0.165433
C37   C     C_R   0.804426 0.893069 0.601869 -0.131028
C38   C     C_3   0.865522 0.323734 0.713438 -0.081727
C39   C     C_3   0.642035 0.761988 0.634277 -0.097020
C40   C     C_3   0.134016 0.676263 0.713927 -0.081796
C41   C     C_R   0.696360 0.393269 0.898538 -0.114674
C42   C     C_3   0.357953 0.238034 0.634247 -0.096975
C43   C     C_3   0.899515 0.768859 0.205257 -0.088339
C44   C     C_3   0.690114 0.129487 0.262998 -0.105656
C45   C     C_3   0.100474 0.231126 0.205202 -0.088159
C46   C     C_3   0.309796 0.870518 0.262903 -0.105710
C47   C     C_3   0.366023 0.823732 0.213960 -0.081830
C48   C     C_3   0.142044 0.261819 0.134079 -0.096972
C49   C     C_3   0.633892 0.176278 0.214051 -0.081846
C50   C     C_3   0.857984 0.738094 0.134149 -0.096965
C51   C     C_3   0.399499 0.268746 0.705371 -0.088196
C52   C     C_R   0.599223 0.694180 0.887186 -0.107143
C53   C     C_3   0.190249 0.629480 0.762870 -0.105748
C54   C     C_3   0.600481 0.731326 0.705420 -0.088109
C55   C     C_3   0.809246 0.370491 0.762351 -0.105943
C56   C     C_R   0.391894 0.698477 0.898408 0.311505
C57   C     C_R   0.307024 0.394914 0.888570 0.326554
C58   C     C_R   0.608101 0.301535 0.898372 0.311637
C59   C     C_R   0.692981 0.605102 0.888589 0.326522
C60   C     C_R   0.394918 0.302222 0.101801 0.292068
C61   C     C_R   0.326865 0.585385 0.141624 0.329673
C62   C     C_R   0.605088 0.697769 0.101817 0.292117
C63   C     C_R   0.303628 0.606757 0.898592 -0.114269
C64   C     C_R   0.673135 0.414612 0.141624 0.329659
C65   C     C_R   0.891892 0.198483 0.398426 0.311440
C66   C     C_R   0.807041 0.894931 0.388529 0.326625
C67   C     C_R   0.108105 0.801521 0.398416 0.311468
C68   C     C_R   0.192952 0.105068 0.388514 0.326602
C69   C     C_R   0.894924 0.802235 0.601848 0.292131
C70   C     C_R   0.826887 0.085368 0.641643 0.329702
C71   C     C_R   0.105076 0.197763 0.601846 0.292128
C72   C     C_R   0.173137 0.914610 0.641623 0.329633
C73   C     C_R   0.327827 0.320857 0.864651 -0.017853
C74   C     C_R   0.425030 0.667938 0.144222 -0.165452
C75   C     C_R   0.684330 0.316487 0.881823 -0.019778
C76   C     C_R   0.672181 0.679167 0.864679 -0.017846
C77   C     C_R   0.315650 0.683547 0.881886 -0.019892
C78   C     C_R   0.364091 0.641324 0.185709 -0.050974
C79   C     C_R   0.679810 0.682939 0.119918 -0.023112
C80   C     C_R   0.635903 0.358679 0.185716 -0.050940
C81   C     C_R   0.320193 0.317038 0.119886 -0.023166
C82   C     C_R   0.827863 0.820894 0.364571 -0.017911
C83   C     C_R   0.184350 0.816450 0.381890 -0.019916
C84   C     C_R   0.172118 0.179100 0.364537 -0.017915
C85   C     C_R   0.695582 0.606932 0.101845 -0.131167
C86   C     C_R   0.815644 0.183558 0.381905 -0.019963
C87   C     C_R   0.864127 0.141298 0.685720 -0.051131
C88   C     C_R   0.179787 0.182927 0.619975 -0.023134
C89   C     C_R   0.135905 0.858675 0.685710 -0.050967
C90   C     C_R   0.820210 0.817067 0.619971 -0.023174
C91   C     C_R   0.805498 0.300084 0.813522 0.067719
C92   C     C_R   0.667940 0.759381 0.751020 0.065017
C93   C     C_R   0.194312 0.700027 0.813824 0.067605
C94   C     C_R   0.332062 0.240665 0.750989 0.065115
C95   C     C_R   0.796036 0.712472 0.187636 0.071293
C96   C     C_R   0.574965 0.332067 0.144228 -0.165494
C97   C     C_R   0.645506 0.243258 0.268782 0.065889
C98   C     C_R   0.203969 0.287474 0.187573 0.071362
C99   C     C_R   0.354455 0.756768 0.268725 0.065871
C100  C     C_R   0.305702 0.799959 0.313843 0.067590
C101  C     C_R   0.167884 0.259243 0.250834 0.065037
C102  C     C_R   0.694259 0.200064 0.313904 0.067554
C103  C     C_R   0.832105 0.740740 0.250887 0.065285
C104  C     C_R   0.295992 0.212427 0.687724 0.071349
C105  C     C_R   0.145555 0.743217 0.768707 0.065837
C106  C     C_R   0.704009 0.787590 0.687740 0.071382
C107  C     C_R   0.304417 0.393051 0.101826 -0.131030
C108  C     C_R   0.854280 0.256903 0.768437 0.065753
C109  C     C_R   0.746147 0.265669 0.854479 0.059487
C110  C     C_R   0.710243 0.727967 0.811777 0.075797
C111  C     C_R   0.253811 0.734401 0.854607 0.059475
C112  C     C_R   0.289762 0.272070 0.811746 0.075652
C113  C     C_R   0.717142 0.718962 0.182342 0.074918
C114  C     C_R   0.660914 0.321950 0.256381 0.052255
C115  C     C_R   0.282861 0.280998 0.182301 0.074984
C116  C     C_R   0.339073 0.678065 0.256361 0.052237
C117  C     C_R   0.246189 0.765591 0.354614 0.059463
C118  C     C_R   0.900809 0.805855 0.387110 -0.107253
C119  C     C_R   0.210175 0.227878 0.311619 0.075853
C120  C     C_R   0.753798 0.234425 0.354643 0.059444
C121  C     C_R   0.789807 0.772118 0.311656 0.075760
C122  C     C_R   0.217105 0.218952 0.682408 0.074815
C123  C     C_R   0.160924 0.821925 0.756357 0.052254
C124  C     C_R   0.782894 0.781056 0.682417 0.074933
C125  C     C_R   0.839067 0.178130 0.756297 0.052312
C126  C     C_R   0.246467 0.683571 0.359698 -0.144694
C127  C     C_R   0.289363 0.236754 0.313525 -0.155571
C128  C     C_R   0.753541 0.316446 0.359700 -0.144765
H1    H     H_    0.430266 0.251016 0.881899 0.193181
H2    H     H_    0.251797 0.918033 0.407082 0.180840
H3    H     H_    0.349328 0.412909 0.621132 0.237977
H4    H     H_    0.258683 0.555847 0.696254 0.195297
H5    H     H_    0.363982 0.645208 0.673554 0.231785
H6    H     H_    0.305648 0.723193 0.710388 0.276286
H7    H     H_    0.278710 0.673854 0.622992 0.242018
H8    H     H_    0.535975 0.630679 0.688679 0.176340
H9    H     H_    0.638297 0.535515 0.709885 0.244653
H10   H     H_    0.706674 0.612593 0.704646 0.272897
H11   H     H_    0.650521 0.587054 0.621248 0.237945
H12   H     H_    0.740479 0.443672 0.695599 0.194964
H13   H     H_    0.069665 0.248934 0.381750 0.193091
H14   H     H_    0.635391 0.353923 0.673426 0.231698
H15   H     H_    0.694013 0.276237 0.710409 0.276430
H16   H     H_    0.720650 0.325357 0.622800 0.241923
H17   H     H_    0.748201 0.081973 0.407104 0.180806
H18   H     H_    0.965911 0.210302 0.662493 0.174893
H19   H     H_    0.251838 0.081128 0.598521 0.206042
H20   H     H_    0.034089 0.789709 0.662506 0.174858
H21   H     H_    0.748160 0.918864 0.598494 0.206063
H22   H     H_    0.846188 0.310903 0.654299 0.166695
H23   H     H_    0.662917 0.717380 0.592952 0.145404
H24   H     H_    0.153280 0.688858 0.654717 0.166778
H25   H     H_    0.751789 0.418073 0.906958 0.180944
H26   H     H_    0.337049 0.282613 0.592898 0.145399
H27   H     H_    0.952729 0.736796 0.221295 0.140700
H28   H     H_    0.664828 0.078687 0.292730 0.163583
H29   H     H_    0.047275 0.263234 0.221195 0.140772
H30   H     H_    0.335066 0.921343 0.292604 0.163573
H31   H     H_    0.346764 0.811160 0.154744 0.166776
H32   H     H_    0.162983 0.217227 0.092765 0.145388
H33   H     H_    0.653139 0.188817 0.154824 0.166779
H34   H     H_    0.837063 0.782647 0.092780 0.145426
H35   H     H_    0.452685 0.236633 0.721405 0.140861
H36   H     H_    0.569732 0.748990 0.881908 0.193154
H37   H     H_    0.164990 0.578639 0.792557 0.163525
H38   H     H_    0.547316 0.763476 0.721447 0.140898
H39   H     H_    0.834398 0.421507 0.791844 0.163415
H40   H     H_    0.208889 0.652845 0.397544 0.194885
H41   H     H_    0.322920 0.220083 0.363017 0.177551
H42   H     H_    0.791137 0.347174 0.397524 0.194881
H43   H     H_    0.677051 0.779934 0.363029 0.177562
H44   H     H_    0.112211 0.232407 0.749003 0.142346
H45   H     H_    0.214588 0.923015 0.806785 0.169277
H46   H     H_    0.887786 0.767637 0.749014 0.142531
H47   H     H_    0.248204 0.581963 0.907077 0.180839
H48   H     H_    0.785611 0.077032 0.806945 0.169199
H49   H     H_    0.709085 0.152958 0.897693 0.194772
H50   H     H_    0.823018 0.720070 0.863098 0.177590
H51   H     H_    0.291088 0.847143 0.897558 0.194868
H52   H     H_    0.176992 0.279963 0.863078 0.177571
H53   H     H_    0.612267 0.732326 0.248975 0.142532
H54   H     H_    0.714636 0.423036 0.306753 0.169296
H55   H     H_    0.387722 0.267677 0.248966 0.142550
H56   H     H_    0.285390 0.576977 0.306778 0.169324
H57   H     H_    0.946335 0.407242 0.683315 0.226726
H58   H     H_    0.465911 0.710288 0.162503 0.174871
H59   H     H_    0.045151 0.378757 0.771731 0.272537
H60   H     H_    0.994483 0.295616 0.806246 0.232494
H61   H     H_    0.959862 0.393419 0.828006 0.249926
H62   H     H_    0.563823 0.808179 0.555161 0.188750
H63   H     H_    0.565998 0.943139 0.597063 0.266538
H64   H     H_    0.621322 0.914284 0.678962 0.265323
H65   H     H_    0.523205 0.882449 0.668587 0.240135
H66   H     H_    0.052892 0.592929 0.684185 0.226725
H67   H     H_    0.954345 0.621930 0.772740 0.272685
H68   H     H_    0.005336 0.704996 0.806945 0.232532
H69   H     H_    0.751843 0.581129 0.098466 0.205987
H70   H     H_    0.039708 0.607144 0.828866 0.250089
H71   H     H_    0.436222 0.191852 0.555190 0.188710
H72   H     H_    0.434079 0.056906 0.597098 0.266505
H73   H     H_    0.378635 0.085714 0.678928 0.265286
H74   H     H_    0.476748 0.117603 0.668687 0.240125
H75   H     H_    0.963873 0.869587 0.188419 0.176297
H76   H     H_    0.861495 0.964659 0.209499 0.244655
H77   H     H_    0.793180 0.887505 0.204528 0.272887
H78   H     H_    0.849186 0.912932 0.120994 0.237990
H79   H     H_    0.758443 0.055758 0.196382 0.195381
H80   H     H_    0.534077 0.289724 0.162514 0.174852
H81   H     H_    0.863817 0.145005 0.173583 0.231798
H82   H     H_    0.805572 0.223063 0.210409 0.276257
H83   H     H_    0.778544 0.173704 0.123051 0.242024
H84   H     H_    0.036060 0.130423 0.188438 0.176309
H85   H     H_    0.138415 0.035326 0.209639 0.244703
H86   H     H_    0.206754 0.112451 0.204532 0.272879
H87   H     H_    0.150703 0.086933 0.121057 0.237989
H88   H     H_    0.241411 0.944181 0.196268 0.195354
H89   H     H_    0.136071 0.854876 0.173552 0.231797
H90   H     H_    0.194360 0.776862 0.210402 0.276266
H91   H     H_    0.248150 0.418841 0.098431 0.206040
H92   H     H_    0.221340 0.826191 0.123010 0.242019
H93   H     H_    0.447173 0.907056 0.184258 0.226732
H94   H     H_    0.545701 0.877995 0.272815 0.272697
H95   H     H_    0.494697 0.794915 0.306972 0.232529
H96   H     H_    0.460334 0.892758 0.328939 0.250097
H97   H     H_    0.063797 0.307937 0.054959 0.188708
H98   H     H_    0.065885 0.442907 0.096791 0.266494
H99   H     H_    0.121300 0.414158 0.178661 0.265252
H100  H     H_    0.023200 0.382235 0.168396 0.240090
H101  H     H_    0.552694 0.092985 0.184404 0.226730
H102  H     H_    0.930311 0.751054 0.381795 0.193106
H103  H     H_    0.454209 0.122117 0.272984 0.272725
H104  H     H_    0.505268 0.205177 0.307101 0.232538
H105  H     H_    0.539588 0.107321 0.329083 0.250128
H106  H     H_    0.936454 0.691966 0.055276 0.188682
H107  H     H_    0.934292 0.557022 0.096997 0.266370
H108  H     H_    0.878376 0.585605 0.178574 0.265282
H109  H     H_    0.976505 0.617611 0.168946 0.240043
H110  H     H_    0.463941 0.369427 0.688580 0.176274
H111  H     H_    0.361599 0.464560 0.709689 0.244672
H112  H     H_    0.293246 0.387449 0.704604 0.272862
N1    N     N_R   0.425360 0.368540 0.922560 -0.060811
N2    N     N_R   0.131460 0.925360 0.422560 -0.064784
N3    N     N_R   0.074640 0.131460 0.422560 -0.060784
N4    N     N_R   0.868540 0.074640 0.422560 -0.064784
N5    N     N_R   0.925360 0.131460 0.577440 -0.046846
N6    N     N_R   0.131460 0.074640 0.577440 -0.069820
N7    N     N_R   0.074640 0.868540 0.577440 -0.046839
N8    N     N_R   0.868540 0.925360 0.577440 -0.069828
N9    N     N_R   0.425340 0.631500 0.922560 -0.076170
N10   N     N_R   0.368500 0.425340 0.922560 -0.073603
N11   N     N_R   0.574660 0.368500 0.922560 -0.076172
N12   N     N_R   0.631460 0.425360 0.922560 -0.064735
N13   N     N_R   0.631500 0.574660 0.922560 -0.073601
N14   N     N_R   0.425340 0.368500 0.077440 -0.081345
N15   N     N_R   0.368500 0.574660 0.077440 -0.070869
N16   N     N_R   0.574660 0.631500 0.077440 -0.081337
N17   N     N_R   0.631500 0.425340 0.077440 -0.070825
N18   N     N_R   0.925340 0.131500 0.422560 -0.076168
N19   N     N_R   0.868500 0.925340 0.422560 -0.073601
N20   N     N_R   0.074660 0.868500 0.422560 -0.076171
N21   N     N_R   0.131500 0.074660 0.422560 -0.073600
N22   N     N_R   0.925340 0.868500 0.577440 -0.081319
N23   N     N_R   0.574640 0.631460 0.922560 -0.060812
N24   N     N_R   0.868500 0.074660 0.577440 -0.070889
N25   N     N_R   0.074660 0.131500 0.577440 -0.081307
N26   N     N_R   0.131500 0.925340 0.577440 -0.070866
N27   N     N_2   0.942480 0.356008 0.713881 -0.090074
N28   N     N_2   0.602964 0.826423 0.595311 -0.105345
N29   N     N_2   0.056960 0.644227 0.714612 -0.090163
N30   N     N_2   0.397054 0.173603 0.595313 -0.105342
N31   N     N_2   0.910577 0.853085 0.207341 -0.099929
N32   N     N_2   0.761608 0.108539 0.224260 -0.100569
N33   N     N_2   0.089366 0.146910 0.207349 -0.099921
N34   N     N_R   0.368540 0.574640 0.922560 -0.064774
N35   N     N_2   0.238279 0.891413 0.224178 -0.100589
N36   N     N_2   0.443088 0.855745 0.214665 -0.090162
N37   N     N_2   0.102940 0.326218 0.095091 -0.105328
N38   N     N_2   0.556812 0.144301 0.214793 -0.090190
N39   N     N_2   0.897149 0.673683 0.095246 -0.105330
N40   N     N_2   0.410625 0.352961 0.707479 -0.099909
N41   N     N_2   0.261781 0.608620 0.724158 -0.100604
N42   N     N_2   0.589304 0.647120 0.707562 -0.099897
N43   N     N_2   0.737577 0.390999 0.723711 -0.100717
N44   N     N_R   0.425360 0.631460 0.077440 -0.046848
N45   N     N_R   0.631460 0.574640 0.077440 -0.069810
N46   N     N_R   0.574640 0.368540 0.077440 -0.046851
N47   N     N_R   0.368540 0.425360 0.077440 -0.069819
N48   N     N_R   0.925360 0.868540 0.422560 -0.060784
Ni1   Ni    Ni4+2 0.500000 0.369720 0.000000 0.275655
Ni2   Ni    Ni4+2 0.630280 0.500000 0.000000 0.254698
Ni3   Ni    Ni4+2 0.500000 0.630280 0.000000 0.275660
Ni4   Ni    Ni4+2 0.369720 0.500000 0.000000 0.254618
Ni5   Ni    Ni4+2 1.000000 0.869720 0.500000 0.275702
Ni6   Ni    Ni4+2 0.130280 1.000000 0.500000 0.254651
Ni7   Ni    Ni4+2 1.000000 0.130280 0.500000 0.275702
Ni8   Ni    Ni4+2 0.869720 1.000000 0.500000 0.254601

loop_
_geom_bond_atom_site_label_1
_geom_bond_atom_site_label_2
_ccdc_geom_bond_type
C126  H40   S    
C32   H9    S    
C17   N27   S    
C18   N28   S    
N9    Ni3   S    
C20   N30   S    
C5    C10   A    
N10   Ni4   S    
H57   N27   S    
C37   N8    A    
C118  N48   A    
C23   H85   S    
C29   H108  S    
N14   Ni1   S    
C37   C90   A    
C93   C111  A    
C85   H69   S    
C96   N46   A    
C33   H16   S    
C6    H46   S    
C16   C126  A    
C84   C119  S    
C22   H82   S    
C47   C99   S    
C34   C87   A    
C63   H47   S    
C96   H80   S    
H62   N28   S    
C53   C93   S    
C91   C108  A    
C32   N42   S    
N22   Ni5   S    
Br13  C61   S    
C25   N35   S    
C35   N6    A    
N2    N20   A    
C68   C84   A    
C55   H39   S    
C1    C73   A    
C81   C115  S    
N2    Ni6   S    
C26   H96   S    
C100  C117  A    
C35   C88   A    
C43   N31   S    
C17   H59   S    
C78   C116  S    
C44   N32   S    
C44   H28   S    
C9    C110  A    
C11   C112  A    
N23   Ni3   S    
Br4   C68   S    
C32   H11   S    
C44   C49   S    
C27   N37   S    
Br3   C67   S    
C18   H63   S    
C104  C122  A    
C5    C123  A    
C101  C119  A    
C30   H111  S    
C102  C120  A    
C74   N44   A    
C36   N7    A    
H106  N39   S    
C75   C109  S    
C49   C97   S    
N5    Ni7   S    
C72   N26   A    
C20   H73   S    
N14   N47   A    
C27   H100  S    
N34   Ni4   S    
C12   H53   S    
C21   H77   S    
C43   C50   S    
C93   C105  A    
N5    N24   A    
C25   H89   S    
C52   C76   A    
C15   C127  A    
C19   H70   S    
C55   N43   S    
C57   N10   A    
C42   C51   S    
C120  C128  A    
C7    C125  A    
C11   H52   S    
C21   H76   S    
C92   C110  A    
C118  H102  S    
C9    H50   S    
C53   H37   S    
C74   H58   S    
C34   N5    A    
C34   H18   S    
C21   N31   S    
C71   N25   A    
C24   N4    A    
C22   N32   S    
C23   H87   S    
C17   H61   S    
C117  C126  A    
C13   N3    A    
C50   N39   S    
N15   N44   A    
N6    N25   A    
C99   C100  A    
C61   C78   A    
C28   N38   S    
C95   C103  A    
C65   N18   A    
C33   N43   S    
C15   C115  A    
C28   H103  S    
C6    C9    A    
C51   N40   S    
C7    C8    A    
C19   N29   S    
H84   N33   S    
C70   N24   A    
C48   H32   S    
Br5   C69   S    
C119  C127  A    
N4    Ni8   S    
C30   N40   S    
N6    Ni6   S    
C87   C125  S    
C7    H48   S    
C54   H38   S    
C99   C116  A    
C27   H98   S    
Br1   C56   S    
C48   C98   S    
C97   C114  A    
C66   C82   A    
N17   N46   A    
C91   C109  A    
N19   N48   A    
N13   Ni2   S    
Br8   C72   S    
C19   H68   S    
C4    H44   S    
C58   N11   A    
C28   H105  S    
C51   C94   S    
C5    H45   S    
C31   H6    S    
H101  N38   S    
C3    C121  A    
C35   H19   S    
C3    C12   A    
N18   Ni7   S    
N44   Ni3   S    
C14   H54   S    
C36   C89   A    
C47   N36   S    
C108  C125  A    
N3    N21   A    
C2    C83   A    
N7    Ni5   S    
C1    N1    A    
C69   C90   A    
C42   N30   S    
C38   N27   S    
C32   H10   S    
N17   Ni2   S    
N11   N12   A    
N47   Ni4   S    
H75   N31   S    
Br6   C70   S    
C105  C123  A    
C66   N19   A    
C106  C124  A    
C81   C107  A    
C54   C92   S    
C29   H107  S    
C72   C89   A    
C49   H33   S    
C64   N17   A    
C10   C111  A    
C98   C101  A    
C63   N34   A    
H79   N32   S    
C40   C53   S    
C94   C112  A    
C33   H15   S    
C67   C83   A    
N1    Ni1   S    
C79   C85   A    
C22   H83   S    
C55   C91   S    
C127  H41   S    
C98   C115  A    
H12   N43   S    
C39   H23   S    
N8    Ni8   S    
C15   H55   S    
N7    N26   A    
H97   N37   S    
C43   H27   S    
C23   N33   S    
C6    C124  A    
C14   C128  A    
N13   N23   A    
C4    C122  A    
C3    H43   S    
C49   N38   S    
C95   C113  A    
Br7   C71   S    
C38   C55   S    
C41   N12   A    
C60   N14   A    
C61   N15   A    
C44   C102  S    
C48   N37   S    
C62   N16   A    
C50   C95   S    
H8    N42   S    
H4    N41   S    
C53   N41   S    
C38   H22   S    
C10   H51   S    
C30   H112  S    
C74   C78   A    
C26   H94   S    
N48   Ni5   S    
C82   C121  S    
C45   C101  S    
C23   H86   S    
C20   H74   S    
C13   H13   S    
C18   H64   S    
C60   C81   A    
C14   C114  A    
C58   C75   A    
C45   C48   S    
C1    H1    S    
C46   C47   S    
N11   Ni1   S    
C89   C123  S    
C50   H34   S    
C90   C124  S    
C30   H3    S    
C62   C79   A    
C42   C104  S    
C36   H20   S    
C22   H81   S    
C107  H91   S    
C56   C77   A    
C37   H21   S    
C31   H7    S    
Br12  C60   S    
N9    N34   A    
Br2   C66   S    
C80   C114  S    
C38   C108  S    
C43   C103  S    
C41   C75   A    
C13   C84   A    
C31   N41   S    
N1    N10   A    
N25   Ni7   S    
C76   C110  S    
N16   N45   A    
N12   Ni2   S    
C26   H95   S    
C4    C11   A    
N24   Ni8   S    
C17   H60   S    
C27   H99   S    
C57   C73   A    
C24   H17   S    
C16   H56   S    
C51   H35   S    
N45   Ni2   S    
C56   N9    A    
C86   C120  S    
C2    N2    A    
C28   H104  S    
C24   C86   A    
C71   C88   A    
C79   C113  S    
H66   N29   S    
C69   N22   A    
Br11  C59   S    
C20   H72   S    
C73   C112  S    
N19   Ni8   S    
N16   Ni3   S    
H88   N35   S    
C52   N23   A    
C128  H42   S    
C80   C96   A    
N46   Ni1   S    
C42   H26   S    
C21   H78   S    
C63   C77   A    
H110  N40   S    
N21   Ni6   S    
C25   H90   S    
C46   H30   S    
C83   C117  S    
C12   C113  A    
C19   H67   S    
Br16  C65   S    
N3    Ni7   S    
C31   H5    S    
N8    N22   A    
C40   N29   S    
C64   C80   A    
C85   N45   A    
C39   C106  S    
Br9   C57   S    
C70   C87   A    
N26   Ni6   S    
C41   H25   S    
C65   C86   A    
C26   N36   S    
C103  C121  A    
C45   H29   S    
C94   C104  A    
C59   N13   A    
C52   H36   S    
C107  N47   A    
C77   C111  S    
C46   C100  S    
C18   H65   S    
Br15  C64   S    
C68   N21   A    
C40   H24   S    
C54   N42   S    
N15   Ni4   S    
C59   C76   A    
C8    C109  A    
C33   H14   S    
C67   N20   A    
C16   C116  A    
C92   C106  A    
N20   Ni5   S    
C2    H2    S    
H93   N36   S    
C47   H31   S    
C25   H92   S    
C82   C118  A    
C46   N35   S    
H71   N30   S    
C40   C105  S    
N4    N18   A    
Br10  C58   S    
C39   N28   S    
C8    H49   S    
C45   N33   S    
C88   C122  S    
Br14  C62   S    
C39   C54   S    
C29   N39   S    
C97   C102  A    
C29   H109  S    
