data_mof_unit_54111.cif
_audit_creation_date              2012-10-26T19:02:38-0400
_audit_creation_method            fapswitch 2.2
_symmetry_space_group_name_H-M    P1
_symmetry_Int_Tables_number       1
_space_group_crystal_system       triclinic
_cell_length_a                    17.402988
_cell_length_b                    8.893392
_cell_length_c                    7.565316
_cell_angle_alpha                 103.28405
_cell_angle_beta                  91.07748
_cell_angle_gamma                 97.513156
_cell_volume                      1128.33410554

loop_
_atom_site_label
_atom_site_type_symbol
_atom_type_description
_atom_site_fract_x
_atom_site_fract_y
_atom_site_fract_z
_atom_type_partial_charge
C1    C     C_R   0.498034 0.200986 0.454123 0.561338
C2    C     C_R   0.771838 0.426223 0.596371 -0.008849
C3    C     C_R   0.146953 0.539807 0.376866 0.214209
C4    C     C_R   0.853047 0.460191 0.623132 0.214209
C5    C     C_R   0.104322 0.464818 0.495597 -0.012669
C6    C     C_R   0.895678 0.535181 0.504403 -0.012669
C7    C     C_R   0.141603 0.427360 0.640269 -0.076210
C8    C     C_R   0.858397 0.572642 0.359733 -0.076209
C9    C     C_R   0.221810 0.455842 0.664687 0.222551
C10   C     C_R   0.778190 0.544161 0.335315 0.222551
C11   C     C_2   0.019729 0.439230 0.485335 -0.023200
C12   C     C_R   0.501967 0.799014 0.545877 0.561334
C13   C     C_2   0.980271 0.560769 0.514665 -0.023200
C14   C     C_2   0.270640 0.684472 0.308030 0.345934
C15   C     C_2   0.729360 0.315525 0.691965 0.345935
C16   C     C_2   0.492064 0.951550 0.233194 0.265671
C17   C     C_2   0.507941 0.048450 0.766806 0.265662
C18   C     C_2   0.424788 0.321785 0.960526 0.485487
C19   C     C_2   0.575216 0.678211 0.039470 0.485484
C20   C     C_2   0.497546 0.034654 0.428194 0.029847
C21   C     C_2   0.502456 0.965346 0.571806 0.029843
C22   C     C_R   0.351395 0.507031 0.525293 0.602916
C23   C     C_R   0.648605 0.492970 0.474707 0.602916
C24   C     C_R   0.266856 0.516842 0.536835 0.008372
C25   C     C_R   0.733144 0.483159 0.463165 0.008373
C26   C     C_R   0.228162 0.573776 0.403627 -0.008850
Cl1   Cl    Cl    0.740433 0.575385 0.132904 -0.541573
Cl2   Cl    Cl    0.259568 0.424622 0.867101 -0.541568
Cl3   Cl    Cl    0.901654 0.407867 0.803368 -0.561494
Cl4   Cl    Cl    0.098345 0.592129 0.196628 -0.561493
Cu1   Cu    Cu3+1 0.508700 0.517250 0.683000 1.132409
Cu2   Cu    Cu3+1 0.491300 0.482750 0.317000 1.132413
H1    H     H_    0.010114 0.678774 0.530944 0.175188
H2    H     H_    0.596570 0.756261 0.955229 0.106646
H3    H     H_    0.989886 0.321225 0.469055 0.175189
H4    H     H_    0.107636 0.379093 0.738079 0.215510
H5    H     H_    0.892364 0.620910 0.261925 0.215508
H6    H     H_    0.252219 0.688379 0.171752 0.211289
H7    H     H_    0.747780 0.311614 0.828242 0.211286
H8    H     H_    0.538695 0.977996 0.147314 0.113105
H9    H     H_    0.461313 0.021999 0.852690 0.113106
H10   H     H_    0.403440 0.243726 0.044760 0.106642
N1    N     N_2   0.478180 0.456750 0.041980 -0.147091
N2    N     N_2   0.521820 0.543250 0.958020 -0.147093
O1    O     O_R   0.505650 0.286040 0.618880 -0.431965
O2    O     O_2   0.675636 0.220140 0.613328 -0.471876
O3    O     O_2   0.433194 0.866563 0.164387 -0.456507
O4    O     O_2   0.566810 0.133443 0.835608 -0.456510
O5    O     O_2   0.397460 0.293400 0.806504 -0.454572
O6    O     O_2   0.602538 0.706602 0.193498 -0.454576
O7    O     O_R   0.494350 0.713960 0.381120 -0.431960
O8    O     O_R   0.490960 0.256910 0.309800 -0.568392
O9    O     O_R   0.509040 0.743090 0.690200 -0.568392
O10   O     O_R   0.394600 0.516230 0.672450 -0.421039
O11   O     O_R   0.605400 0.483770 0.327550 -0.421042
O12   O     O_R   0.379910 0.487100 0.363380 -0.515023
O13   O     O_R   0.620090 0.512900 0.636620 -0.515030
O14   O     O_2   0.324365 0.779856 0.386663 -0.471872

loop_
_geom_bond_atom_site_label_1
_geom_bond_atom_site_label_2
_ccdc_geom_bond_type
C10   Cl1   S    
C3    Cl4   S    
C2    C4    A    
N1    N2    D    
C9    C24   A    
C13   H1    S    
C14   H6    S    
C18   H10   S    
C7    H4    S    
Cu2   O11   S    
Cu1   Cu2   S    
C17   O4    D    
C16   C20   S    
C15   H7    S    
Cu1   O13   S    
C11   H3    S    
C18   O5    D    
C22   O10   A    
C18   N1    S    
C14   C26   S    
C6    C13   S    
C23   O11   A    
C2    C15   S    
C11   C13   D    
C19   O6    D    
C1    O1    A    
C12   O9    A    
C16   H8    S    
C23   O13   A    
C6    C8    A    
C10   C25   A    
C8    C10   A    
Cu2   N1    S    
C24   C26   A    
C5    C11   S    
C2    C25   A    
C17   H9    S    
C23   C25   S    
Cu1   O10   S    
Cu1   O1    S    
C14   O14   D    
C1    O8    A    
C22   C24   S    
C8    H5    S    
C7    C9    A    
C12   O7    A    
C19   N2    S    
C16   O3    D    
C4    C6    A    
Cu1   N2    S    
Cu2   O7    S    
C5    C7    A    
Cu2   O8    S    
C1    C20   S    
C22   O12   A    
C15   O2    D    
C20   C21   D    
C12   C21   S    
Cu2   O12   S    
C3    C26   A    
Cu1   O9    S    
C4    Cl3   S    
C9    Cl2   S    
C3    C5    A    
C19   H2    S    
C17   C21   S    
