data_mof_unit_24466.cif
_audit_creation_date              2012-12-10T18:11:39-0500
_audit_creation_method            fapswitch 2.2
_symmetry_space_group_name_H-M    P1
_symmetry_Int_Tables_number       1
_space_group_crystal_system       triclinic
_cell_length_a                    10.535418
_cell_length_b                    12.792031
_cell_length_c                    13.089406
_cell_angle_alpha                 81.894049
_cell_angle_beta                  93.391569
_cell_angle_gamma                 101.977226
_cell_volume                      1707.59297887

loop_
_atom_site_label
_atom_site_type_symbol
_atom_type_description
_atom_site_fract_x
_atom_site_fract_y
_atom_site_fract_z
_atom_type_partial_charge
C1    C     C_R   0.473049 0.439836 0.690144 0.972330
C2    C     C_3   0.065815 0.595487 0.525107 0.291716
C3    C     C_3   0.969791 0.513936 0.594412 0.233640
C4    C     C_3   0.875930 0.500693 0.500461 -0.277015
C5    C     C_R   0.515821 0.730974 0.045344 -0.304471
C6    C     C_R   0.492164 0.597685 0.198349 -0.315266
C7    C     C_R   0.430488 0.294608 0.841142 0.226929
C8    C     C_R   0.446863 0.268921 0.949083 0.340551
C9    C     C_R   0.462683 0.350342 0.012182 0.492140
C10   C     C_R   0.442623 0.455387 0.970649 -0.169621
C11   C     C_R   0.422550 0.479889 0.863359 -0.095102
C12   C     C_R   0.741263 0.500301 0.500918 1.000210
C13   C     C_R   0.451253 0.539790 0.031291 0.055734
C14   C     C_R   0.471446 0.647683 0.984985 0.008641
C15   C     C_R   0.436029 0.668967 0.881393 -0.254320
C16   C     C_R   0.394199 0.582594 0.824258 0.522804
C17   C     C_R   0.430394 0.520509 0.135813 0.325148
C18   C     C_R   0.536171 0.705906 0.153416 0.506082
C19   C     C_R   0.436659 0.403328 0.798617 -0.164343
C20   C     C_R   0.327472 0.099222 0.333314 0.311154
C21   C     C_R   0.643346 0.794280 0.640155 0.447425
C22   C     C_R   0.647916 0.888322 0.685454 0.198941
C23   C     C_R   0.508128 0.560672 0.308664 0.901334
C24   C     C_R   0.575665 0.964867 0.638835 0.395834
C25   C     C_R   0.521751 0.957013 0.537522 -0.108547
C26   C     C_R   0.504726 0.855133 0.501705 -0.021442
C27   C     C_R   0.471705 0.042224 0.475550 -0.015263
C28   C     C_R   0.389401 0.020088 0.388410 -0.188651
C29   C     C_R   0.362888 0.917955 0.361181 -0.328149
C30   C     C_R   0.418582 0.836470 0.414616 0.594529
C31   C     C_R   0.503438 0.150450 0.493707 0.523371
C32   C     C_R   0.338029 0.195321 0.373205 0.583028
C33   C     C_R   0.258609 0.500085 0.498634 1.022442
C34   C     C_3   0.934062 0.406845 0.473848 0.255519
C35   C     C_3   0.026801 0.419705 0.568495 0.318911
C36   C     C_3   0.124001 0.501287 0.498580 -0.271122
C37   C     C_3   0.029815 0.488749 0.404665 0.216215
C38   C     C_3   0.972727 0.582601 0.430879 0.347724
H1    H     H_    0.293587 0.898662 0.298934 0.141558
H2    H     H_    0.431714 0.750596 0.847556 0.147924
H3    H     H_    0.538665 0.812959 0.007031 0.174266
N1    N     N_R   0.432930 0.222190 0.444670 -0.248985
N2    N     N_R   0.566370 0.776980 0.554790 -0.142848
O1    O     O_R   0.467970 0.366730 0.627150 -0.598275
O2    O     O_R   0.510820 0.544830 0.662520 -0.554406
O3    O     O_R   0.664630 0.410960 0.482340 -0.602178
O4    O     O_R   0.707470 0.589060 0.517710 -0.543077
O5    O     O_R   0.489180 0.455170 0.337480 -0.571590
O6    O     O_R   0.532030 0.633270 0.372850 -0.513868
O7    O     O_R   0.292530 0.410940 0.482290 -0.597721
O8    O     O_R   0.335370 0.589040 0.517660 -0.514169
Zn1   Zn    Zn3+2 0.471390 0.381080 0.476380 1.050421
Zn2   Zn    Zn3+2 0.528610 0.618920 0.523620 1.094628
O9    O     O_3   0.067536 0.336360 0.636495 -0.592205
C39   C     C_3   0.965506 0.283032 0.701289 -0.238868
H4    H     H_    0.873673 0.256789 0.657031 0.189502
H5    H     H_    0.949884 0.334396 0.759112 0.204929
H6    H     H_    0.993555 0.209886 0.744559 0.171375
O10   O     O_3   0.340672 0.430435 0.172884 -0.633733
H7    H     H_    0.293059 0.451016 0.227549 0.386021
O11   O     O_3   0.413467 0.216304 0.776138 -0.708217
H8    H     H_    0.365624 0.147758 0.812965 0.348952
O12   O     O_3   0.509297 0.326148 0.111578 -0.642378
H9    H     H_    0.576950 0.388547 0.127517 0.326354
O13   O     O_3   0.462577 0.168003 0.994789 -0.730154
H10   H     H_    0.495416 0.130940 0.943527 0.331977
O14   O     O_3   0.321183 0.595195 0.733801 -0.741679
H11   H     H_    0.310376 0.671108 0.718957 0.348927
O15   O     O_3   0.262110 0.267844 0.333404 -0.517348
C40   C     C_3   0.134629 0.227573 0.368043 -0.182021
H12   H     H_    0.071347 0.281716 0.330778 0.237097
H13   H     H_    0.131592 0.225266 0.453174 0.150905
H14   H     H_    0.092369 0.146429 0.345969 0.167752
O16   O     O_3   0.253911 0.084830 0.243653 -0.715399
H15   H     H_    0.300077 0.048270 0.200169 0.358464
O17   O     O_3   0.612246 0.185365 0.552523 -0.690132
H16   H     H_    0.596347 0.246002 0.585161 0.393736
O18   O     O_3   0.707616 0.714373 0.683701 -0.691419
H17   H     H_    0.760499 0.737173 0.744732 0.364200
O19   O     O_3   0.860060 0.310798 0.444966 -0.696555
H18   H     H_    0.909536 0.254053 0.470713 0.337470
O20   O     O_3   0.543177 0.038721 0.695230 -0.714335
H19   H     H_    0.575307 0.026800 0.767678 0.365872
O21   O     O_3   0.710513 0.899153 0.780423 -0.625866
C41   C     C_3   0.830018 0.971985 0.764367 -0.322346
H20   H     H_    0.815557 0.053051 0.728761 0.180726
H21   H     H_    0.893737 0.941047 0.715947 0.171787
H22   H     H_    0.880733 0.981162 0.840263 0.202512
O22   O     O_3   0.377833 0.736849 0.385306 -0.703430
H23   H     H_    0.330285 0.739336 0.317530 0.295326
O23   O     O_3   0.066273 0.477329 0.306600 -0.774541
H24   H     H_    0.985039 0.469988 0.263632 0.367417
O24   O     O_3   0.929511 0.663148 0.360688 -0.579749
C42   C     C_3   0.036689 0.732716 0.312273 -0.214931
H25   H     H_    0.095527 0.688351 0.273072 0.172155
H26   H     H_    0.097562 0.780458 0.368299 0.190805
H27   H     H_    0.000306 0.790528 0.252201 0.193176
O25   O     O_3   0.138005 0.692554 0.552908 -0.730129
H28   H     H_    0.072988 0.733779 0.568072 0.350287
O26   O     O_3   0.932655 0.529253 0.691115 -0.737190
H29   H     H_    0.014325 0.541886 0.733298 0.367200
O27   O     O_3   0.600845 0.780828 0.216452 -0.567380
C43   C     C_3   0.586090 0.887196 0.181149 -0.240983
H30   H     H_    0.483432 0.891147 0.158560 0.141674
H31   H     H_    0.652263 0.923569 0.116909 0.175744
H32   H     H_    0.614721 0.936440 0.245189 0.197924

loop_
_geom_bond_atom_site_label_1
_geom_bond_atom_site_label_2
_ccdc_geom_bond_type
C39   H4    S    
O24   C42   S    
C31   N1    A    
C34   C37   S    
C35   C36   S    
C7    C8    A    
C41   H20   S    
C11   C19   A    
C37   C38   S    
C36   C37   S    
O15   C40   S    
C12   O4    A    
C23   O6    A    
C15   C16   A    
O3    Zn1   S    
C33   C36   S    
C34   C35   S    
C18   O27   S    
C24   O20   S    
C7    O11   S    
C34   O19   S    
C21   N2    A    
C3    O26   S    
N2    Zn2   S    
C8    C9    A    
C21   O18   S    
O7    Zn1   S    
C40   H12   S    
C4    C12   S    
C9    C10   A    
O11   H8    S    
O4    Zn2   S    
O1    Zn1   S    
O2    Zn2   S    
O10   H7    S    
C21   C22   A    
C35   O9    S    
C42   H25   S    
C30   O22   S    
C26   N2    A    
O17   H16   S    
C41   H21   S    
C6    C18   A    
C4    C34   S    
C1    C19   S    
O16   H15   S    
C37   O23   S    
C27   C31   A    
O14   H11   S    
C24   C25   A    
C12   O3    A    
O23   H24   S    
O18   H17   S    
C5    C18   A    
C20   C28   A    
C42   H27   S    
C33   O7    A    
O20   H19   S    
O8    Zn2   S    
C22   O21   S    
C29   C30   A    
C11   C16   A    
C2    C38   S    
C1    O1    A    
C8    O13   S    
C3    C35   S    
C29   H1    S    
C40   H14   S    
C20   O16   S    
C43   H31   S    
C16   O14   S    
O21   C41   S    
C42   H26   S    
C5    C14   A    
C17   O10   S    
C4    C38   S    
O25   H28   S    
C7    C19   A    
C39   H5    S    
C22   C24   A    
C33   O8    A    
C3    C4    S    
C43   H30   S    
C20   C32   A    
C41   H22   S    
C2    C36   S    
C6    C17   A    
C5    H3    S    
O9    C39   S    
C28   C29   A    
C23   O5    A    
C9    O12   S    
O19   H18   S    
C10   C13   A    
C26   C30   A    
C32   O15   S    
C25   C27   A    
C13   C17   A    
C2    C3    S    
C25   C26   A    
C1    O2    A    
C31   O17   S    
O6    Zn2   S    
C6    C23   S    
C38   O24   S    
O26   H29   S    
C43   H32   S    
O27   C43   S    
C15   H2    S    
C10   C11   A    
O12   H9    S    
O5    Zn1   S    
C2    O25   S    
O13   H10   S    
C39   H6    S    
C27   C28   A    
C32   N1    A    
C14   C15   A    
C40   H13   S    
O22   H23   S    
C13   C14   A    
N1    Zn1   S    
