data_mof_unit_27838.cif
_audit_creation_date              2012-12-11T16:19:01-0500
_audit_creation_method            fapswitch 2.2
_symmetry_space_group_name_H-M    P1
_symmetry_Int_Tables_number       1
_space_group_crystal_system       triclinic
_cell_length_a                    6.926553
_cell_length_b                    31.312459
_cell_length_c                    35.048124
_cell_angle_alpha                 90.000259
_cell_angle_beta                  90.000158
_cell_angle_gamma                 90.001487
_cell_volume                      7601.49672573

loop_
_atom_site_label
_atom_site_type_symbol
_atom_type_description
_atom_site_fract_x
_atom_site_fract_y
_atom_site_fract_z
_atom_type_partial_charge
O1    O     O_R   0.417270 0.211480 0.210950 -0.533048
O2    O     O_R   0.582730 0.788520 0.789050 -0.533048
O3    O     O_R   0.582730 0.788520 0.710950 -0.532941
O4    O     O_R   0.417270 0.211480 0.289050 -0.532941
O5    O     O_R   0.917270 0.288520 0.289050 -0.532921
O6    O     O_R   0.082730 0.711480 0.710950 -0.532921
O7    O     O_R   0.082730 0.711480 0.789050 -0.533037
O8    O     O_R   0.917270 0.288520 0.210950 -0.533037
O9    O     O_R   0.746940 0.206370 0.288750 -0.538869
O10   O     O_R   0.253060 0.793630 0.711250 -0.538869
O11   O     O_R   0.253060 0.793630 0.788750 -0.538842
O12   O     O_R   0.746940 0.206370 0.211250 -0.538842
O13   O     O_R   0.246940 0.293630 0.211250 -0.538840
O14   O     O_R   0.753060 0.706370 0.788750 -0.538840
O15   O     O_R   0.753060 0.706370 0.711250 -0.538872
O16   O     O_R   0.246940 0.293630 0.288750 -0.538872
C1    C     C_R   0.578306 0.197026 0.302766 0.709489
C2    C     C_R   0.421694 0.802974 0.697234 0.709488
C3    C     C_R   0.421694 0.802981 0.802760 0.709305
C4    C     C_R   0.578306 0.197019 0.197240 0.709305
C5    C     C_R   0.078306 0.302978 0.197237 0.709483
C6    C     C_R   0.921694 0.697022 0.802763 0.709484
C7    C     C_R   0.921696 0.697031 0.697227 0.709852
C8    C     C_R   0.078304 0.302968 0.302773 0.709852
O17   O     O_3   0.583760 0.276950 0.250000 -0.364204
O18   O     O_3   0.416240 0.723050 0.750000 -0.364204
O19   O     O_3   0.083760 0.223050 0.250000 -0.364276
O20   O     O_3   0.916240 0.776950 0.750000 -0.364276
V1    V     V_3+5 0.858600 0.245000 0.250000 1.475036
V2    V     V_3+5 0.141400 0.755000 0.750000 1.475036
V3    V     V_3+5 0.358600 0.255000 0.250000 1.475121
V4    V     V_3+5 0.641400 0.745000 0.750000 1.475121
C9    C     C_R   0.935045 0.587155 0.537871 0.613410
C10   C     C_R   0.064954 0.412845 0.462129 0.613410
C11   C     C_R   0.068309 0.413015 0.037965 0.613670
C12   C     C_R   0.931691 0.586985 0.962035 0.613670
C13   C     C_R   0.430800 0.913062 0.962009 0.613729
C14   C     C_R   0.569200 0.086938 0.037991 0.613729
C15   C     C_R   0.566801 0.087064 0.462078 0.613513
C16   C     C_R   0.433199 0.912936 0.537922 0.613513
N1    N     N_R   0.959972 0.573972 0.574813 -0.549446
N2    N     N_R   0.040028 0.426028 0.425187 -0.549446
N3    N     N_R   0.039878 0.426058 0.074845 -0.549433
N4    N     N_R   0.960122 0.573942 0.925155 -0.549433
N5    N     N_R   0.460166 0.926067 0.925146 -0.549424
N6    N     N_R   0.539834 0.073933 0.074854 -0.549424
N7    N     N_R   0.539937 0.073955 0.425169 -0.549420
N8    N     N_R   0.460063 0.926045 0.574831 -0.549420
C17   C     C_R   0.998487 0.532021 0.583110 0.596333
C18   C     C_R   0.001513 0.467979 0.416890 0.596333
C19   C     C_R   0.997846 0.467858 0.083078 0.596699
C20   C     C_R   0.002154 0.532142 0.916922 0.596699
C21   C     C_R   0.503136 0.967825 0.916932 0.596775
C22   C     C_R   0.496864 0.032175 0.083068 0.596775
C23   C     C_R   0.499486 0.032085 0.416905 0.596534
C24   C     C_R   0.500514 0.967915 0.583095 0.596534
C25   C     C_R   0.006453 0.500887 0.553658 -0.122349
C26   C     C_R   0.993547 0.499113 0.446342 -0.122349
C27   C     C_R   0.989715 0.499007 0.053636 -0.122089
C28   C     C_R   0.010285 0.500993 0.946364 -0.122089
C29   C     C_R   0.511309 0.998978 0.946371 -0.121997
C30   C     C_R   0.488691 0.001022 0.053629 -0.121997
C31   C     C_R   0.491435 0.000941 0.446351 -0.122193
C32   C     C_R   0.508565 0.999059 0.553649 -0.122193
C33   C     C_R   0.989861 0.514726 0.515309 -0.055399
C34   C     C_R   0.010139 0.485274 0.484691 -0.055399
C35   C     C_R   0.010069 0.485287 0.015322 -0.055199
C36   C     C_R   0.989931 0.514713 0.984678 -0.055199
C37   C     C_R   0.489951 0.985290 0.984675 -0.055155
C38   C     C_R   0.510049 0.014710 0.015325 -0.055155
C39   C     C_R   0.510100 0.014719 0.484684 -0.055302
C40   C     C_R   0.489900 0.985281 0.515316 -0.055303
C41   C     C_R   0.952711 0.558035 0.507476 -0.095457
C42   C     C_R   0.047288 0.441965 0.492524 -0.095457
C43   C     C_R   0.050841 0.442121 0.007551 -0.095347
C44   C     C_R   0.949158 0.557879 0.992449 -0.095347
C45   C     C_R   0.448213 0.942165 0.992427 -0.095302
C46   C     C_R   0.551787 0.057835 0.007573 -0.095302
C47   C     C_R   0.549244 0.057951 0.492484 -0.095364
C48   C     C_R   0.450756 0.942048 0.507516 -0.095364
C49   C     C_R   0.036599 0.456682 0.560904 0.375078
C50   C     C_R   0.963401 0.543317 0.439096 0.375078
C51   C     C_R   0.955848 0.543090 0.060840 0.374905
C52   C     C_R   0.044152 0.456910 0.939160 0.374905
C53   C     C_R   0.546169 0.043027 0.939180 0.374845
C54   C     C_R   0.453830 0.956973 0.060820 0.374845
C55   C     C_R   0.459242 0.956800 0.439126 0.374989
C56   C     C_R   0.540757 0.043200 0.560874 0.374989
C57   C     C_R   0.062452 0.428343 0.530531 -0.121017
C58   C     C_R   0.937547 0.571657 0.469469 -0.121017
C59   C     C_R   0.930223 0.571384 0.030424 -0.121163
C60   C     C_R   0.069777 0.428615 0.969576 -0.121163
C61   C     C_R   0.571730 0.071309 0.969607 -0.121206
C62   C     C_R   0.428270 0.928691 0.030393 -0.121206
C63   C     C_R   0.433516 0.928486 0.469523 -0.121093
C64   C     C_R   0.566484 0.071514 0.530477 -0.121092
O21   O     O_2   0.894033 0.628473 0.530508 -0.505049
O22   O     O_2   0.105967 0.371527 0.469492 -0.505049
O23   O     O_2   0.112574 0.371845 0.030679 -0.505076
O24   O     O_2   0.887426 0.628155 0.969321 -0.505076
O25   O     O_2   0.385676 0.871932 0.969272 -0.505102
O26   O     O_2   0.614325 0.128068 0.030728 -0.505102
O27   O     O_2   0.609584 0.128303 0.469399 -0.505112
O28   O     O_2   0.390416 0.871697 0.530601 -0.505112
O29   O     O_2   0.035533 0.520986 0.619562 -0.499776
O30   O     O_2   0.964467 0.479014 0.380438 -0.499776
O31   O     O_2   0.957589 0.478709 0.119440 -0.499935
O32   O     O_2   0.042411 0.521291 0.880560 -0.499935
O33   O     O_2   0.544241 0.978626 0.880595 -0.500022
O34   O     O_2   0.455759 0.021373 0.119405 -0.500022
O35   O     O_2   0.460694 0.021148 0.380502 -0.499922
O36   O     O_2   0.539305 0.978851 0.619498 -0.499922
H1    H     H_    0.087634 0.394974 0.537042 0.199447
H2    H     H_    0.912366 0.605026 0.462958 0.199447
H3    H     H_    0.902174 0.604653 0.036898 0.199309
H4    H     H_    0.097826 0.395347 0.963102 0.199309
H5    H     H_    0.600539 0.104550 0.963144 0.199273
H6    H     H_    0.399461 0.895450 0.036856 0.199273
H7    H     H_    0.406772 0.895166 0.463030 0.199375
H8    H     H_    0.593228 0.104834 0.536970 0.199375
C65   C     C_R   0.196878 0.396726 0.367349 -0.079264
C66   C     C_R   0.803122 0.603274 0.632651 -0.079264
C67   C     C_R   0.804396 0.602981 0.867096 -0.079335
C68   C     C_R   0.195604 0.397019 0.132904 -0.079335
C69   C     C_R   0.695249 0.102901 0.132974 -0.079381
C70   C     C_R   0.304751 0.897099 0.867026 -0.079381
C71   C     C_R   0.303915 0.896908 0.632810 -0.079329
C72   C     C_R   0.696085 0.103092 0.367190 -0.079329
H9    H     H_    0.304804 0.421687 0.368829 0.147331
H10   H     H_    0.695196 0.578312 0.631171 0.147331
H11   H     H_    0.697455 0.577801 0.868392 0.147686
H12   H     H_    0.302545 0.422199 0.131608 0.147686
H13   H     H_    0.801918 0.077662 0.131728 0.147767
H14   H     H_    0.198082 0.922338 0.868272 0.147767
H15   H     H_    0.196603 0.922006 0.631445 0.147546
H16   H     H_    0.803397 0.077994 0.368555 0.147546
C73   C     C_R   0.206313 0.366384 0.338049 -0.214681
C74   C     C_R   0.793687 0.633616 0.661951 -0.214681
C75   C     C_R   0.794865 0.633337 0.837806 -0.215001
C76   C     C_R   0.205135 0.366663 0.162194 -0.215001
C77   C     C_R   0.704807 0.133261 0.162262 -0.215144
C78   C     C_R   0.295193 0.866739 0.837738 -0.215144
C79   C     C_R   0.294423 0.866558 0.662104 -0.214944
C80   C     C_R   0.705577 0.133442 0.337896 -0.214944
H17   H     H_    0.320526 0.369031 0.317072 0.157266
H18   H     H_    0.679474 0.630969 0.682928 0.157267
H19   H     H_    0.681579 0.630495 0.816652 0.156897
H20   H     H_    0.318421 0.369505 0.183348 0.156897
H21   H     H_    0.817838 0.130365 0.183463 0.156765
H22   H     H_    0.182162 0.869635 0.816537 0.156765
H23   H     H_    0.180793 0.869329 0.683193 0.157003
H24   H     H_    0.819207 0.130671 0.316807 0.157004
C81   C     C_R   0.068438 0.333466 0.335363 -0.158280
C82   C     C_R   0.931562 0.666534 0.664636 -0.158280
C83   C     C_R   0.931551 0.666516 0.835346 -0.158140
C84   C     C_R   0.068449 0.333484 0.164654 -0.158140
C85   C     C_R   0.568451 0.166511 0.164659 -0.158139
C86   C     C_R   0.431549 0.833489 0.835340 -0.158139
C87   C     C_R   0.431552 0.833476 0.664648 -0.158299
C88   C     C_R   0.568448 0.166523 0.335352 -0.158299
C89   C     C_R   0.921673 0.330948 0.363780 0.335286
C90   C     C_R   0.078327 0.669052 0.636220 0.335286
C91   C     C_R   0.077159 0.669290 0.863975 0.335726
C92   C     C_R   0.922841 0.330710 0.136025 0.335726
C93   C     C_R   0.423163 0.169352 0.135972 0.335755
C94   C     C_R   0.576837 0.830647 0.864028 0.335755
C95   C     C_R   0.577589 0.830797 0.636098 0.335368
C96   C     C_R   0.422411 0.169203 0.363902 0.335368
C97   C     C_R   0.911629 0.362227 0.392352 -0.069679
C98   C     C_R   0.088371 0.637773 0.607648 -0.069679
C99   C     C_R   0.087234 0.638024 0.892564 -0.069145
C100  C     C_R   0.912766 0.361976 0.107436 -0.069145
C101  C     C_R   0.413079 0.138090 0.107379 -0.069025
C102  C     C_R   0.586921 0.861910 0.892621 -0.069025
C103  C     C_R   0.587658 0.862068 0.607515 -0.069388
C104  C     C_R   0.412342 0.137932 0.392485 -0.069388
H25   H     H_    0.798276 0.360428 0.413589 0.157019
H26   H     H_    0.201724 0.639572 0.586411 0.157019
H27   H     H_    0.199634 0.640027 0.913983 0.157174
H28   H     H_    0.800366 0.359973 0.086017 0.157174
H29   H     H_    0.300941 0.140150 0.085910 0.157218
H30   H     H_    0.699059 0.859850 0.914090 0.157218
H31   H     H_    0.700418 0.860140 0.586165 0.157145
H32   H     H_    0.299582 0.139860 0.413835 0.157145
C105  C     C_R   0.049128 0.394976 0.394639 0.285076
C106  C     C_R   0.950872 0.605024 0.605361 0.285076
C107  C     C_R   0.950976 0.605003 0.894615 0.285047
C108  C     C_R   0.049024 0.394997 0.105385 0.285047
C109  C     C_R   0.548993 0.104996 0.105391 0.285059
C110  C     C_R   0.451007 0.895003 0.894609 0.285059
C111  C     C_R   0.450934 0.894987 0.605375 0.285028
C112  C     C_R   0.549066 0.105013 0.394625 0.285028
O37   O     O_3   0.037333 0.439561 0.597064 -0.595566
H33   H     H_    0.922159 0.450895 0.610430 0.337363
O38   O     O_3   0.962667 0.560439 0.402936 -0.595566
H34   H     H_    0.077840 0.549105 0.389570 0.337363
O39   O     O_3   0.951147 0.560148 0.097012 -0.595824
H35   H     H_    0.066197 0.549233 0.110694 0.337512
O40   O     O_3   0.048853 0.439852 0.902988 -0.595824
H36   H     H_    0.933803 0.450767 0.889306 0.337512
O41   O     O_3   0.551929 0.060067 0.903006 -0.595923
H37   H     H_    0.436923 0.049265 0.889240 0.337529
O42   O     O_3   0.448071 0.939932 0.096993 -0.595923
H38   H     H_    0.563077 0.950735 0.110760 0.337529
O43   O     O_3   0.456339 0.939708 0.402957 -0.595744
H39   H     H_    0.571444 0.950809 0.389415 0.337431
O44   O     O_3   0.543661 0.060292 0.597043 -0.595744
H40   H     H_    0.428556 0.049191 0.610585 0.337431
O45   O     O_3   0.788782 0.298182 0.365455 -0.630704
H41   H     H_    0.847520 0.272172 0.354391 0.299019
O46   O     O_3   0.211218 0.701818 0.634545 -0.630704
H42   H     H_    0.152479 0.727827 0.645609 0.299019
O47   O     O_3   0.208830 0.702287 0.865846 -0.630426
H43   H     H_    0.150103 0.728139 0.854493 0.299077
O48   O     O_3   0.791170 0.297713 0.134154 -0.630426
H44   H     H_    0.849897 0.271861 0.145507 0.299078
O49   O     O_3   0.291829 0.202412 0.134048 -0.630358
H45   H     H_    0.350550 0.228222 0.145479 0.299109
O50   O     O_3   0.708171 0.797588 0.865951 -0.630358
H46   H     H_    0.649450 0.771778 0.854521 0.299109
O51   O     O_3   0.709703 0.797884 0.634300 -0.630545
H47   H     H_    0.650958 0.771973 0.645544 0.299085
O52   O     O_3   0.290296 0.202116 0.365700 -0.630545
H48   H     H_    0.349042 0.228027 0.354456 0.299085

loop_
_geom_bond_atom_site_label_1
_geom_bond_atom_site_label_2
_ccdc_geom_bond_type
O17   V3    S    
O42   H38   S    
C56   C64   A    
O18   V4    S    
O12   V1    S    
O19   V1    S    
C28   C52   A    
O41   H37   S    
C37   C45   A    
O52   H48   S    
C10   N2    A    
C78   H22   S    
C32   C40   A    
C76   H20   S    
C59   H3    S    
C39   C47   A    
C77   H21   S    
O15   V4    S    
C29   C37   A    
O43   H39   S    
O16   V3    S    
C30   C54   A    
C75   H19   S    
O12   C4    A    
C98   H26   S    
O8    V1    S    
C91   O47   S    
C42   C57   A    
C73   H17   S    
C101  H29   S    
C41   C58   A    
C26   C50   A    
C103  C111  A    
C73   C81   A    
C56   O44   S    
C66   C106  A    
C38   C46   A    
C90   O46   S    
O39   H35   S    
C46   C61   A    
C93   C101  A    
C98   C106  A    
C34   C42   A    
C67   C75   A    
C45   C62   A    
O1    V3    S    
C40   C48   A    
C17   C25   A    
C22   O34   S    
O3    C2    A    
N8    C24   A    
C65   C73   A    
N7    C112  S    
C70   C110  A    
C1    C88   S    
C16   N8    A    
C55   O43   S    
N8    C111  S    
C2    C87   S    
C54   C62   A    
C27   C35   A    
C21   C29   A    
C26   C34   A    
C95   O51   S    
O11   V2    S    
C69   C77   A    
C102  H30   S    
C23   C31   A    
C44   C59   A    
C16   C48   A    
C51   O39   S    
C11   N3    A    
C97   C105  A    
O37   H33   S    
C93   O49   S    
C49   C57   A    
C100  H28   S    
C79   H23   S    
N7    C23   A    
N5    C21   A    
O40   H36   S    
O16   C8    A    
O7    V2    S    
C12   C44   A    
C30   C38   A    
C99   H27   S    
O3    V4    S    
C61   H5    S    
C78   C86   A    
C19   O31   S    
C11   O23   S    
N1    C17   A    
C68   H12   S    
C64   H8    S    
O45   H41   S    
O5    V1    S    
C6    C83   S    
C52   O40   S    
O17   V1    S    
C57   H1    S    
C94   C102  A    
O19   V3    S    
C35   C36   A    
C18   C26   A    
O20   V4    S    
C66   C74   A    
C33   C41   A    
C85   C93   A    
O50   H46   S    
C68   C108  A    
C17   O29   S    
C14   C46   A    
C83   C91   A    
O49   H45   S    
O47   H43   S    
C67   H11   S    
C70   C78   A    
C71   C111  A    
O44   H40   S    
C55   C63   A    
C72   C112  A    
C65   C105  A    
C15   C47   A    
C92   O48   S    
O48   H44   S    
O51   H47   S    
C27   C51   A    
C16   O28   S    
C60   H4    S    
O10   V2    S    
C52   C60   A    
O46   H42   S    
C90   C98   A    
C75   C83   A    
N2    C18   A    
O11   C3    A    
N6    C22   A    
C24   C32   A    
O8    C5    A    
O13   C5    A    
C12   O24   S    
C71   C79   A    
O9    C1    A    
C48   C63   A    
C15   O27   S    
C72   C80   A    
C20   O32   S    
C50   O38   S    
C31   C39   A    
C29   C53   A    
C43   C60   A    
C102  C110  A    
C96   C104  A    
O4    C1    A    
N2    C105  S    
C9    C41   A    
O6    V2    S    
C76   C84   A    
C10   C42   A    
O18   V2    S    
C4    C85   S    
C97   H25   S    
C25   C49   A    
C12   N4    A    
C23   O35   S    
C35   C43   A    
N6    C109  S    
C13   N5    A    
O7    C6    A    
C82   C90   A    
C63   H7    S    
C91   C99   A    
C8    C81   S    
C86   C94   A    
C15   N7    A    
C58   H2    S    
C77   C85   A    
C104  H32   S    
C92   C100  A    
C13   C45   A    
C65   H9    S    
O1    C4    A    
C32   C56   A    
C101  C109  A    
C31   C55   A    
O2    C3    A    
C3    C86   S    
C68   C76   A    
C11   C43   A    
C71   H15   S    
N4    C20   A    
C69   C109  A    
C79   C87   A    
C53   O41   S    
C36   C44   A    
C66   H10   S    
C51   C59   A    
C103  H31   S    
C69   H13   S    
C50   C58   A    
C99   C107  A    
C74   H18   S    
C80   C88   A    
C9    N1    A    
C39   C40   A    
O14   C6    A    
C72   H16   S    
C89   C97   A    
O20   V2    S    
C14   O26   S    
C84   C92   A    
C13   O25   S    
O9    V1    S    
C62   H6    S    
N3    C19   A    
O5    C8    A    
C89   O45   S    
N3    C108  S    
O10   C2    A    
O6    C7    A    
C54   O42   S    
O15   C7    A    
C10   O22   S    
C5    C84   S    
C87   C95   A    
N1    C106  S    
C95   C103  A    
C9    O21   S    
C88   C96   A    
C67   C107  A    
C37   C38   A    
O13   V3    S    
C14   N6    A    
O4    V3    S    
C104  C112  A    
C28   C36   A    
N4    C107  S    
C49   O37   S    
O38   H34   S    
N5    C110  S    
C47   C64   A    
C53   C61   A    
C19   C27   A    
C100  C108  A    
C70   H14   S    
C20   C28   A    
C33   C34   A    
C7    C82   S    
C81   C89   A    
C18   O30   S    
C22   C30   A    
C21   O33   S    
C96   O52   S    
C74   C82   A    
O14   V4    S    
C94   O50   S    
C24   O36   S    
C80   H24   S    
O2    V4    S    
C25   C33   A    
