data_mof_unit_60072.cif
_audit_creation_date              2012-12-10T16:44:50-0500
_audit_creation_method            fapswitch 2.2
_symmetry_space_group_name_H-M    P1
_symmetry_Int_Tables_number       1
_space_group_crystal_system       triclinic
_cell_length_a                    18.33364
_cell_length_b                    18.603163
_cell_length_c                    18.422546
_cell_angle_alpha                 119.956807
_cell_angle_beta                  119.578153
_cell_angle_gamma                 90.319341
_cell_volume                      4461.65923095

loop_
_atom_site_label
_atom_site_type_symbol
_atom_type_description
_atom_site_fract_x
_atom_site_fract_y
_atom_site_fract_z
_atom_type_partial_charge
C1    C     C_R   0.139239 0.362221 0.000422 0.550382
C2    C     C_R   0.595084 0.381030 0.027284 -0.115999
C3    C     C_R   0.641370 0.428070 0.014188 0.055946
C4    C     C_R   0.861403 0.638298 0.999613 0.497337
C5    C     C_R   0.692565 0.389710 0.977074 0.061576
C6    C     C_2   0.755677 0.807078 0.978036 0.076061
C7    C     C_2   0.711556 0.825645 0.021833 -0.093531
C8    C     C_2   0.822938 0.765683 0.006757 0.024172
C9    C     C_2   0.798279 0.685602 0.987865 0.041848
C10   C     C_2   0.726040 0.275919 0.443972 -0.138970
C11   C     C_2   0.670941 0.192512 0.385433 0.033112
C12   C     C_R   0.734007 0.073080 0.890731 0.055701
C13   C     C_2   0.774024 0.334856 0.555379 -0.163929
C14   C     C_2   0.814868 0.305339 0.612813 -0.104956
C15   C     C_2   0.333518 0.276683 0.049935 -0.127720
C16   C     C_R   0.138149 0.638803 0.277245 0.522309
C17   C     C_2   0.303468 0.189385 0.979977 0.076918
C18   C     C_2   0.279864 0.332645 0.037203 0.082115
C19   C     C_2   0.196138 0.309040 0.009914 -0.037726
C20   C     C_2   0.238177 0.818719 0.001175 0.084934
C21   C     C_2   0.301718 0.795701 0.985632 0.027641
C22   C     C_2   0.169461 0.755085 0.978046 0.084102
C23   C     C_R   0.740328 0.162172 0.950920 -0.004028
C24   C     C_2   0.197076 0.712219 0.021997 -0.103815
C25   C     C_2   0.221454 0.772937 0.556529 -0.140101
C26   C     C_2   0.309522 0.794792 0.613952 -0.122364
C27   C     C_2   0.171140 0.702678 0.446956 -0.007776
C28   C     C_R   0.862994 0.361654 0.723221 0.505544
C29   C     C_2   0.189714 0.708685 0.386369 0.041752
C30   C     C_R   0.635771 0.138271 0.276853 0.523389
C31   C     C_R   0.361920 0.859963 0.723085 0.508509
C32   C     C_R   0.641739 0.864681 0.003136 0.524892
C33   C     C_R   0.360854 0.137759 0.997283 0.531842
C34   C     C_R   0.813427 0.227626 0.989137 0.004452
C35   C     C_R   0.360018 0.859707 0.998739 0.544768
C36   C     C_R   0.635484 0.138920 0.994029 0.502340
C37   C     C_R   0.139836 0.643106 0.003881 0.520806
C38   C     C_R   0.860780 0.360542 0.001441 0.519073
C39   C     C_R   0.894374 0.209331 0.011513 0.107816
C40   C     C_R   0.893052 0.122448 0.972577 -0.098420
C41   C     C_R   0.812586 0.054275 0.907284 -0.104698
C42   C     C_3   0.632165 0.516441 0.036847 -0.280528
C43   C     C_3   0.669051 0.582710 0.149492 -0.422969
C44   C     C_3   0.918842 0.816930 0.058402 -0.243801
C45   C     C_R   0.679837 0.190542 0.977436 -0.013469
C46   C     C_3   0.952877 0.905254 0.159076 -0.441314
C47   C     C_3   0.701616 0.630259 0.927032 -0.293848
C48   C     C_3   0.650989 0.593378 0.813817 -0.416777
C49   C     C_3   0.635201 0.154332 0.422792 -0.278213
C50   C     C_3   0.533493 0.124861 0.360903 -0.412036
C51   C     C_3   0.302033 0.701622 0.930015 -0.300152
C52   C     C_3   0.383516 0.689123 0.999442 -0.427551
C53   C     C_3   0.100612 0.621925 0.404476 -0.249268
C54   C     C_3   0.104886 0.614480 0.485521 -0.435099
C55   C     C_3   0.254212 0.790075 0.421961 -0.284827
C56   C     C_R   0.669135 0.272052 0.995246 -0.012859
C57   C     C_3   0.206851 0.828827 0.362163 -0.422653
C58   C     C_3   0.645677 0.002188 0.794666 -0.237430
C59   C     C_3   0.641951 0.969138 0.698032 -0.450492
C60   C     C_3   0.698678 0.404643 0.905735 -0.266883
C61   C     C_3   0.607459 0.386437 0.816075 -0.460113
C62   C     C_R   0.721159 0.322982 0.989420 -0.003134
C63   C     C_R   0.799511 0.305138 0.997006 0.004602
C64   C     C_R   0.603461 0.300855 0.010061 -0.117137
H1    H     H_    0.730872 0.813785 0.080039 0.087711
H2    H     H_    0.953858 0.107269 0.988529 0.158070
H3    H     H_    0.811155 0.986966 0.867174 0.157412
H4    H     H_    0.557284 0.262942 0.008342 0.157032
H5    H     H_    0.548650 0.404369 0.045874 0.139535
H6    H     H_    0.629853 0.561401 0.170050 0.164718
H7    H     H_    0.739788 0.590146 0.198663 0.167585
H8    H     H_    0.665256 0.647764 0.164334 0.142892
H9    H     H_    0.669525 0.545352 0.020273 0.142071
H10   H     H_    0.560921 0.508230 0.988634 0.143604
H11   H     H_    0.913649 0.947805 0.145429 0.177815
H12   H     H_    0.739568 0.302051 0.409022 0.149791
H13   H     H_    0.948290 0.894812 0.211240 0.150615
H14   H     H_    0.023588 0.939677 0.196520 0.156341
H15   H     H_    0.965725 0.781277 0.075868 0.154281
H16   H     H_    0.922506 0.828674 0.006634 0.205633
H17   H     H_    0.642059 0.646572 0.802369 0.193213
H18   H     H_    0.687090 0.557352 0.781631 0.172081
H19   H     H_    0.584023 0.546783 0.771335 0.132035
H20   H     H_    0.699784 0.573384 0.931050 0.128318
H21   H     H_    0.665563 0.665542 0.959217 0.131067
H22   H     H_    0.510268 0.180428 0.362827 0.159817
H23   H     H_    0.781066 0.404138 0.590295 0.169099
H24   H     H_    0.502892 0.068876 0.280262 0.181916
H25   H     H_    0.510478 0.102946 0.394455 0.141325
H26   H     H_    0.657177 0.097187 0.416574 0.156812
H27   H     H_    0.658817 0.202415 0.503275 0.148653
H28   H     H_    0.445226 0.728023 0.020471 0.174906
H29   H     H_    0.388987 0.709606 0.070224 0.162091
H30   H     H_    0.377784 0.618603 0.958423 0.151928
H31   H     H_    0.240983 0.651597 0.896122 0.156255
H32   H     H_    0.303020 0.686397 0.864015 0.142981
H33   H     H_    0.172118 0.615764 0.536321 0.165259
H34   H     H_    0.812218 0.237060 0.577492 0.120718
H35   H     H_    0.088559 0.668841 0.531765 0.161061
H36   H     H_    0.055455 0.551210 0.447336 0.155604
H37   H     H_    0.033360 0.622978 0.357450 0.180143
H38   H     H_    0.108698 0.561233 0.354890 0.168253
H39   H     H_    0.180739 0.782244 0.280261 0.158169
H40   H     H_    0.151001 0.844485 0.368509 0.156793
H41   H     H_    0.254528 0.890429 0.393956 0.140541
H42   H     H_    0.287308 0.844387 0.503400 0.147924
H43   H     H_    0.307338 0.771419 0.411175 0.156766
H44   H     H_    0.656710 0.025191 0.694960 0.160075
H45   H     H_    0.400893 0.309182 0.118891 0.153658
H46   H     H_    0.690253 0.933913 0.695562 0.169338
H47   H     H_    0.574235 0.922545 0.629599 0.144815
H48   H     H_    0.634470 0.945838 0.798530 0.207798
H49   H     H_    0.589760 0.028333 0.785958 0.159925
H50   H     H_    0.562706 0.319267 0.774576 0.164073
H51   H     H_    0.575674 0.434938 0.841391 0.145934
H52   H     H_    0.615472 0.390458 0.762108 0.138101
H53   H     H_    0.743742 0.471815 0.949604 0.160146
H54   H     H_    0.725942 0.358156 0.868239 0.141636
H55   H     H_    0.168639 0.248438 0.996569 0.131341
H56   H     H_    0.267856 0.730663 0.077387 0.099691
H57   H     H_    0.185635 0.801353 0.590446 0.167789
H58   H     H_    0.344153 0.763316 0.579311 0.118111
I1    I     I_    0.180853 0.120527 0.830618 -0.334132
I2    I     I_    0.344795 0.448793 0.066714 -0.368210
I3    I     I_    0.023535 0.306862 0.119450 -0.375625
I4    I     I_    0.237437 0.951240 0.070546 -0.325537
I5    I     I_    0.034564 0.739438 0.877418 -0.276183
I6    I     I_    0.737479 0.832719 0.870752 -0.411113
O1    O     O_3   1.000000 0.500000 0.000000 -0.453032
O2    O     O_R   0.325040 0.054120 0.939900 -0.495110
O3    O     O_R   0.444330 0.884140 0.060080 -0.550630
O4    O     O_R   0.054210 0.325030 0.939940 -0.514605
O5    O     O_R   0.615830 0.175840 0.060080 -0.543773
O6    O     O_R   0.324160 0.884140 0.939910 -0.513590
O7    O     O_R   0.615850 0.055700 0.939930 -0.556110
O8    O     O_R   0.614980 0.885710 0.939940 -0.501385
O9    O     O_R   0.445830 0.174930 0.060060 -0.561942
O10   O     O_R   0.614300 0.054120 0.229160 -0.542662
O11   O     O_R   0.325070 0.885060 0.770830 -0.531692
O12   O     O_R   0.054160 0.614240 0.229150 -0.551888
O13   O     O_R   0.885070 0.614240 0.060060 -0.562674
O14   O     O_R   0.174980 0.614900 0.229170 -0.532847
O15   O     O_R   0.885740 0.445830 0.770840 -0.532556
O16   O     O_R   0.175880 0.615810 0.060090 -0.537170
O17   O     O_R   0.884210 0.324110 0.939920 -0.523810
O18   O     O_R   0.055710 0.615810 0.939920 -0.502643
O19   O     O_R   0.884190 0.444260 0.060070 -0.542513
O20   O     O_R   0.885120 0.325030 0.770840 -0.541175
O21   O     O_R   0.175010 0.445830 0.060100 -0.499661
O22   O     O_R   0.885710 0.614900 0.939900 -0.530493
O23   O     O_3   0.500040 0.999960 0.000000 -0.449854
O24   O     O_R   0.614930 0.174930 0.229160 -0.541475
O25   O     O_R   0.445880 0.885710 0.770850 -0.549941
O26   O     O_R   0.614330 0.885060 0.060100 -0.552557
Zn1   Zn    Zn3+2 0.956610 0.542450 0.085830 0.915251
Zn2   Zn    Zn3+2 0.129220 0.543380 0.085850 0.975742
Zn3   Zn    Zn3+2 0.957530 0.543380 0.914160 0.955409
Zn4   Zn    Zn3+2 0.956640 0.370790 0.914170 0.966773
Zn5   Zn    Zn3+2 0.543440 0.957510 0.914170 0.935917
Zn6   Zn    Zn3+2 0.542510 0.956570 0.085840 0.929076
Zn7   Zn    Zn3+2 0.370820 0.956570 0.914150 0.981804
Zn8   Zn    Zn3+2 0.543410 0.129170 0.085830 0.935992

loop_
_geom_bond_atom_site_label_1
_geom_bond_atom_site_label_2
_ccdc_geom_bond_type
C33   O2    A    
C15   C18   S    
C57   H41   S    
C3    C42   S    
O25   Zn5   S    
C43   H8    S    
C23   C45   A    
C37   O16   A    
C35   O3    A    
C27   C29   D    
C15   H45   S    
C39   I3    S    
C49   H26   S    
C1    O4    A    
C36   O5    A    
O1    Zn3   S    
C41   H3    S    
O18   Zn3   S    
C53   C54   S    
C20   I4    S    
C12   C23   A    
C62   C63   A    
C30   O10   A    
C64   H4    S    
O22   Zn3   S    
O21   Zn2   S    
O9    Zn8   S    
C59   H46   S    
C48   H17   S    
C18   C19   D    
C46   H11   S    
O8    Zn5   S    
C10   H12   S    
C17   I1    S    
C45   C56   A    
C53   H37   S    
C8    C9    D    
O23   Zn7   S    
C61   H51   S    
C58   H49   S    
C59   H47   S    
C56   C64   A    
C54   H33   S    
C52   H30   S    
C37   O18   A    
C2    H5    S    
O19   Zn1   S    
C50   H24   S    
C51   H32   S    
C25   C26   D    
C12   C58   S    
O23   Zn8   S    
C19   H55   S    
C26   C31   S    
C40   H2    S    
C13   C14   D    
O5    Zn8   S    
O6    Zn7   S    
C54   H36   S    
C16   O12   A    
C17   C33   S    
C49   H27   S    
C35   O6    A    
O1    Zn4   S    
C31   O25   A    
C2    C64   A    
C14   H34   S    
C58   H48   S    
C57   H39   S    
C24   H56   S    
C42   H10   S    
C55   H42   S    
C51   C52   S    
C44   H16   S    
O15   Zn3   S    
O7    Zn5   S    
C11   C30   S    
C46   H14   S    
C33   O9    A    
C4    O13   A    
O1    Zn1   S    
O13   Zn1   S    
C6    C8    S    
C29   C55   S    
C16   C29   S    
C1    C19   S    
O4    Zn4   S    
C34   C39   A    
C55   H43   S    
C60   C61   S    
O23   Zn5   S    
O16   Zn2   S    
C16   O14   A    
C38   O17   A    
O26   Zn6   S    
C12   C41   A    
C11   C49   S    
C7    H1    S    
C50   H25   S    
C30   O24   A    
C47   C48   S    
O11   Zn7   S    
C53   H38   S    
C23   C34   A    
C13   H23   S    
C61   H52   S    
C24   C37   S    
C52   H29   S    
C28   O15   A    
O20   Zn4   S    
C47   H20   S    
C60   H54   S    
C32   O26   A    
O2    Zn7   S    
C40   C41   A    
C20   C22   S    
C9    C47   S    
C43   H6    S    
C36   C45   S    
C55   C57   S    
C60   H53   S    
C22   C24   D    
C54   H35   S    
C52   H28   S    
C42   C43   S    
C31   O11   A    
C36   O7    A    
C47   H21   S    
C21   C51   S    
C32   O8    A    
C38   C63   S    
C15   C17   D    
C57   H40   S    
C42   H9    S    
C43   H7    S    
C7    C32   S    
C5    C60   S    
C28   O20   A    
C44   H15   S    
C8    C44   S    
C1    O21   A    
C3    C5    A    
C10   C13   S    
O1    Zn2   S    
C27   C53   S    
C6    C7    D    
C21   C35   S    
C25   C27   S    
C46   H13   S    
C4    O22   A    
C59   H44   S    
C48   H19   S    
O14   Zn2   S    
O23   Zn6   S    
C2    C3    A    
C58   C59   S    
C6    I6    S    
O17   Zn4   S    
C22   I5    S    
C34   C63   A    
C48   H18   S    
C5    C62   A    
C56   C62   A    
O3    Zn6   S    
C38   O19   A    
C10   C11   D    
C50   H22   S    
O12   Zn1   S    
C39   C40   A    
O10   Zn6   S    
C20   C21   D    
C49   C50   S    
C18   I2    S    
C61   H50   S    
C26   H58   S    
C14   C28   S    
C4    C9    S    
C25   H57   S    
C44   C46   S    
O24   Zn8   S    
C51   H31   S    
