data_mof_unit_47703.cif
_audit_creation_date              2013-03-05T15:55:19-0500
_audit_creation_method            fapswitch 2.2
_symmetry_space_group_name_H-M    P1
_symmetry_Int_Tables_number       1
_space_group_crystal_system       triclinic
_cell_length_a                    14.706707
_cell_length_b                    14.729494
_cell_length_c                    33.310037
_cell_angle_alpha                 96.100402
_cell_angle_beta                  95.878882
_cell_angle_gamma                 61.286057
_cell_volume                      6281.61590616

loop_
_atom_site_label
_atom_site_type_symbol
_atom_site_description
_atom_site_fract_x
_atom_site_fract_y
_atom_site_fract_z
_atom_type_partial_charge
O1    O     O_R   0.679450 0.499830 0.463150 -0.508815
O2    O     O_R   0.480650 0.664000 0.464630 -0.506921
C1    C     C_R   0.390087 0.702250 0.446694 0.880183
O3    O     O_R   0.323930 0.675950 0.455370 -0.516827
O4    O     O_R   0.354700 0.475360 0.451930 -0.525598
C2    C     C_R   0.405479 0.385528 0.434263 0.807612
O5    O     O_R   0.494470 0.320860 0.448390 -0.520318
O6    O     O_R   0.662580 0.357570 0.460050 -0.505916
C3    C     C_R   0.703724 0.408376 0.448067 0.847271
O7    O     O_R   0.680900 0.502040 0.551870 -0.518586
O8    O     O_R   0.481990 0.666040 0.546870 -0.503749
C4    C     C_R   0.392060 0.703876 0.560809 0.879044
O9    O     O_R   0.325370 0.678160 0.544080 -0.540427
O10   O     O_R   0.356040 0.477400 0.534170 -0.533558
C5    C     C_R   0.406403 0.388523 0.548833 0.900341
O11   O     O_R   0.495910 0.323070 0.537100 -0.496748
O12   O     O_R   0.663920 0.359620 0.542290 -0.506569
C6    C     C_R   0.702418 0.413050 0.562698 0.847100
Cr1   Cr    Cr6+3 0.576280 0.580550 0.506370 1.119217
Cr2   Cr    Cr6+3 0.346780 0.572400 0.496520 1.001741
Cr3   Cr    Cr6+3 0.576960 0.347070 0.497150 1.142588
O13   O     O_3   0.500010 0.500010 0.500010 -0.385456
H1    H     H_    0.479527 0.183069 0.315086 0.185099
H2    H     H_    0.503205 0.207325 0.388005 0.217512
C7    C     C_R   0.370757 0.362025 0.393139 -0.095206
C8    C     C_R   0.282752 0.437492 0.371833 0.186337
C9    C     C_R   0.270912 0.421935 0.329746 -0.080385
C10   C     C_R   0.343841 0.332384 0.309421 0.030817
C11   C     C_R   0.424131 0.253582 0.330789 -0.078089
C12   C     C_R   0.437032 0.267833 0.372434 -0.137164
C13   C     C_R   0.403186 0.277359 0.162541 0.291184
C14   C     C_R   0.387148 0.267659 0.120134 0.253501
C15   C     C_R   0.201510 0.333496 0.127895 0.051617
C16   C     C_R   0.217864 0.342703 0.169942 0.337135
C17   C     C_R   0.318679 0.311513 0.187074 -0.224944
C18   C     C_1   0.332686 0.317643 0.230217 0.222017
C19   C     C_1   0.338828 0.323580 0.266392 0.086612
C20   C     C_R   0.286635 0.292324 0.102819 -0.257947
H3    H     H_    0.207025 0.481098 0.312650 0.174119
N1    N     N_R   0.821348 0.400246 0.227820 -0.147243
N2    N     N_R   0.820114 0.405479 0.267853 -0.151209
C21   C     C_R   0.767609 0.367517 0.411976 -0.247182
C22   C     C_R   0.810964 0.425108 0.397769 0.097282
C23   C     C_R   0.838982 0.407678 0.357142 0.366322
C24   C     C_R   0.826890 0.330680 0.331615 -0.185544
C25   C     C_R   0.801239 0.263270 0.348291 -0.206732
C26   C     C_R   0.774173 0.278916 0.388316 0.331422
N3    N     N_R   0.846893 0.235482 0.264784 -0.219631
N4    N     N_R   0.847549 0.230422 0.224695 -0.208117
C27   C     C_R   0.834154 0.312991 0.205354 0.580335
C28   C     C_R   0.834120 0.322865 0.287251 0.585136
C29   C     C_R   0.809464 0.392421 0.138655 0.363235
C30   C     C_R   0.842275 0.380139 0.099076 0.086697
C31   C     C_R   0.932166 0.193094 0.103368 -0.186766
C32   C     C_R   0.901373 0.204938 0.142388 -0.092712
C33   C     C_R   0.844653 0.304058 0.161245 -0.104565
C34   C     C_R   0.907750 0.280044 0.082201 -0.086277
H4    H     H_    0.798996 0.199296 0.329727 0.228593
H5    H     H_    0.981880 0.115355 0.090939 0.168911
H6    H     H_    0.928239 0.135900 0.158711 0.217049
N5    N     N_R   0.313234 0.777200 0.221632 -0.181118
N6    N     N_R   0.315669 0.770404 0.261203 -0.195733
C35   C     C_R   0.367329 0.764198 0.410915 -0.205568
C36   C     C_R   0.271666 0.795195 0.387853 0.063472
C37   C     C_R   0.262288 0.821869 0.347683 0.343686
C38   C     C_R   0.347379 0.820517 0.331242 -0.184303
C39   C     C_R   0.435490 0.805215 0.355895 -0.215781
C40   C     C_R   0.445781 0.779163 0.395840 0.330818
N7    N     N_R   0.381012 0.888223 0.273353 -0.234067
N8    N     N_R   0.377835 0.895623 0.233697 -0.204579
C41   C     C_R   0.342996 0.840898 0.207195 0.663196
C42   C     C_R   0.348010 0.826949 0.287718 0.612110
C43   C     C_R   0.234131 0.875438 0.142549 0.356003
C44   C     C_R   0.218589 0.897238 0.102045 -0.252961
C45   C     C_R   0.389924 0.884135 0.102750 0.288676
C46   C     C_R   0.408202 0.858762 0.143505 0.251602
C47   C     C_R   0.328981 0.857226 0.163743 -0.267032
C48   C     C_R   0.292745 0.907425 0.082383 -0.258432
H7    H     H_    0.143439 0.915569 0.087012 0.204307
H8    H     H_    0.498365 0.809905 0.343531 0.220489
N9    N     N_R   0.393946 0.364916 0.775641 -0.263292
N10   N     N_R   0.400694 0.368903 0.736442 -0.203858
C49   C     C_R   0.370299 0.367747 0.585116 -0.283027
C50   C     C_R   0.309997 0.451496 0.612345 0.071853
C51   C     C_R   0.309671 0.432696 0.652879 0.342978
C52   C     C_R   0.363503 0.330530 0.665326 -0.314080
C53   C     C_R   0.409070 0.245984 0.636739 0.254723
C54   C     C_R   0.412075 0.264471 0.596381 0.263980
N11   N     N_R   0.333830 0.252943 0.720794 -0.209076
N12   N     N_R   0.327339 0.248757 0.760006 -0.257598
C55   C     C_R   0.355974 0.305698 0.787962 0.525502
C56   C     C_R   0.369444 0.314143 0.708380 0.696213
C57   C     C_R   0.230999 0.356345 0.840956 0.140269
C58   C     C_R   0.209383 0.350852 0.880294 0.160635
C59   C     C_R   0.395286 0.267366 0.899939 0.376513
C60   C     C_R   0.416766 0.272040 0.860218 0.087946
C61   C     C_R   0.334774 0.311839 0.830375 -0.144167
C62   C     C_R   0.291600 0.300561 0.909297 -0.265585
C63   C     C_R   0.754775 0.380228 0.603521 -0.234526
C64   C     C_R   0.768896 0.452243 0.631865 0.166868
C65   C     C_R   0.784132 0.435088 0.673171 -0.198199
C66   C     C_R   0.788893 0.346676 0.686809 -0.108108
C67   C     C_R   0.787680 0.268675 0.658909 0.307690
C68   C     C_R   0.772805 0.284198 0.617112 0.222211
C69   C     C_R   0.868213 0.217303 0.823732 0.367789
C70   C     C_R   0.904140 0.202763 0.864654 0.030354
C71   C     C_R   0.853646 0.387084 0.875448 0.146977
C72   C     C_R   0.819385 0.399766 0.834605 -0.243951
C73   C     C_R   0.830109 0.315033 0.808571 -0.062932
C74   C     C_1   0.811485 0.326856 0.765693 0.105243
C75   C     C_1   0.800308 0.335476 0.729733 0.121659
C76   C     C_R   0.902421 0.286880 0.890499 -0.086866
H9    H     H_    0.787385 0.475797 0.822920 0.163064
H10   H     H_    0.790708 0.492054 0.695002 0.169658
C77   C     C_R   0.370053 0.763745 0.600694 -0.240965
C78   C     C_R   0.282527 0.778442 0.619742 -0.186906
C79   C     C_R   0.270850 0.809260 0.660829 0.212618
C80   C     C_R   0.348431 0.824927 0.683492 -0.088494
C81   C     C_R   0.431466 0.820931 0.664318 0.286357
C82   C     C_R   0.440804 0.793551 0.622285 0.272766
C83   C     C_R   0.401795 0.877745 0.832301 0.065023
C84   C     C_R   0.385805 0.900183 0.873942 0.381720
C85   C     C_R   0.228092 0.883673 0.862806 -0.243934
C86   C     C_R   0.244537 0.859665 0.821457 0.220073
C87   C     C_R   0.329077 0.861274 0.806005 -0.025771
C88   C     C_1   0.339151 0.848931 0.762949 0.058801
C89   C     C_1   0.344767 0.839213 0.726851 0.151266
C90   C     C_R   0.294333 0.909877 0.888987 -0.243336
H11   H     H_    0.224919 0.761214 0.603055 0.184061
H12   H     H_    0.160242 0.886707 0.874170 0.172222
O14   O     O_R   0.170070 0.978950 0.027680 -0.553056
O15   O     O_R   0.001760 0.175230 0.026640 -0.546309
C91   C     C_R   0.962892 0.264315 0.045472 0.852391
O16   O     O_R   0.984760 0.333570 0.037150 -0.511134
O17   O     O_R   0.183410 0.309240 0.041890 -0.523623
C92   C     C_R   0.271854 0.259308 0.060231 0.933791
O18   O     O_R   0.340240 0.172500 0.045430 -0.493908
O19   O     O_R   0.309670 0.000990 0.032050 -0.499886
C93   C     C_R   0.258877 0.959954 0.044006 0.860904
O20   O     O_R   0.168330 0.982130 0.939200 -0.542263
O21   O     O_R   0.000140 0.178170 0.944610 -0.518117
C94   C     C_R   0.961304 0.267867 0.930792 0.870335
O22   O     O_R   0.983010 0.336750 0.948660 -0.512854
O23   O     O_R   0.181800 0.312190 0.959860 -0.522533
C95   C     C_R   0.271282 0.263979 0.945354 0.897815
O24   O     O_R   0.338500 0.175680 0.956950 -0.496892
O25   O     O_R   0.308050 0.003930 0.950020 -0.501378
C96   C     C_R   0.257493 0.963439 0.929115 0.839720
Cr4   Cr    Cr6+3 0.087320 0.083240 0.984860 0.996527
Cr5   Cr    Cr6+3 0.087720 0.316210 0.996740 1.032140
Cr6   Cr    Cr6+3 0.317350 0.090340 0.995890 1.171110
O26   O     O_3   0.164130 0.163270 0.992500 -0.385021
N13   N     N_R   0.473313 0.229710 0.094832 0.187552
O27   O     O_R   0.465384 0.277475 0.062922 -0.309200
O28   O     O_R   0.559293 0.146285 0.103159 -0.243693
N14   N     N_R   0.753942 0.203915 0.404261 0.133357
O29   O     O_R   0.800956 0.164016 0.438225 -0.312171
O30   O     O_R   0.706183 0.160623 0.381501 -0.354146
N15   N     N_3   0.808588 0.468227 0.075610 -0.581854
H13   H     H_    0.727472 0.509696 0.074479 0.291531
H14   H     H_    0.838424 0.515838 0.089837 0.297276
N16   N     N_R   0.878781 0.468292 0.341877 0.113137
O31   O     O_R   0.820203 0.567688 0.339222 -0.293639
O32   O     O_R   0.971212 0.423135 0.328153 -0.329218
N17   N     N_R   0.739188 0.493642 0.155303 0.138013
O33   O     O_R   0.652702 0.509994 0.169215 -0.300127
O34   O     O_R   0.762718 0.568729 0.157831 -0.279356
N18   N     N_3   0.183796 0.801514 0.405677 -0.562868
H15   H     H_    0.121077 0.875774 0.402529 0.286054
H16   H     H_    0.164239 0.747024 0.390440 0.290790
N19   N     N_R   0.536357 0.767819 0.420389 0.145341
O35   O     O_R   0.626360 0.725241 0.404680 -0.311285
O36   O     O_R   0.526034 0.816156 0.456045 -0.296775
N20   N     N_R   0.504554 0.254395 0.180473 0.168922
O37   O     O_R   0.544948 0.194016 0.210343 -0.317506
O38   O     O_R   0.556544 0.294667 0.167177 -0.296044
N21   N     N_R   0.166153 0.851836 0.323860 0.128506
O39   O     O_R   0.123752 0.791327 0.318945 -0.328618
O40   O     O_R   0.124526 0.936493 0.304679 -0.304313
N22   N     N_R   0.148907 0.881582 0.162464 0.136537
O41   O     O_R   0.090722 0.844051 0.143911 -0.307866
O42   O     O_R   0.117869 0.940683 0.195493 -0.317961
N23   N     N_R   0.471118 0.882715 0.081847 0.167835
O43   O     O_R   0.495904 0.956778 0.089529 -0.274621
O44   O     O_R   0.508386 0.817123 0.050891 -0.317953
N24   N     N_R   0.507906 0.831886 0.163959 0.179630
O45   O     O_R   0.556966 0.747088 0.183012 -0.270378
O46   O     O_R   0.545844 0.896049 0.166579 -0.257132
N25   N     N_3   0.251053 0.554802 0.598506 -0.596638
H17   H     H_    0.209979 0.609407 0.621301 0.273743
H18   H     H_    0.194331 0.554094 0.577002 0.249634
N26   N     N_R   0.459426 0.178634 0.567005 0.191213
O47   O     O_R   0.548602 0.098993 0.575543 -0.221069
O48   O     O_R   0.413895 0.180659 0.531237 -0.336117
N27   N     N_3   0.103506 0.390574 0.889951 -0.595442
H19   H     H_    0.070386 0.352600 0.870403 0.239471
H20   H     H_    0.063399 0.469628 0.884934 0.265529
N28   N     N_R   0.255814 0.517484 0.681738 0.100704
O49   O     O_R   0.289839 0.583806 0.692566 -0.354422
O50   O     O_R   0.180060 0.521956 0.700364 -0.357596
N29   N     N_R   0.454563 0.141545 0.648783 0.201294
O51   O     O_R   0.424089 0.077353 0.630547 -0.275252
O52   O     O_R   0.528198 0.109619 0.677335 -0.260579
N30   N     N_3   0.145831 0.406300 0.811904 -0.647682
H21   H     H_    0.146836 0.351227 0.789195 0.264843
H22   H     H_    0.155007 0.462886 0.799012 0.274266
N31   N     N_R   0.478596 0.228513 0.930722 0.166714
O53   O     O_R   0.466735 0.275243 0.966713 -0.322398
O54   O     O_R   0.566871 0.147368 0.922935 -0.272132
N32   N     N_3   0.522266 0.234681 0.850480 -0.535246
H23   H     H_    0.528762 0.295724 0.840110 0.257993
H24   H     H_    0.540376 0.176033 0.827286 0.282953
N33   N     N_3   0.943192 0.102242 0.879755 -0.590904
H25   H     H_    0.007409 0.049670 0.863717 0.260088
H26   H     H_    0.885528 0.079424 0.874572 0.283583
N34   N     N_R   0.872305 0.131986 0.797462 0.114505
O55   O     O_R   0.961287 0.055309 0.787297 -0.350159
O56   O     O_R   0.786729 0.133431 0.782082 -0.293839
N35   N     N_R   0.801819 0.173606 0.672861 0.177450
O57   O     O_R   0.738563 0.175272 0.697860 -0.277398
O58   O     O_R   0.875210 0.084970 0.659338 -0.291140
N36   N     N_R   0.773857 0.203145 0.588776 0.167828
O59   O     O_R   0.834232 0.170262 0.558686 -0.318585
O60   O     O_R   0.715836 0.160931 0.593251 -0.266835
N37   N     N_3   0.764986 0.544158 0.618917 -0.531150
H27   H     H_    0.829971 0.520403 0.602177 0.250947
H28   H     H_    0.772115 0.590627 0.643729 0.288223
N38   N     N_3   0.839905 0.476406 0.901321 -0.587177
H29   H     H_    0.760396 0.528387 0.901324 0.265577
H30   H     H_    0.875843 0.512392 0.888879 0.249019
N39   N     N_R   0.462478 0.913391 0.900503 0.145856
O61   O     O_R   0.496091 0.976106 0.892272 -0.306155
O62   O     O_R   0.504465 0.856821 0.931415 -0.322634
N40   N     N_3   0.492482 0.871911 0.817126 -0.540045
H31   H     H_    0.468637 0.927785 0.795947 0.283196
H32   H     H_    0.534021 0.798662 0.802401 0.255653
N41   N     N_R   0.505552 0.844972 0.687606 0.168215
O63   O     O_R   0.596377 0.770126 0.698060 -0.335985
O64   O     O_R   0.475191 0.937152 0.705318 -0.301402
N42   N     N_R   0.516341 0.802798 0.601185 0.182184
O65   O     O_R   0.610240 0.773180 0.616787 -0.277999
O66   O     O_R   0.488526 0.849129 0.567482 -0.286601
N43   N     N_3   0.173151 0.838037 0.794660 -0.556435
H33   H     H_    0.112233 0.844568 0.810499 0.264853
H34   H     H_    0.213176 0.760558 0.783643 0.265255
N44   N     N_3   0.183032 0.819591 0.680249 -0.540874
H35   H     H_    0.135347 0.800232 0.659717 0.267644
H36   H     H_    0.138640 0.897937 0.689420 0.274062
N45   N     N_3   0.208559 0.530919 0.392450 -0.610593
H37   H     H_    0.169997 0.509651 0.411166 0.250879
H38   H     H_    0.151916 0.579769 0.371871 0.261787
N46   N     N_R   0.132063 0.378959 0.195359 0.109461
O67   O     O_R   0.053754 0.471540 0.192381 -0.307295
O68   O     O_R   0.131644 0.319023 0.221279 -0.343261
N47   N     N_3   0.099571 0.356806 0.110905 -0.593461
H39   H     H_    0.073284 0.314093 0.124842 0.237956
H40   H     H_    0.049463 0.435834 0.116572 0.299032
N48   N     N_3   0.827048 0.499480 0.425171 -0.519390
H41   H     H_    0.864937 0.532304 0.412128 0.295328
H42   H     H_    0.877579 0.459000 0.449035 0.227452

loop_
_geom_bond_atom_site_label_1
_geom_bond_atom_site_label_2
_geom_bond_distance
_ccdc_geom_bond_type
N19   O35   1.301409 A    
N47   H40   1.044624 S    
N1    N2    1.329028 A    
N17   O33   1.301232 A    
O15   Cr4   1.917231 S    
N29   O51   1.301217 A    
C31   C32   1.386143 A    
O25   Cr6   1.919468 S    
C59   C60   1.407469 A    
C53   C54   1.408842 A    
C45   N23   1.433312 S    
C48   C93   1.479989 S    
O20   C96   1.277430 A    
N38   H30   1.045377 S    
N9    N10   1.329160 A    
C85   C90   1.405072 A    
C59   C62   1.417768 A    
O21   Cr4   1.928800 S    
C85   C86   1.401135 A    
O4    Cr2   1.920144 S    
C70   C76   1.422869 A    
C79   N44   1.439076 S    
C23   C24   1.413784 A    
C84   N39   1.435950 S    
N19   O36   1.301509 A    
O8    Cr1   1.916465 S    
C3    C21   1.491475 S    
C57   C58   1.398984 A    
C23   N16   1.434521 S    
C49   C50   1.416563 A    
H1    C11   1.083907 S    
C9    C10   1.395760 A    
N14   O29   1.301538 A    
N34   O56   1.300525 A    
C14   C20   1.415491 A    
N23   O44   1.300892 A    
C95   O24   1.269310 A    
O4    C2    1.276668 A    
N20   O37   1.301234 A    
C40   N19   1.436338 S    
N1    C27   1.356142 A    
C2    C7    1.477443 S    
C26   N14   1.436646 S    
C24   C28   1.480739 S    
N43   H33   1.045694 S    
O16   Cr5   2.035289 S    
N10   C56   1.357753 A    
C72   C73   1.394073 A    
C1    O3    1.274272 A    
C16   C17   1.401019 A    
C71   C76   1.417977 A    
C76   C94   1.496156 S    
N25   H18   1.045672 S    
C57   N30   1.436735 S    
C80   C81   1.409035 A    
N42   O65   1.299892 A    
O23   Cr5   1.918600 S    
C67   C68   1.412688 A    
O25   C96   1.274829 A    
C66   C67   1.404766 A    
C74   C75   1.204103 T    
C43   N22   1.437965 S    
N32   H23   1.045085 S    
N3    C28   1.357856 A    
C38   C42   1.464145 S    
C78   H11   1.082268 S    
C17   C18   1.430206 S    
C9    H3    1.084262 S    
O15   C91   1.272736 A    
N21   O40   1.301370 A    
C18   C19   1.196128 T    
Cr6   O26   1.972839 S    
N15   H14   1.044669 S    
N28   O49   1.301013 A    
C20   C92   1.479197 S    
N13   O28   1.301312 A    
C4    C77   1.487392 S    
N5    C41   1.355270 A    
N18   H16   1.043938 S    
C49   C54   1.417181 A    
O2    Cr1   1.929646 S    
N17   O34   1.300786 A    
C69   N34   1.432810 S    
Cr3   O13   1.972666 S    
C25   H4    1.083164 S    
C53   N29   1.436064 S    
C65   H10   1.084477 S    
N29   O52   1.301218 A    
C34   C91   1.473292 S    
C66   C75   1.440148 S    
N7    N8    1.331176 A    
N40   H32   1.045683 S    
N45   H37   1.045490 S    
C68   N36   1.436033 S    
N38   H29   1.045597 S    
N22   O42   1.301581 A    
O12   C6    1.279692 A    
N16   O32   1.301196 A    
C31   H5    1.083477 S    
O22   Cr5   2.044012 S    
C43   C44   1.390699 A    
C59   N31   1.440031 S    
N44   H36   1.045587 S    
C30   N15   1.434732 S    
C60   N32   1.435313 S    
C5    O11   1.273136 A    
C35   C36   1.419113 A    
C29   C33   1.417468 A    
N31   O53   1.301377 A    
C65   C66   1.392412 A    
O10   Cr2   1.924658 S    
O17   C92   1.272605 A    
Cr1   O13   1.971522 S    
O1    C3    1.274863 A    
C50   C51   1.407758 A    
C81   C82   1.417056 A    
Cr4   O26   1.971607 S    
N11   N12   1.329395 A    
N35   O57   1.300706 A    
C30   C34   1.409774 A    
C52   C53   1.408351 A    
O6    C3    1.278099 A    
C5    C49   1.484075 S    
N27   H19   1.045700 S    
N43   H34   1.045616 S    
C7    C8    1.418278 A    
C51   C52   1.408492 A    
O1    Cr1   2.034375 S    
O11   Cr3   2.036280 S    
N25   H17   1.041954 S    
C27   C33   1.478427 S    
N48   H41   1.042173 S    
C39   C40   1.397142 A    
O24   Cr6   2.040627 S    
C86   N43   1.438531 S    
N26   O48   1.301438 A    
C72   H9    1.084370 S    
N7    C42   1.356241 A    
N48   H42   1.045766 S    
C45   C46   1.411155 A    
N23   O43   1.300798 A    
C83   C87   1.407858 A    
C11   C12   1.388085 A    
C8    N45   1.437280 S    
C29   N17   1.435136 S    
N35   O58   1.301141 A    
C13   N20   1.438621 S    
N15   H13   1.045549 S    
C15   N47   1.434784 S    
O7    Cr1   2.046176 S    
O8    C4    1.279804 A    
N34   O55   1.300802 A    
C60   C61   1.408883 A    
C32   C33   1.401477 A    
N42   O66   1.301524 A    
N37   H27   1.045534 S    
C8    C9    1.402950 A    
N6    C42   1.355817 A    
C50   N25   1.441931 S    
N39   O62   1.301358 A    
C25   C26   1.394403 A    
C29   C30   1.414041 A    
C55   C61   1.461947 S    
N11   C56   1.354691 A    
N36   O60   1.300988 A    
N9    C55   1.353578 A    
C83   C84   1.408254 A    
N8    C41   1.358118 A    
C64   N37   1.437528 S    
C82   N42   1.439542 S    
N18   H15   1.045634 S    
N30   H22   1.045635 S    
N4    C27   1.357699 A    
N45   H38   1.045692 S    
N32   H24   1.045605 S    
C44   H7    1.083399 S    
N41   O64   1.300834 A    
C22   C23   1.416267 A    
C44   C48   1.401889 A    
C91   O16   1.270616 A    
Cr5   O26   1.972303 S    
O14   Cr4   2.046705 S    
C21   C22   1.420187 A    
C71   C72   1.401003 A    
N24   O46   1.300487 A    
N47   H39   1.045615 S    
C10   C11   1.390921 A    
C57   C61   1.408185 A    
C41   C47   1.469873 S    
C46   N24   1.437328 S    
N22   O41   1.301292 A    
N46   O68   1.301208 A    
N16   O31   1.301311 A    
C7    C12   1.409087 A    
C54   N26   1.439313 S    
C70   N33   1.434272 S    
C69   C73   1.400964 A    
N44   H35   1.045613 S    
N3    N4    1.330270 A    
C43   C47   1.412498 A    
O9    Cr2   2.035181 S    
C80   C89   1.439977 S    
O10   C5    1.277123 A    
C13   C14   1.411599 A    
C81   N41   1.433002 S    
C39   H8    1.083921 S    
Cr2   O13   1.972964 S    
O23   C95   1.276310 A    
O6    Cr3   1.919170 S    
C6    C63   1.497753 S    
C16   N46   1.438586 S    
C58   N27   1.434435 S    
C71   N38   1.433111 S    
C2    O5    1.269984 A    
C62   C95   1.479172 S    
C1    C35   1.490283 S    
O19   Cr6   1.924385 S    
O17   Cr5   1.926988 S    
C69   C70   1.410294 A    
C35   C40   1.420750 A    
C79   C80   1.401590 A    
C15   C20   1.417665 A    
C83   N40   1.435422 S    
C63   C64   1.420689 A    
N26   O47   1.301225 A    
N46   O67   1.300800 A    
N14   O30   1.301251 A    
O2    C1    1.278982 A    
N24   O45   1.300847 A    
N33   H26   1.045701 S    
C38   C39   1.394646 A    
C85   H12   1.082563 S    
C52   C56   1.466390 S    
O21   C94   1.278248 A    
C36   C37   1.409132 A    
O5    Cr3   2.042530 S    
C46   C47   1.414873 A    
N12   C55   1.356834 A    
C87   C88   1.440201 S    
C37   N21   1.438205 S    
C10   C19   1.422881 S    
O7    C6    1.275501 A    
C88   C89   1.202309 T    
N33   H25   1.043880 S    
N41   O63   1.300841 A    
C13   C17   1.409057 A    
C64   C65   1.401258 A    
N37   H28   1.045747 S    
N20   O38   1.301397 A    
C15   C16   1.399969 A    
C78   C79   1.396376 A    
C63   C68   1.423773 A    
C90   C96   1.488691 S    
C21   C26   1.417571 A    
C37   C38   1.407288 A    
C84   C90   1.421104 A    
N5    N6    1.327995 A    
N36   O59   1.301334 A    
C45   C48   1.414316 A    
H2    C12   1.082536 S    
O14   C93   1.271030 A    
O19   C93   1.275896 A    
N21   O39   1.300830 A    
C14   N13   1.437571 S    
O3    Cr2   2.043436 S    
C24   C25   1.398852 A    
C51   N28   1.435783 S    
N30   H21   1.044415 S    
C36   N18   1.435634 S    
C77   C82   1.418151 A    
N40   H31   1.045661 S    
C73   C74   1.439513 S    
N39   O61   1.301248 A    
N31   O54   1.301299 A    
C58   C62   1.412887 A    
C94   O22   1.276533 A    
O18   Cr6   2.038173 S    
N28   O50   1.301096 A    
C4    O9    1.271266 A    
N13   O27   1.301188 A    
C32   H6    1.083162 S    
O20   Cr4   2.033594 S    
N2    C28   1.356356 A    
C22   N48   1.442700 S    
C92   O18   1.273347 A    
C77   C78   1.405975 A    
C67   N35   1.434881 S    
C86   C87   1.404741 A    
N27   H20   1.045435 S    
C31   C34   1.401614 A    
O12   Cr3   1.924776 S    
