data_mof_unit_33153.cif
_audit_creation_date              2012-12-10T18:11:41-0500
_audit_creation_method            fapswitch 2.2
_symmetry_space_group_name_H-M    P1
_symmetry_Int_Tables_number       1
_space_group_crystal_system       triclinic
_cell_length_a                    10.488537
_cell_length_b                    12.612627
_cell_length_c                    13.193099
_cell_angle_alpha                 81.946648
_cell_angle_beta                  90.633866
_cell_angle_gamma                 102.862477
_cell_volume                      1684.34834303

loop_
_atom_site_label
_atom_site_type_symbol
_atom_type_description
_atom_site_fract_x
_atom_site_fract_y
_atom_site_fract_z
_atom_type_partial_charge
C1    C     C_R   0.486517 0.438338 0.691305 0.853321
C2    C     C_3   0.063399 0.578722 0.427885 -0.181003
C3    C     C_3   0.987962 0.599081 0.520443 -0.131266
C4    C     C_3   0.878211 0.502360 0.501012 0.028421
C5    C     C_R   0.422102 0.695353 0.062864 -0.206059
C6    C     C_R   0.525161 0.599744 0.199285 -0.121815
C7    C     C_R   0.585462 0.329132 0.828075 0.221738
C8    C     C_R   0.676334 0.354576 0.904676 -0.145771
C9    C     C_R   0.667680 0.436574 0.962594 -0.183275
C10   C     C_R   0.558016 0.484588 0.955402 0.103216
C11   C     C_R   0.478942 0.472138 0.868929 0.062700
C12   C     C_R   0.742427 0.500986 0.500409 0.852418
C13   C     C_R   0.528160 0.549290 0.027838 0.052117
C14   C     C_R   0.444083 0.622229 0.998217 0.151307
C15   C     C_R   0.374489 0.615536 0.907923 -0.238880
C16   C     C_R   0.384474 0.535803 0.848176 -0.175581
C17   C     C_R   0.566340 0.536144 0.131534 -0.091669
C18   C     C_R   0.464040 0.685015 0.162881 -0.205409
C19   C     C_R   0.501983 0.402115 0.800133 -0.218794
C20   C     C_R   0.319124 0.088273 0.346927 -0.286550
C21   C     C_R   0.657248 0.800649 0.627177 0.026471
C22   C     C_R   0.696431 0.907187 0.649798 -0.258263
C23   C     C_R   0.518100 0.561458 0.308955 0.840479
C24   C     C_R   0.640321 0.989148 0.598703 -0.210377
C25   C     C_R   0.542453 0.964228 0.525837 0.021821
C26   C     C_R   0.509336 0.855120 0.502988 0.238638
C27   C     C_R   0.477350 0.042982 0.474273 -0.013324
C28   C     C_R   0.384566 0.012111 0.398355 0.191841
C29   C     C_R   0.357775 0.905537 0.374557 -0.291883
C30   C     C_R   0.419267 0.828313 0.426278 -0.211110
C31   C     C_R   0.498691 0.151358 0.495853 -0.058026
C32   C     C_R   0.345140 0.194075 0.371565 0.066445
C33   C     C_R   0.257572 0.498846 0.500120 0.846457
C34   C     C_3   0.936640 0.421007 0.573500 -0.179800
C35   C     C_3   0.049105 0.517671 0.592873 -0.179438
C36   C     C_3   0.121825 0.497351 0.500275 0.033367
C37   C     C_3   0.012100 0.400641 0.480933 -0.133366
C38   C     C_3   0.951063 0.482057 0.408503 -0.175619
H1    H     H_    0.093796 0.531773 0.667899 0.126729
H2    H     H_    0.746723 0.460252 0.013750 0.131054
H3    H     H_    0.755413 0.312635 0.919469 0.151565
H4    H     H_    0.320644 0.526578 0.783332 0.143490
H5    H     H_    0.295793 0.254331 0.332513 0.136192
H6    H     H_    0.288148 0.881390 0.316064 0.147470
H7    H     H_    0.248524 0.066107 0.288573 0.143016
H8    H     H_    0.565663 0.181905 0.552962 0.137135
H9    H     H_    0.701326 0.736682 0.665821 0.136869
H10   H     H_    0.880188 0.357199 0.632896 0.143419
H11   H     H_    0.676873 0.071110 0.616394 0.148813
H12   H     H_    0.770871 0.926452 0.706017 0.150387
H13   H     H_    0.394977 0.748263 0.404018 0.208366
H14   H     H_    0.025885 0.319799 0.464827 0.143632
H15   H     H_    0.907154 0.467838 0.333333 0.127197
H16   H     H_    0.119811 0.642630 0.368564 0.124796
H17   H     H_    0.974169 0.679927 0.536533 0.143438
H18   H     H_    0.434449 0.734989 0.214696 0.152736
H19   H     H_    0.305664 0.667138 0.886985 0.143193
H20   H     H_    0.362872 0.754343 0.038850 0.138290
N1    N     N_R   0.432930 0.222190 0.444670 -0.105106
N2    N     N_R   0.566370 0.776980 0.554790 -0.130073
O1    O     O_R   0.467970 0.366730 0.627150 -0.621419
O2    O     O_R   0.510820 0.544830 0.662520 -0.605858
O3    O     O_R   0.664630 0.410960 0.482340 -0.613545
O4    O     O_R   0.707470 0.589060 0.517710 -0.628942
O5    O     O_R   0.489180 0.455170 0.337480 -0.587919
O6    O     O_R   0.532030 0.633270 0.372850 -0.634528
O7    O     O_R   0.292530 0.410940 0.482290 -0.626991
O8    O     O_R   0.335370 0.589040 0.517660 -0.637765
Zn1   Zn    Zn3+2 0.471390 0.381080 0.476380 0.953283
Zn2   Zn    Zn3+2 0.528610 0.618920 0.523620 0.926163
C39   C     C_2   0.630077 0.446221 0.175878 0.418931
H21   H     H_    0.715168 0.464663 0.223188 0.025705
O9    O     O_2   0.582122 0.350721 0.166110 -0.550056
N3    N     N_2   0.583442 0.237399 0.774518 -0.302800
H22   H     H_    0.495119 0.209304 0.741463 0.246594
C40   C     C_3   0.636753 0.147675 0.825273 -0.840056
H23   H     H_    0.608085 0.075232 0.784374 0.241172
H24   H     H_    0.597645 0.122854 0.905116 0.259958
H25   H     H_    0.745213 0.171769 0.824604 0.241983

loop_
_geom_bond_atom_site_label_1
_geom_bond_atom_site_label_2
_ccdc_geom_bond_type
C30   H13   S    
C34   C37   S    
C35   C36   S    
C40   H25   S    
C1    O2    A    
C7    C8    A    
C11   C19   A    
C37   C38   S    
N3    C40   S    
C5    H20   S    
C23   O6    A    
C36   C37   S    
C40   H24   S    
C12   O4    A    
O1    Zn1   S    
C15   C16   A    
C33   C36   S    
O2    Zn2   S    
C34   C35   S    
C31   N1    A    
C3    H17   S    
O3    Zn1   S    
C8    C9    A    
C31   H8    S    
C3    C35   S    
C4    C12   S    
C9    C10   A    
C20   H7    S    
C18   H18   S    
C22   H12   S    
C21   C22   A    
C15   H19   S    
C7    N3    S    
C40   H23   S    
C6    C18   A    
C4    C34   S    
C1    C19   S    
N3    H22   S    
C27   C31   A    
C24   C25   A    
C21   N2    A    
C2    H16   S    
C39   O9    D    
C37   H14   S    
C5    C18   A    
C20   C28   A    
C25   C26   A    
C9    H2    S    
O7    Zn1   S    
C35   H1    S    
O4    Zn2   S    
C29   C30   A    
C11   C16   A    
C2    C38   S    
N2    Zn2   S    
C8    H3    S    
C5    C14   A    
N1    Zn1   S    
C4    C38   S    
C17   C39   S    
C7    C19   A    
C29   H6    S    
C22   C24   A    
C34   H10   S    
C3    C4    S    
C16   H4    S    
C33   O7    A    
C20   C32   A    
C2    C36   S    
C24   H11   S    
C12   O3    A    
C6    C17   A    
C28   C29   A    
C10   C13   A    
C1    O1    A    
C26   C30   A    
C25   C27   A    
C13   C17   A    
C23   O5    A    
C2    C3    S    
C39   H21   S    
O6    Zn2   S    
C38   H15   S    
O5    Zn1   S    
C6    C23   S    
C32   H5    S    
C10   C11   A    
O8    Zn2   S    
C27   C28   A    
C14   C15   A    
C32   N1    A    
C13   C14   A    
C26   N2    A    
C33   O8    A    
C21   H9    S    
