data_mof_unit_54213.cif
_audit_creation_date              2012-12-10T17:20:22-0500
_audit_creation_method            fapswitch 2.2
_symmetry_space_group_name_H-M    P1
_symmetry_Int_Tables_number       1
_space_group_crystal_system       triclinic
_cell_length_a                    11.697772
_cell_length_b                    11.032174
_cell_length_c                    9.621692
_cell_angle_alpha                 90.977085
_cell_angle_beta                  90.410055
_cell_angle_gamma                 94.441922
_cell_volume                      1237.74282321

loop_
_atom_site_label
_atom_site_type_symbol
_atom_type_description
_atom_site_fract_x
_atom_site_fract_y
_atom_site_fract_z
_atom_type_partial_charge
C1    C     C_R   0.490703 0.261919 0.500532 0.788857
C2    C     C_R   0.529498 0.081204 0.885366 0.164380
C3    C     C_R   0.573714 0.966874 0.880670 0.178610
C4    C     C_R   0.566925 0.899463 0.755271 -0.238940
C5    C     C_R   0.519761 0.944038 0.632428 0.065557
C6    C     C_R   0.489924 0.065438 0.635062 0.074567
C7    C     C_R   0.478374 0.126884 0.506968 -0.095127
C8    C     C_R   0.465862 0.057852 0.383927 -0.215523
C9    C     C_R   0.472825 0.932380 0.385146 -0.196775
C10   C     C_R   0.502776 0.873461 0.506971 -0.088966
C11   C     C_R   0.679296 0.629478 0.148622 -0.195881
C12   C     C_R   0.284168 0.499661 0.499600 0.826390
C13   C     C_R   0.781734 0.663998 0.082315 -0.000989
C14   C     C_R   0.784160 0.662175 0.938509 -0.240999
C15   C     C_R   0.685581 0.622521 0.863979 -0.189152
C16   C     C_R   0.590205 0.560883 0.928216 0.185944
C17   C     C_R   0.588626 0.562827 0.077113 0.177053
C18   C     C_R   0.413254 0.443169 0.071906 -0.057038
C19   C     C_R   0.412977 0.443683 0.924181 -0.067667
C20   C     C_R   0.503750 0.738460 0.501849 0.767592
C21   C     C_R   0.715817 0.500405 0.500382 0.812234
C22   C     C_1   0.162422 0.500163 0.498996 -0.177650
C23   C     C_1   0.059916 0.500580 0.499422 0.013468
C24   C     C_1   0.940092 0.500835 0.500395 0.015054
C25   C     C_1   0.837570 0.500758 0.500913 -0.175466
C26   C     C_R   0.477550 0.122329 0.766365 -0.212578
Cu1   Cu    Cu3+1 0.499990 0.499990 0.640660 0.928527
Cu2   Cu    Cu3+1 0.500010 0.500010 0.359340 0.936290
H1    H     H_    0.448071 0.100856 0.286915 0.147584
H2    H     H_    0.858432 0.701846 0.884203 0.158448
H3    H     H_    0.684923 0.650948 0.759296 0.186387
H4    H     H_    0.342250 0.396183 0.867917 0.130578
H5    H     H_    0.427595 0.199652 0.779997 0.168040
H6    H     H_    0.606667 0.816369 0.753393 0.158128
H7    H     H_    0.455203 0.881112 0.289598 0.159090
H8    H     H_    0.342889 0.395037 0.125139 0.132205
H9    H     H_    0.671099 0.661995 0.253144 0.191610
N1    N     N_R   0.501070 0.501210 0.147910 -0.190611
N2    N     N_R   0.501110 0.501290 0.852040 -0.197284
O1    O     O_R   0.499990 0.319640 0.618810 -0.592201
O2    O     O_R   0.500000 0.319660 0.381240 -0.575457
O3    O     O_R   0.337190 0.500000 0.618790 -0.575848
O4    O     O_R   0.337200 0.500030 0.381210 -0.572224
O5    O     O_R   0.500000 0.680340 0.618760 -0.591200
O6    O     O_R   0.500010 0.680360 0.381190 -0.594531
O7    O     O_R   0.662800 0.499970 0.618790 -0.590593
O8    O     O_R   0.662810 0.500000 0.381210 -0.586206
C27   C     C_3   0.546964 0.168165 0.008244 -0.424844
C28   C     C_3   0.642374 0.266290 0.977043 -0.752919
H10   H     H_    0.723990 0.226051 0.953251 0.236824
H11   H     H_    0.619858 0.318231 0.884853 0.272961
H12   H     H_    0.656848 0.328310 0.068394 0.249003
H13   H     H_    0.465709 0.209782 0.030738 0.187475
H14   H     H_    0.571273 0.123693 0.104618 0.214145
C29   C     C_3   0.619472 0.910862 0.009390 -0.416394
C30   C     C_3   0.743901 0.955303 0.040735 -0.790831
H15   H     H_    0.800315 0.928867 0.954866 0.250216
H16   H     H_    0.754332 0.054733 0.056609 0.252783
H17   H     H_    0.771266 0.915111 0.139018 0.244620
H18   H     H_    0.564873 0.927721 0.099801 0.184466
H19   H     H_    0.612122 0.811542 0.996722 0.213045
C31   C     C_1   0.880627 0.711854 0.161517 0.220440
N3    N     N_1   0.960011 0.750180 0.225238 -0.288677

loop_
_geom_bond_atom_site_label_1
_geom_bond_atom_site_label_2
_ccdc_geom_bond_type
C23   C24   S    
Cu2   O8    S    
C15   H3    S    
C6    C7    A    
C13   C14   A    
C9    C10   A    
Cu2   O4    S    
C20   O6    A    
C30   H17   S    
Cu2   N1    S    
Cu1   O1    S    
C29   C30   S    
C28   H12   S    
C2    C3    A    
C18   N1    A    
C5    C10   A    
C2    C26   A    
C6    C26   A    
C29   H18   S    
C24   C25   T    
C27   H14   S    
C11   C13   A    
Cu1   O3    S    
C18   H8    S    
C31   N3    T    
C19   N2    A    
C14   H2    S    
C5    C6    A    
C19   H4    S    
C29   H19   S    
Cu1   O7    S    
C1    O2    A    
C27   C28   S    
C20   O5    A    
C30   H16   S    
C21   O7    A    
C12   O4    A    
C17   N1    A    
C22   C23   T    
C27   H13   S    
C28   H10   S    
C4    H6    S    
Cu2   O6    S    
C16   C17   A    
C8    H1    S    
C16   N2    A    
C15   C16   A    
C12   C22   S    
Cu2   O2    S    
C7    C8    A    
C30   H15   S    
C9    H7    S    
C18   C19   A    
C10   C20   S    
Cu1   Cu2   S    
C11   H9    S    
C21   O8    A    
C21   C25   S    
C14   C15   A    
C4    C5    A    
C12   O3    A    
C26   H5    S    
C1    O1    A    
C2    C27   S    
C1    C7    S    
C3    C29   S    
Cu1   O5    S    
C11   C17   A    
C13   C31   S    
C3    C4    A    
Cu1   N2    S    
C8    C9    A    
C28   H11   S    
