data_mof_unit_13827.cif
_audit_creation_date              2012-10-26T19:46:07-0400
_audit_creation_method            fapswitch 2.2
_symmetry_space_group_name_H-M    P1
_symmetry_Int_Tables_number       1
_space_group_crystal_system       triclinic
_cell_length_a                    10.843872
_cell_length_b                    9.525547
_cell_length_c                    15.875655
_cell_angle_alpha                 90.031109
_cell_angle_beta                  90.126142
_cell_angle_gamma                 90.346129
_cell_volume                      1639.82277841

loop_
_atom_site_label
_atom_site_type_symbol
_atom_type_description
_atom_site_fract_x
_atom_site_fract_y
_atom_site_fract_z
_atom_type_partial_charge
C1    C     C_R   0.261784 0.499741 0.500112 0.639260
C2    C     C_R   0.934044 0.599220 0.548460 -0.094601
C3    C     C_R   0.870057 0.501159 0.500229 -0.067062
C4    C     C_R   0.126978 0.499765 0.500350 -0.009026
C5    C     C_R   0.447865 0.073789 0.435234 0.072753
C6    C     C_R   0.446704 0.925216 0.435631 0.061847
C7    C     C_R   0.501243 0.500013 0.340167 0.577920
C8    C     C_R   0.554231 0.926082 0.564123 0.041991
C9    C     C_R   0.553937 0.074763 0.564240 0.035236
C10   C     C_R   0.737309 0.500413 0.500379 0.552809
C11   C     C_R   0.501185 0.499985 0.659807 0.589876
C12   C     C_3   0.646431 0.461682 0.952871 0.423774
C13   C     C_3   0.472458 0.644808 0.048083 -0.220831
C14   C     C_3   0.417985 0.386656 0.047959 -0.225158
C15   C     C_3   0.415746 0.390538 0.950518 -0.241915
C16   C     C_3   0.470059 0.642851 0.950589 -0.232137
C17   C     C_1   0.504175 0.499796 0.749379 0.054491
C18   C     C_3   0.508868 0.498740 0.082764 -0.022689
C19   C     C_3   0.512774 0.497649 0.917080 0.021843
C20   C     C_3   0.640415 0.463552 0.051609 -0.157477
C21   C     C_1   0.508027 0.498880 0.824878 0.011066
C22   C     C_1   0.505632 0.499538 0.174938 -0.057569
C23   C     C_1   0.503363 0.499926 0.250486 0.009594
C24   C     C_R   0.059924 0.402944 0.449215 0.219545
C25   C     C_R   0.062149 0.597669 0.551401 0.210380
C26   C     C_R   0.932080 0.402765 0.452085 -0.105706
Cu1   Cu    Cu3+1 0.500020 0.640660 0.500000 1.043471
Cu2   Cu    Cu3+1 0.500020 0.359340 0.500000 1.046880
H1    H     H_    0.374274 0.664182 0.928786 0.135772
H2    H     H_    0.526391 0.729867 0.924506 0.207304
H3    H     H_    0.706532 0.541337 0.078560 0.169797
H4    H     H_    0.668407 0.360765 0.078615 0.161257
H5    H     H_    0.879697 0.328053 0.414725 0.183674
H6    H     H_    0.883086 0.673777 0.586165 0.188213
H7    H     H_    0.406734 0.128904 0.382904 0.152744
H8    H     H_    0.403180 0.869268 0.384171 0.130013
H9    H     H_    0.801306 0.809957 0.937820 0.401827
H10   H     H_    0.622107 0.220914 0.799035 0.338393
H11   H     H_    0.272937 0.289630 0.285044 0.353301
H12   H     H_    0.321810 0.421603 0.929289 0.154741
H13   H     H_    0.276616 0.696911 0.719034 0.362171
H14   H     H_    0.598333 0.870743 0.615331 0.133510
H15   H     H_    0.597745 0.130768 0.615580 0.134469
H16   H     H_    0.379850 0.674570 0.072102 0.148965
H17   H     H_    0.323510 0.406169 0.072462 0.159522
H18   H     H_    0.445774 0.280348 0.069635 0.166328
H19   H     H_    0.539143 0.725962 0.070406 0.182207
H20   H     H_    0.429505 0.284271 0.923907 0.182975
N1    N     N_R   0.500030 0.852070 0.500020 -0.228372
N2    N     N_R   0.500030 0.147930 0.500020 -0.234994
O1    O     O_R   0.319660 0.618740 0.500000 -0.444605
O2    O     O_2   0.759229 0.605749 0.824572 -0.242722
O3    O     O_3   0.739692 0.746592 0.964075 -0.564895
O4    O     O_2   0.829271 0.265918 0.947949 -0.167738
O5    O     O_2   0.621041 0.173722 0.955659 -0.347225
O6    O     O_3   0.696864 0.276695 0.812827 -0.469881
O7    O     O_2   0.176642 0.159853 0.428492 -0.256566
O8    O     O_2   0.035865 0.229722 0.315802 -0.272831
O9    O     O_3   0.245312 0.360247 0.326648 -0.539028
O10   O     O_2   0.195801 0.832227 0.576575 -0.236004
O11   O     O_2   0.041956 0.774265 0.683713 -0.237945
O12   O     O_R   0.319660 0.381260 0.500000 -0.431617
O13   O     O_3   0.241442 0.626478 0.679677 -0.525836
O14   O     O_R   0.500020 0.618840 0.379440 -0.514975
O15   O     O_R   0.500020 0.381160 0.379440 -0.499676
O16   O     O_R   0.680370 0.618830 0.500010 -0.508172
O17   O     O_R   0.680370 0.381170 0.500010 -0.503708
O18   O     O_R   0.500010 0.618730 0.620560 -0.491068
O19   O     O_R   0.500010 0.381270 0.620560 -0.508200
O20   O     O_2   0.888734 0.540500 0.944161 -0.198716
S1    S     S_3+6 0.762456 0.589246 0.918708 0.060008
S2    S     S_3+6 0.699125 0.289023 0.918591 0.061327
S3    S     S_3+6 0.129062 0.282318 0.378812 0.021180
S4    S     S_3+6 0.135015 0.714012 0.623846 0.056510

loop_
_geom_bond_atom_site_label_1
_geom_bond_atom_site_label_2
_ccdc_geom_bond_type
C11   O19   A    
O20   S1    D    
Cu1   O18   S    
O13   S4    S    
O11   S4    D    
C2    C25   A    
C3    C26   A    
C14   C18   S    
C26   H5    S    
O5    S2    D    
C8    H14   S    
C1    C4    S    
H11   O9    S    
C1    O12   A    
C12   C20   S    
Cu2   O19   S    
C4    C25   A    
C12   S2    S    
H9    O3    S    
C14   H18   S    
C3    C10   S    
C18   C22   S    
C10   O17   A    
C15   C19   S    
Cu1   O1    S    
C1    O1    A    
C2    H6    S    
Cu2   N2    S    
C13   C18   S    
C16   C19   S    
C4    C24   A    
C15   H20   S    
C12   C19   S    
O10   S4    D    
C19   C21   S    
C12   S1    S    
C6    H8    S    
C2    C3    A    
C14   H17   S    
C18   C20   S    
C10   O16   A    
C6    N1    A    
Cu1   O16   S    
C5    C6    A    
C24   S3    S    
C7    C23   S    
C15   H12   S    
C9    H15   S    
C7    O15   A    
Cu1   O14   S    
H13   O13   S    
C16   H2    S    
O3    S1    S    
C5    H7    S    
C5    N2    A    
Cu2   O17   S    
H10   O6    S    
C11   O18   A    
C13   H19   S    
C25   S4    S    
C20   H4    S    
C13   C16   S    
O7    S3    D    
Cu1   Cu2   S    
O2    S1    D    
O9    S3    S    
C22   C23   T    
C11   C17   S    
C7    O14   A    
O4    S2    D    
C16   H1    S    
C14   C15   S    
Cu2   O15   S    
C8    N1    A    
C13   H16   S    
C17   C21   T    
C9    N2    A    
Cu1   N1    S    
O8    S3    D    
C24   C26   A    
C8    C9    A    
O6    S2    S    
C20   H3    S    
Cu2   O12   S    
