data_mof_unit_10476.cif
_audit_creation_date              2013-03-05T16:31:38-0500
_audit_creation_method            fapswitch 2.2
_symmetry_space_group_name_H-M    P1
_symmetry_Int_Tables_number       1
_space_group_crystal_system       triclinic
_cell_length_a                    9.600421
_cell_length_b                    10.774931
_cell_length_c                    15.497133
_cell_angle_alpha                 89.586819
_cell_angle_beta                  74.189592
_cell_angle_gamma                 91.626291
_cell_volume                      1541.62902965

loop_
_atom_site_label
_atom_site_type_symbol
_atom_site_description
_atom_site_fract_x
_atom_site_fract_y
_atom_site_fract_z
_atom_type_partial_charge
O1    O     O_R   0.118810 0.319640 0.500000 -0.550119
O2    O     O_R   0.881230 0.319680 0.499990 -0.539143
C1    C     C_R   0.997924 0.262799 0.500198 0.816455
O3    O     O_R   0.055580 0.499970 0.629840 -0.545964
O4    O     O_R   0.818000 0.500010 0.629830 -0.567497
C2    C     C_R   0.918186 0.502510 0.672099 0.813780
Cu1   Cu    Cu3+1 0.140670 0.499980 0.500000 0.996829
Cu2   Cu    Cu3+1 0.859330 0.500020 0.500000 1.019651
O5    O     O_R   0.118770 0.680320 0.500010 -0.590849
O6    O     O_R   0.881190 0.680360 0.500000 -0.577440
O7    O     O_R   0.182000 0.499990 0.370170 -0.589229
O8    O     O_R   0.944420 0.500030 0.370160 -0.560530
C3    C     C_R   0.001703 0.737558 0.499519 0.797093
C4    C     C_R   0.081868 0.498922 0.328074 0.791474
C5    C     C_R   0.872835 0.508196 0.770680 -0.079475
C6    C     C_R   0.127720 0.486377 0.230355 -0.034628
C7    C     C_R   0.925163 0.540476 0.913200 -0.174558
C8    C     C_R   0.972782 0.531354 0.820159 -0.106285
C9    C     C_R   0.725561 0.493902 0.815495 -0.230403
C10   C     C_R   0.675881 0.494257 0.909498 0.111585
C11   C     C_R   0.777777 0.522226 0.958162 0.126409
C12   C     C_R   0.527528 0.470453 0.956002 -0.009559
C13   C     C_R   0.480234 0.489218 0.050001 0.051729
C14   C     C_R   0.585599 0.517704 0.096183 -0.168411
C15   C     C_R   0.731463 0.532579 0.050984 -0.207599
C16   C     C_R   0.426543 0.423664 0.911948 -0.290241
C17   C     C_R   0.282281 0.398614 0.957471 0.415626
C18   C     C_R   0.230917 0.430389 0.047998 0.043311
C19   C     C_R   0.329611 0.476043 0.094864 0.033235
C20   C     C_R   0.082465 0.416044 0.092702 -0.214180
C21   C     C_R   0.031492 0.442928 0.183324 -0.169196
C22   C     C_R   0.273871 0.507301 0.185353 -0.213844
H1    H     H_    0.808364 0.553691 0.089060 0.174635
H2    H     H_    0.341897 0.548748 0.222882 0.151923
H3    H     H_    0.917764 0.426432 0.217026 0.169720
H4    H     H_    0.003595 0.562396 0.949984 0.160882
H5    H     H_    0.086857 0.546111 0.786979 0.198407
H6    H     H_    0.650399 0.487367 0.775507 0.195701
H7    H     H_    0.560011 0.525010 0.168029 0.166405
H8    H     H_    0.457288 0.398982 0.842370 0.213697
H9    H     H_    0.005470 0.381436 0.058291 0.166562
C23   C     C_R   0.081004 0.068195 0.425711 0.104202
C24   C     C_R   0.992400 0.129788 0.497686 -0.057659
C25   C     C_R   0.892111 0.060996 0.565048 -0.106994
H10   H     H_    0.816912 0.107164 0.619377 0.190611
C26   C     C_R   0.895820 0.931458 0.565564 -0.208033
H11   H     H_    0.820712 0.878769 0.619085 0.144910
C27   C     C_R   0.001893 0.871279 0.499947 -0.067861
C28   C     C_R   0.086862 0.940604 0.427114 0.174457
C29   C     C_3   0.246619 0.945914 0.384800 -0.479705
C30   C     C_3   0.238338 0.086131 0.380681 -0.446064
H12   H     H_    0.308209 0.917264 0.431951 0.217468
H13   H     H_    0.277072 0.902467 0.317685 0.207076
H14   H     H_    0.298676 0.135119 0.422860 0.251253
H15   H     H_    0.258482 0.123746 0.311235 0.198655
C31   C     C_R   0.601976 0.573007 0.440702 0.128242
N1    N     N_R   0.648210 0.500930 0.499430 -0.295136
C32   C     C_R   0.549776 0.414624 0.549075 0.327680
C33   C     C_R   0.400317 0.417225 0.551348 0.324213
N2    N     N_R   0.352300 0.500890 0.499430 -0.262240
C34   C     C_R   0.455208 0.572459 0.440391 0.130530
C35   C     C_3   0.457121 0.709952 0.431322 -0.534170
C36   C     C_3   0.615280 0.710959 0.431580 0.174361
H16   H     H_    0.438582 0.739255 0.366557 0.219597
H17   H     H_    0.387213 0.752549 0.492373 0.188408
H18   H     H_    0.636109 0.758440 0.490566 0.127370
N3    N     N_R   0.596975 0.316091 0.595193 0.166043
O9    O     O_R   0.610875 0.207103 0.558810 -0.348727
O10   O     O_R   0.579102 0.323325 0.681120 -0.410629
N4    N     N_R   0.299895 0.334219 0.611192 0.163951
O11   O     O_R   0.245414 0.367446 0.693696 -0.365809
O12   O     O_R   0.297518 0.216897 0.592216 -0.353368
N5    N     N_R   0.714164 0.751960 0.345835 0.161382
O13   O     O_R   0.807715 0.842310 0.343965 -0.356501
O14   O     O_R   0.710815 0.698692 0.271223 -0.389910
O15   O     O_3   0.190497 0.350408 0.910038 -0.593117
C37   C     C_3   0.170184 0.220601 0.925890 0.051551
H19   H     H_    0.063638 0.193396 0.915290 0.182392
H20   H     H_    0.164525 0.192652 0.996295 0.123651
C38   C     C_3   0.288380 0.149257 0.859849 -0.288856
H21   H     H_    0.295090 0.179133 0.790103 0.302173
H22   H     H_    0.394891 0.169416 0.872831 0.214385
C39   C     C_3   0.256915 0.009447 0.868998 -0.889692
H23   H     H_    0.251568 0.976880 0.938038 0.255265
H24   H     H_    0.344710 0.960519 0.820858 0.268060
H25   H     H_    0.152613 0.985887 0.854017 0.260628

loop_
_geom_bond_atom_site_label_1
_geom_bond_atom_site_label_2
_geom_bond_distance
_ccdc_geom_bond_type
C5    C8    1.400358 A    
N5    O13   1.300381 A    
C9    C10   1.404016 A    
Cu1   Cu2   2.700994 S    
C37   H19   1.111050 S    
C6    C21   1.396825 A    
C5    C9    1.398631 A    
C1    C24   1.433865 S    
C16   C17   1.390088 A    
C13   C19   1.426061 A    
C18   C19   1.421593 A    
C8    H5    1.082189 S    
C19   C22   1.405144 A    
C38   C39   1.525930 S    
C20   C21   1.391071 A    
O7    C4    1.300393 A    
C14   H7    1.076821 S    
C31   N1    1.363077 A    
O5    C3    1.299034 A    
C35   H16   1.111152 S    
C2    C5    1.472313 S    
C29   H12   1.105163 S    
C13   C14   1.417625 A    
C20   H9    1.082518 S    
N4    O11   1.299745 A    
C7    H4    1.083265 S    
C30   H15   1.111648 S    
C23   C30   1.487610 S    
C23   C28   1.377784 A    
C36   H18   1.112600 S    
C33   N2    1.373963 A    
N5    O14   1.302398 A    
O3    Cu1   1.954578 S    
C25   C26   1.397238 A    
C29   C30   1.516962 S    
C37   H20   1.116294 S    
C26   C27   1.405074 A    
C29   H13   1.111530 S    
N3    O9    1.300851 A    
C14   C15   1.388694 A    
O3    C2    1.304257 A    
C36   N5    1.463710 S    
C32   C33   1.426755 A    
C7    C11   1.404026 A    
N2    C34   1.364500 A    
O1    C1    1.296025 A    
C22   H2    1.076267 S    
Cu1   O7    1.941787 S    
C24   C25   1.402441 A    
C35   C36   1.519219 S    
C9    H6    1.072893 S    
Cu2   N1    2.029568 S    
O4    Cu2   1.941784 S    
C39   H23   1.110912 S    
Cu2   O8    1.954578 S    
C7    C8    1.393932 A    
C31   C36   1.490662 S    
C31   C34   1.410195 A    
O15   C37   1.417082 S    
C38   H22   1.110582 S    
C27   C28   1.396037 A    
C39   H24   1.110483 S    
C10   C12   1.425111 A    
C21   H3    1.083230 S    
C23   C24   1.390632 A    
C17   O15   1.385305 S    
Cu1   N2    2.029094 S    
C25   H10   1.082945 S    
C37   C38   1.534289 S    
Cu1   O5    1.960412 S    
C11   C15   1.391384 A    
C26   H11   1.083637 S    
C35   H17   1.110849 S    
O1    Cu1   1.948521 S    
O2    Cu2   1.960411 S    
O8    C4    1.303380 A    
C38   H21   1.109913 S    
O6    C3    1.293539 A    
C3    C27   1.440846 S    
C6    C22   1.397317 A    
C30   H14   1.111470 S    
C18   C20   1.408184 A    
O2    C1    1.292928 A    
C16   H8    1.075017 S    
N1    C32   1.375992 A    
O4    C2    1.302700 A    
C4    C6    1.465761 S    
C34   C35   1.486244 S    
C33   N4    1.428758 S    
C32   N3    1.426929 S    
C39   H25   1.110919 S    
C10   C11   1.416009 A    
Cu2   O6    1.948521 S    
C28   C29   1.494008 S    
C12   C16   1.413537 A    
C17   C18   1.402878 A    
C12   C13   1.420605 A    
N4    O12   1.300936 A    
N3    O10   1.298656 A    
C15   H1    1.083873 S    
