data_mof_unit_12234.cif
_audit_creation_date              2012-12-11T17:37:54-0500
_audit_creation_method            fapswitch 2.2
_symmetry_space_group_name_H-M    P1
_symmetry_Int_Tables_number       1
_space_group_crystal_system       triclinic
_cell_length_a                    12.937129
_cell_length_b                    13.332042
_cell_length_c                    15.506728
_cell_angle_alpha                 117.229287
_cell_angle_beta                  63.736068
_cell_angle_gamma                 97.309436
_cell_volume                      2123.15800613

loop_
_atom_site_label
_atom_site_type_symbol
_atom_type_description
_atom_site_fract_x
_atom_site_fract_y
_atom_site_fract_z
_atom_type_partial_charge
C1    C     C_R   0.046610 0.826870 0.012013 -0.153296
C2    C     C_R   0.670242 0.550253 0.322300 0.049981
C3    C     C_R   0.661519 0.451913 0.923672 -0.025515
C4    C     C_R   0.060436 0.807073 0.302742 0.091160
C5    C     C_R   0.339310 0.512411 0.950644 -0.109248
C6    C     C_R   0.985600 0.183021 0.782137 -0.095604
C7    C     C_R   0.195437 0.507837 0.696571 -0.137232
C8    C     C_R   0.021678 0.273745 0.115492 -0.104073
C9    C     C_R   0.916860 0.194277 0.026717 -0.116976
C10   C     C_R   0.300785 0.589239 0.787642 -0.136724
C11   C     C_R   0.256608 0.415490 0.047537 -0.119908
C12   C     C_R   0.678335 0.473904 0.220097 -0.126324
C13   C     C_R   0.057949 0.280456 0.685556 -0.102783
C14   C     C_R   0.359975 0.431340 0.976002 0.126932
C15   C     C_R   0.050583 0.173051 0.678426 0.047846
C16   C     C_R   0.295020 0.560221 0.690792 0.055352
C17   C     C_R   0.949503 0.188794 0.098579 0.033266
C18   C     C_R   0.455598 0.782085 0.185670 -0.142045
C19   C     C_R   0.349006 0.823579 0.276733 0.233370
C20   C     C_R   0.279470 0.910386 0.294143 0.062897
C21   C     C_R   0.317562 0.953119 0.218525 -0.226596
C22   C     C_R   0.424340 0.911504 0.127961 -0.092414
C23   C     C_R   0.753471 0.516197 0.893307 0.530424
C24   C     C_R   0.493477 0.826569 0.112023 -0.144500
C25   C     C_R   0.162295 0.045628 0.485573 -0.238565
C26   C     C_R   0.059705 0.075615 0.580371 0.064099
C27   C     C_R   0.960151 0.019358 0.579743 0.141920
C28   C     C_R   0.960485 0.942383 0.483860 -0.229525
C29   C     C_R   0.064319 0.904401 0.392247 0.053019
C30   C     C_R   0.166814 0.955830 0.390320 0.054366
C31   C     C_R   0.948284 0.919928 0.678221 -0.425229
C32   C     C_R   0.893224 0.888867 0.760901 0.669346
C33   C     C_R   0.782999 0.943908 0.841671 -0.299656
C34   C     C_R   0.012169 0.708219 0.303650 -0.155439
C35   C     C_R   0.722702 0.012918 0.829548 -0.236265
C36   C     C_R   0.775092 0.034172 0.739919 0.236154
C37   C     C_R   0.890265 0.991376 0.667568 -0.016819
C38   C     C_R   0.817969 0.478994 0.495524 -0.084924
C39   C     C_R   0.710253 0.501234 0.504540 -0.145501
C40   C     C_R   0.673246 0.611615 0.533578 0.105679
C41   C     C_R   0.740591 0.700716 0.560602 -0.168545
C42   C     C_R   0.851148 0.676015 0.543915 -0.174152
C43   C     C_R   0.889584 0.566135 0.512782 -0.108585
C44   C     C_R   0.467618 0.647032 0.616225 -0.203523
C45   C     C_R   0.677772 0.419108 0.988835 -0.195525
C46   C     C_R   0.373634 0.589003 0.603773 0.046458
C47   C     C_R   0.369465 0.546827 0.502730 0.001385
C48   C     C_R   0.458822 0.565954 0.420954 -0.163424
C49   C     C_R   0.565024 0.590586 0.425258 0.064196
C50   C     C_R   0.568960 0.629459 0.525520 0.020950
C51   C     C_R   0.322390 0.347195 0.445370 -0.152787
C52   C     C_R   0.268368 0.257515 0.395020 -0.134656
C53   C     C_R   0.189471 0.276461 0.363994 -0.081832
C54   C     C_R   0.165772 0.385420 0.382050 -0.114178
C55   C     C_R   0.219423 0.475897 0.432842 -0.182961
C56   C     C_R   0.084657 0.806051 0.208159 -0.114348
C57   C     C_R   0.297593 0.457407 0.465594 0.112029
C58   C     C_2   0.470433 0.392277 0.956796 -0.149855
C59   C     C_2   0.567437 0.415538 0.891168 -0.113010
C60   C     C_2   0.996549 0.941368 0.943117 -0.098128
C61   C     C_2   0.098151 0.984547 0.911779 -0.146328
C62   C     C_R   0.782154 0.567770 0.310943 -0.111919
C63   C     C_R   0.935623 0.746337 0.925023 -0.103378
C64   C     C_R   0.984350 0.846200 0.967622 0.116902
H1    H     H_    0.104918 0.881437 0.041521 0.096103
H2    H     H_    0.966524 0.117850 0.808139 0.124379
H3    H     H_    0.150132 0.493576 0.648673 0.114938
H4    H     H_    0.051037 0.302807 0.177692 0.084778
H5    H     H_    0.847789 0.150861 0.007491 0.092901
H6    H     H_    0.357505 0.644472 0.818716 0.086809
H7    H     H_    0.242693 0.361646 0.086077 0.100184
H8    H     H_    0.097097 0.303370 0.620157 0.119125
H9    H     H_    0.576537 0.795223 0.042835 0.112827
H10   H     H_    0.509431 0.715582 0.172103 0.140099
H11   H     H_    0.608973 0.440715 0.197192 0.098570
H12   H     H_    0.264193 0.017939 0.229229 0.114944
H13   H     H_    0.453547 0.945127 0.070174 0.112461
H14   H     H_    0.239343 0.087005 0.487947 0.140147
H15   H     H_    0.883877 0.897953 0.483963 0.144536
H16   H     H_    0.037658 0.890079 0.620762 0.183515
H17   H     H_    0.743002 0.933456 0.914314 0.130840
H18   H     H_    0.635869 0.050134 0.890042 0.158808
H19   H     H_    0.974552 0.548940 0.502380 0.102296
H20   H     H_    0.847406 0.393885 0.471748 0.115396
H21   H     H_    0.657399 0.432167 0.485235 0.114770
H22   H     H_    0.713244 0.785856 0.582361 0.140381
H23   H     H_    0.908897 0.740970 0.549971 0.135244
H24   H     H_    0.473599 0.682280 0.691733 0.118004
H25   H     H_    0.453243 0.537195 0.345719 0.144012
H26   H     H_    0.385906 0.330423 0.466058 0.119780
H27   H     H_    0.290306 0.173078 0.377731 0.123190
H28   H     H_    0.148362 0.206512 0.324188 0.097945
H29   H     H_    0.107784 0.398953 0.354374 0.102619
H30   H     H_    0.996658 0.678282 0.361631 0.123479
H31   H     H_    0.202126 0.559313 0.444279 0.145793
H32   H     H_    0.468096 0.371708 0.017627 0.128596
H33   H     H_    0.566673 0.425996 0.826488 0.116743
H34   H     H_    0.922988 0.972463 0.944250 0.143749
H35   H     H_    0.175628 0.953013 0.905725 0.127540
H36   H     H_    0.635831 0.354294 0.012358 0.133318
H37   H     H_    0.128945 0.866350 0.178991 0.095853
H38   H     H_    0.810625 0.630180 0.367071 0.128350
H39   H     H_    0.884488 0.728679 0.882025 0.200685
H40   H     H_    0.401783 0.548244 0.900731 0.083307
N1    N     N_R   0.037320 0.720000 0.995830 -0.045116
N2    N     N_R   0.946240 0.290870 0.848020 -0.044180
N3    N     N_R   0.146160 0.501170 0.788610 -0.040990
N4    N     N_R   0.025750 0.332680 0.063570 -0.041979
N5    N     N_R   0.962680 0.280000 0.004170 -0.043104
N6    N     N_R   0.209230 0.553860 0.848010 -0.040377
N7    N     N_R   0.175100 0.482030 0.063570 -0.043180
N8    N     N_R   0.996810 0.351820 0.788610 -0.041271
N9    N     N_R   0.790770 0.446140 0.151990 -0.040658
N10   N     N_R   0.824900 0.517970 0.936430 -0.091894
N11   N     N_R   0.003190 0.648180 0.211390 -0.044893
N12   N     N_R   0.774330 0.457010 0.995830 -0.073132
N13   N     N_R   0.053760 0.709130 0.151980 -0.040979
N14   N     N_R   0.853840 0.498830 0.211390 -0.045385
N15   N     N_R   0.974250 0.667320 0.936430 -0.053879
N16   N     N_R   0.225670 0.542990 0.004170 -0.043691
Ni1   Ni    Ni4+2 0.130310 0.630310 0.000000 0.211931
Ni2   Ni    Ni4+2 0.869690 0.369690 0.000000 0.211189
Ni3   Ni    Ni4+2 0.985660 0.509480 0.863750 0.249236
Ni4   Ni    Ni4+2 0.014340 0.490520 0.136250 0.215927
I1    I     I_    0.297389 0.752391 0.384813 -0.563067
O1    O     O_3   0.944738 0.812261 0.771207 -0.684033
C65   C     C_3   0.039039 0.737505 0.677004 0.220739
H41   H     H_    0.036215 0.717825 0.600832 0.086953
H42   H     H_    0.034710 0.654746 0.678755 0.138060
C66   C     C_3   0.154247 0.781310 0.675248 -0.868281
H43   H     H_    0.170078 0.771500 0.735804 0.250787
H44   H     H_    0.225283 0.731969 0.594906 0.246095
H45   H     H_    0.155495 0.871591 0.692003 0.268543
I2    I     I_    0.681701 0.131984 0.717861 -0.472206
O2    O     O_3   0.786948 0.548195 0.811909 -0.650473
C67   C     C_3   0.691017 0.583820 0.808332 0.180135
H46   H     H_    0.608802 0.606523 0.883420 0.079430
H47   H     H_    0.680073 0.517577 0.737096 0.145483
C68   C     C_3   0.714139 0.690111 0.795034 -0.875613
H48   H     H_    0.799980 0.677972 0.727975 0.297828
H49   H     H_    0.646263 0.712412 0.779639 0.220551
H50   H     H_    0.713243 0.758261 0.870418 0.233043

loop_
_geom_bond_atom_site_label_1
_geom_bond_atom_site_label_2
_ccdc_geom_bond_type
O1    C65   S    
C43   H19   S    
C41   C42   A    
C3    C23   A    
C19   C20   A    
N3    Ni3   S    
C2    C12   A    
O2    C67   S    
C20   C30   S    
C53   C54   A    
N16   Ni1   S    
C41   H22   S    
C21   H12   S    
C26   C27   A    
N12   Ni2   S    
C18   C24   A    
C28   C29   A    
C9    H5    S    
C56   H37   S    
C13   N8    A    
C60   H34   S    
C51   H26   S    
C38   C39   A    
C11   C14   A    
C11   H7    S    
C24   H9    S    
C44   C50   A    
N4    N5    A    
C18   C19   A    
C56   N13   A    
C32   O1    S    
C28   H15   S    
C58   H32   S    
C54   H29   S    
N13   Ni1   S    
C33   C35   A    
C6    C15   A    
C54   C55   A    
N9    Ni2   S    
C35   C36   A    
N11   N13   A    
C1    H1    S    
C51   C57   A    
C4    C29   S    
C5    H40   S    
C18   H10   S    
C21   C22   A    
C4    C56   A    
C61   H35   S    
N4    Ni4   S    
C67   C68   S    
C8    N4    A    
C35   H18   S    
C44   C46   A    
C9    N5    A    
C14   C58   S    
C4    C34   A    
C5    N16   A    
C11   N7    A    
C51   C52   A    
C31   H16   S    
N8    Ni3   S    
C55   H31   S    
C16   C46   S    
C39   C40   A    
C15   C26   S    
N2    N8    A    
C25   C26   A    
C63   C64   A    
C25   H14   S    
C3    C45   A    
C31   C37   A    
C60   C61   D    
C66   H44   S    
C65   H42   S    
C29   C30   A    
C2    C49   S    
C47   C57   S    
C63   N15   A    
C47   C48   A    
N2    Ni2   S    
C53   H28   S    
C6    N2    A    
N1    Ni1   S    
C40   C50   S    
N14   Ni4   S    
C5    C14   A    
N10   Ni3   S    
C10   H6    S    
C63   H39   S    
C40   C41   A    
C8    H4    S    
C48   H25   S    
C13   C15   A    
C59   H33   S    
N3    N6    A    
C22   C24   A    
C58   C59   D    
C66   H45   S    
C42   C43   A    
C39   H21   S    
C65   H41   S    
C1    C64   A    
C52   C53   A    
C67   H47   S    
C12   N9    A    
C9    C17   A    
C25   C30   A    
C46   C47   A    
C36   C37   A    
N11   Ni4   S    
C38   H20   S    
N7    Ni4   S    
C31   C32   A    
C7    C16   A    
C34   H30   S    
C22   H13   S    
C67   H46   S    
C45   H36   S    
C36   I2    S    
N10   N12   A    
C68   H48   S    
C13   H8    S    
N15   Ni3   S    
C8    C17   A    
C23   O2    S    
C60   C64   S    
N1    N15   A    
C32   C33   A    
C55   C57   A    
C66   H43   S    
C34   N11   A    
C65   C66   S    
C38   C43   A    
N6    Ni1   S    
C10   C16   A    
C23   N10   A    
C68   H49   S    
C45   N12   A    
C27   C37   S    
C48   C49   A    
C68   H50   S    
C19   I1    S    
C10   N6    A    
C7    N3    A    
N5    Ni2   S    
C62   N14   A    
C7    H3    S    
N9    N14   A    
C6    H2    S    
C20   C21   A    
C49   C50   A    
C12   H11   S    
C27   C28   A    
N7    N16   A    
C52   H27   S    
C42   H23   S    
C44   H24   S    
C33   H17   S    
C2    C62   A    
C1    N1    A    
C62   H38   S    
C3    C59   S    
