data_mof_unit_65876.cif
_audit_creation_date              2012-12-11T16:54:07-0500
_audit_creation_method            fapswitch 2.2
_symmetry_space_group_name_H-M    P1
_symmetry_Int_Tables_number       1
_space_group_crystal_system       triclinic
_cell_length_a                    8.194252
_cell_length_b                    12.705304
_cell_length_c                    16.387494
_cell_angle_alpha                 95.650326
_cell_angle_beta                  92.81332
_cell_angle_gamma                 98.217927
_cell_volume                      1676.928015

loop_
_atom_site_label
_atom_site_type_symbol
_atom_type_description
_atom_site_fract_x
_atom_site_fract_y
_atom_site_fract_z
_atom_type_partial_charge
Ba1   Ba    Ba6+2 0.162890 0.552530 0.460820 1.692781
Ba2   Ba    Ba6+2 0.647290 0.447460 0.539110 1.676247
Br1   Br    Br    0.516990 0.901468 0.628734 -0.629894
Br2   Br    Br    0.988222 0.053293 0.850629 -0.630989
C1    C     C_3   0.381986 0.787136 0.147183 -0.273640
C2    C     C_R   0.735332 0.814668 0.464469 -0.188965
C3    C     C_R   0.708718 0.994632 0.433849 -0.078258
C4    C     C_3   0.875165 0.819695 0.219506 0.340470
C5    C     C_R   0.644339 0.885728 0.428841 -0.009844
C6    C     C_R   0.885663 0.850026 0.509819 0.086329
C7    C     C_R   0.949519 0.962429 0.517543 -0.054659
C8    C     C_R   0.859866 0.035863 0.478741 -0.038363
C9    C     C_R   0.922996 0.148561 0.487968 0.055842
C10   C     C_R   0.165271 0.112445 0.565893 -0.011749
C11   C     C_R   0.101564 0.003698 0.561460 -0.093481
C12   C     C_3   0.466450 0.809090 0.233202 0.342420
C13   C     C_R   0.632585 0.537293 0.266221 -0.287499
C14   C     C_R   0.475013 0.483848 0.240807 0.043389
C15   C     C_R   0.419687 0.475864 0.157649 -0.105079
C16   C     C_3   0.925141 0.939033 0.214534 -0.292381
C17   C     C_R   0.524165 0.520942 0.099704 0.256170
C18   C     C_R   0.685822 0.568611 0.126117 -0.180742
C19   C     C_R   0.739886 0.576709 0.209090 -0.049097
C20   C     C_R   0.384606 0.536447 0.855250 -0.125796
C21   C     C_R   0.333980 0.530776 0.772015 -0.024408
C22   C     C_R   0.278993 0.485284 0.910281 0.255514
C23   C     C_3   0.420392 0.798246 0.697221 0.491004
C24   C     C_R   0.181090 0.472787 0.742823 -0.267966
C25   C     C_R   0.071374 0.428381 0.796566 -0.010565
C26   C     C_R   0.120500 0.433847 0.880284 -0.148684
C27   C     C_3   0.784127 0.316701 0.291304 0.326475
C28   C     C_3   0.821468 0.298578 0.201321 -0.335882
C29   C     C_3   0.994383 0.685046 0.712031 0.371164
C30   C     C_3   0.943275 0.710772 0.798962 -0.323945
C31   C     C_3   0.285039 0.225379 0.363655 0.325437
C32   C     C_3   0.304804 0.108373 0.343257 -0.003004
C33   C     C_3   0.371675 0.855152 0.776489 -0.323000
C34   C     C_3   0.855957 0.161634 0.723079 0.366498
C35   C     C_3   0.840465 0.052108 0.754573 0.094908
C36   C     C_3   0.381255 0.213342 0.764779 0.309567
C37   C     C_3   0.417035 0.185691 0.851479 -0.304309
C38   C     C_R   0.072794 0.183797 0.533025 -0.298089
H1    H     H_    0.504557 0.733052 0.250015 -0.044203
H2    H     H_    0.160663 0.230824 0.385159 -0.066034
H3    H     H_    0.378065 0.260053 0.413724 0.063122
H4    H     H_    0.279197 0.719723 0.144620 0.153058
H5    H     H_    0.182479 0.059945 0.328297 0.067059
H6    H     H_    0.360966 0.078228 0.397524 0.061674
H7    H     H_    0.575628 0.870540 0.231397 -0.000947
H8    H     H_    0.472305 0.765159 0.102522 0.050552
H9    H     H_    0.311208 0.753714 0.661861 0.057359
H10   H     H_    0.480664 0.906804 0.809125 0.142661
H11   H     H_    0.275435 0.905317 0.762780 0.149067
H12   H     H_    0.742649 0.225860 0.170562 0.157397
H13   H     H_    0.322669 0.795233 0.817422 0.057525
H14   H     H_    0.332827 0.859194 0.129344 0.152847
H15   H     H_    0.826434 0.971303 0.180056 0.098074
H16   H     H_    0.771191 0.155568 0.667211 0.067835
H17   H     H_    0.984765 0.184032 0.706217 -0.074518
H18   H     H_    0.870701 0.992116 0.705865 0.071670
H19   H     H_    0.712178 0.028436 0.771636 0.131229
H20   H     H_    0.247610 0.218333 0.756470 -0.008285
H21   H     H_    0.453783 0.292643 0.758547 0.083099
H22   H     H_    0.370334 0.243636 0.896652 0.102325
H23   H     H_    0.797610 0.367944 0.168950 0.056971
H24   H     H_    0.552160 0.189416 0.864609 0.157838
H25   H     H_    0.805718 0.810098 0.275769 -0.078439
H26   H     H_    0.355571 0.103513 0.858471 0.164847
H27   H     H_    0.637060 0.046630 0.404601 0.109143
H28   H     H_    0.174008 0.952401 0.591243 0.137825
H29   H     H_    0.123009 0.267894 0.538493 0.067729
H30   H     H_    0.683861 0.730937 0.460767 0.063647
H31   H     H_    0.504747 0.580385 0.876372 0.099822
H32   H     H_    0.768812 0.600521 0.082132 0.083411
H33   H     H_    0.297197 0.433987 0.138620 0.112855
H34   H     H_    0.953259 0.288481 0.196600 0.138640
H35   H     H_    0.036466 0.397261 0.921920 0.108374
H36   H     H_    0.674765 0.543348 0.330340 0.069130
H37   H     H_    0.795206 0.786261 0.163497 -0.023029
H38   H     H_    0.143293 0.467036 0.678117 0.068466
H39   H     H_    0.939487 0.981644 0.277448 0.087428
H40   H     H_    0.041727 0.954596 0.182877 0.163440
H41   H     H_    0.653857 0.328766 0.295348 0.002904
H42   H     H_    0.866842 0.389762 0.318546 0.057315
H43   H     H_    0.116203 0.659164 0.716293 -0.138609
H44   H     H_    0.906168 0.617388 0.681812 0.092967
H45   H     H_    0.031510 0.777367 0.832143 0.132603
H46   H     H_    0.941094 0.639315 0.833068 0.055174
H47   H     H_    0.818466 0.734797 0.797255 0.159862
I1    I     I_    0.452134 0.085471 0.239478 -0.485306
N1    N     N_2   0.474502 0.519495 0.014830 -0.234441
N2    N     N_2   0.325657 0.485011 0.995481 -0.233188
O1    O     O_2   0.158840 0.763480 0.539220 -0.456037
O2    O     O_2   0.729624 0.426690 0.790209 -0.487290
O3    O     O_3   0.811456 0.236210 0.783982 -0.580998
O4    O     O_3   0.888900 0.629060 0.541050 -0.501416
O5    O     O_3   0.432390 0.444990 0.403690 -0.502053
O6    O     O_2   0.627510 0.552390 0.696520 -0.447140
O7    O     O_3   0.539805 0.734502 0.715227 -0.625381
O8    O     O_2   0.503685 0.116206 0.555121 -0.448211
O9    O     O_3   0.426003 0.133988 0.707820 -0.574130
O10   O     O_3   0.391330 0.697380 0.393380 -0.460373
O11   O     O_2   0.303400 0.881938 0.442857 -0.445557
O12   O     O_3   0.302098 0.277072 0.292438 -0.603483
O13   O     O_3   0.004591 0.777542 0.670882 -0.636534
O14   O     O_3   0.359871 0.850495 0.288285 -0.541178
O15   O     O_2   0.182780 0.447540 0.303450 -0.458435
O16   O     O_3   0.969510 0.643060 0.352850 -0.467363
O17   O     O_2   0.082068 0.572295 0.211327 -0.484962
O18   O     O_3   0.015077 0.768061 0.222806 -0.554516
O19   O     O_2   0.651450 0.236450 0.460750 -0.477735
O20   O     O_3   0.921400 0.370930 0.458880 -0.498665
O21   O     O_3   0.418970 0.302610 0.606550 -0.493173
O22   O     O_3   0.807896 0.225358 0.329218 -0.617136
O23   O     O_3   0.377910 0.555000 0.596240 -0.463180
O24   O     O_3   0.840790 0.356930 0.647080 -0.493991
P1    P     P_3+3 0.983580 0.746680 0.563420 1.004533
P2    P     P_3+3 0.350740 0.415080 0.315970 1.002028
P3    P     P_3+3 0.951116 0.637641 0.246128 0.985302
P4    P     P_3+3 0.826720 0.253310 0.436510 0.986509
P5    P     P_3+3 0.864003 0.364747 0.754618 0.961351
P6    P     P_3+3 0.428783 0.834270 0.388265 1.030666
P7    P     P_3+3 0.460469 0.598195 0.697534 0.951959
P8    P     P_3+3 0.376979 0.164533 0.608448 0.982719

loop_
_geom_bond_atom_site_label_1
_geom_bond_atom_site_label_2
_ccdc_geom_bond_type
C16   H40   S    
C1    H14   S    
C31   C32   S    
C2    C5    A    
C36   H20   S    
C15   H33   S    
C21   C24   A    
C2    H30   S    
Ba2   O20   S    
C13   C19   A    
C36   H21   S    
C4    C16   S    
C24   C25   A    
C15   C17   A    
C20   C22   A    
C14   C15   A    
Ba1   O20   S    
C19   P3    S    
C34   C35   S    
Ba2   O21   S    
C20   H31   S    
C22   N2    S    
C27   H41   S    
C32   H5    S    
Ba1   Ba2   S    
O5    P2    S    
C29   H43   S    
C38   H29   S    
C1    C12   S    
C36   O9    S    
C34   H16   S    
C26   H35   S    
C7    C11   A    
Ba2   O5    S    
C25   P5    S    
C34   O3    S    
C4    H37   S    
C14   P2    S    
O15   P2    D    
C12   O14   S    
C10   C38   A    
C33   H11   S    
O3    P5    S    
C17   C18   A    
O16   P3    S    
O13   P1    S    
C3    C8    A    
O1    P1    D    
C28   H12   S    
C9    C38   A    
C23   H9    S    
C13   C14   A    
C37   H26   S    
O12   P2    S    
O6    P7    D    
C35   H19   S    
Ba2   O19   S    
O9    P8    S    
O23   P7    S    
O24   P5    S    
O4    P1    S    
C29   O13   S    
C12   H7    S    
C31   O12   S    
Ba1   O5    S    
N1    N2    D    
O20   P4    S    
C33   H10   S    
Ba2   P4    S    
C30   H46   S    
C27   H42   S    
O19   P4    D    
O8    P8    D    
C29   H44   S    
C2    C6    A    
C28   H34   S    
C25   C26   A    
C4    O18   S    
C30   H45   S    
Ba2   O23   S    
C27   C28   S    
Br2   C35   S    
C23   O7    S    
O14   P6    S    
C29   C30   S    
Ba1   P1    S    
C20   C21   A    
C31   H2    S    
C21   P7    S    
C12   H1    S    
Ba1   O15   S    
C36   C37   S    
C22   C26   A    
C1    H8    S    
C18   H32   S    
C5    P6    S    
C31   H3    S    
C9    P4    S    
O17   P3    D    
O7    P7    S    
C17   N1    S    
C32   I1    S    
C3    C5    A    
C11   H28   S    
C27   O22   S    
C10   C11   A    
C10   P8    S    
O18   P3    S    
C3    H27   S    
C7    C8    A    
C37   H24   S    
C1    H4    S    
Br1   C23   S    
C30   H47   S    
C6    P1    S    
O10   P6    S    
O21   P8    S    
C23   C33   S    
Ba1   O4    S    
C35   H18   S    
Ba2   O4    S    
C13   H36   S    
C32   H6    S    
Ba2   O24   S    
Ba1   P2    S    
C24   H38   S    
C6    C7    A    
Ba1   O16   S    
C34   H17   S    
C33   H13   S    
O2    P5    D    
C8    C9    A    
Ba2   O6    S    
C4    H25   S    
Ba1   O1    S    
C18   C19   A    
Ba1   O23   S    
C37   H22   S    
C16   H15   S    
C16   H39   S    
O11   P6    D    
Ba1   O10   S    
O22   P4    S    
C28   H23   S    
