data_mof_unit_32979.cif
_audit_creation_date              2012-12-10T18:35:22-0500
_audit_creation_method            fapswitch 2.2
_symmetry_space_group_name_H-M    P1
_symmetry_Int_Tables_number       1
_space_group_crystal_system       triclinic
_cell_length_a                    15.056348
_cell_length_b                    15.556942
_cell_length_c                    16.666953
_cell_angle_alpha                 90.616691
_cell_angle_beta                  101.051453
_cell_angle_gamma                 98.075523
_cell_volume                      3790.66722203

loop_
_atom_site_label
_atom_site_type_symbol
_atom_type_description
_atom_site_fract_x
_atom_site_fract_y
_atom_site_fract_z
_atom_type_partial_charge
C1    C     C_R   0.557209 0.662198 0.511843 0.975697
C2    C     C_R   0.442826 0.337856 0.486602 0.880438
C3    C     C_R   0.591345 0.755026 0.513638 -0.048195
C4    C     C_R   0.410294 0.245641 0.466753 -0.059749
C5    C     C_R   0.713617 0.876431 0.537607 -0.152305
C6    C     C_R   0.297158 0.127722 0.400109 -0.164251
C7    C     C_R   0.683710 0.787853 0.540845 -0.069484
C8    C     C_R   0.321163 0.215165 0.425360 -0.117505
C9    C     C_R   0.529020 0.811398 0.485261 -0.161017
C10   C     C_R   0.474633 0.188656 0.481772 -0.228484
C11   C     C_R   0.557379 0.899782 0.478959 0.078864
C12   C     C_R   0.454309 0.102822 0.452043 0.082742
C13   C     C_R   0.650909 0.932785 0.507787 0.131696
C14   C     C_R   0.363073 0.071147 0.413701 0.154245
C15   C     C_R   0.493702 0.956712 0.450092 0.071171
C16   C     C_R   0.521839 0.046988 0.463527 0.075569
C17   C     C_R   0.616392 0.078383 0.488098 -0.188098
C18   C     C_R   0.402857 0.926639 0.409129 -0.180274
C19   C     C_R   0.679952 0.021772 0.508709 -0.168304
C20   C     C_R   0.339093 0.983528 0.390096 -0.177590
C21   C     C_R   0.170877 0.651700 0.399149 -0.292244
C22   C     C_R   0.827772 0.344874 0.595064 -0.310899
C23   C     C_R   0.509487 0.497509 0.349142 0.974110
C24   C     C_R   0.490066 0.504435 0.651187 0.990393
C25   C     C_R   0.250340 0.615533 0.399791 0.540299
C26   C     C_R   0.748690 0.380975 0.596141 0.536588
C27   C     C_R   0.207747 0.512249 0.494619 0.065448
C28   C     C_R   0.793706 0.490659 0.508349 0.015716
C29   C     C_R   0.117746 0.532674 0.477783 0.028953
C30   C     C_R   0.883547 0.468842 0.523466 0.020708
C31   C     C_R   0.105059 0.611126 0.439298 0.040237
C32   C     C_R   0.895026 0.388181 0.558225 0.010495
C33   C     C_R   0.041378 0.481159 0.500037 -0.080186
C34   C     C_R   0.960576 0.520569 0.502038 -0.048426
C35   C     C_R   0.961887 0.610049 0.483468 0.387627
C36   C     C_R   0.040455 0.391418 0.517316 0.429497
C37   C     C_R   0.028124 0.649504 0.442875 -0.188977
C38   C     C_R   0.972338 0.350165 0.554687 -0.162910
C39   C     C_R   0.503956 0.491942 0.261338 -0.246731
C40   C     C_R   0.478743 0.502820 0.736501 -0.275189
C41   C     C_R   0.430528 0.433161 0.220011 -0.269441
C42   C     C_R   0.507937 0.435514 0.784321 -0.252988
C43   C     C_R   0.387002 0.447483 0.141311 0.448363
C44   C     C_R   0.479938 0.418878 0.858017 0.424556
C45   C     C_R   0.421357 0.520504 0.100705 -0.137789
C46   C     C_R   0.412432 0.464151 0.879722 -0.186301
C47   C     C_R   0.491483 0.584161 0.144419 0.307185
C48   C     C_R   0.375607 0.527043 0.827461 0.291567
C49   C     C_R   0.539790 0.564338 0.221897 0.309207
C50   C     C_R   0.418714 0.554715 0.762453 0.342970
C51   C     C_2   0.397758 0.524585 0.010765 0.009958
C52   C     C_2   0.391543 0.454145 0.962083 0.020433
H1    H     H_    0.400772 0.380418 0.253051 0.194958
H2    H     H_    0.550775 0.394166 0.763504 0.268778
H3    H     H_    0.643436 0.146583 0.490213 0.152826
H4    H     H_    0.379852 0.859640 0.389085 0.191417
H5    H     H_    0.775275 0.541100 0.467720 0.234669
H6    H     H_    0.227386 0.465267 0.538998 0.192989
H7    H     H_    0.392308 0.391079 0.988328 0.234612
H8    H     H_    0.408272 0.586815 0.983581 0.230033
H9    H     H_    0.540957 0.212181 0.518002 0.194498
H10   H     H_    0.457363 0.785843 0.471303 0.191395
N1    N     N_R   0.271750 0.551950 0.454510 -0.161516
N2    N     N_R   0.728250 0.448050 0.545490 -0.169564
O1    O     O_R   0.615140 0.606020 0.522930 -0.593758
O2    O     O_R   0.384860 0.393980 0.477070 -0.606247
O3    O     O_R   0.468580 0.639400 0.493740 -0.574882
O4    O     O_R   0.531420 0.360600 0.506260 -0.595693
O5    O     O_R   0.581950 0.481350 0.400520 -0.590401
O6    O     O_R   0.418050 0.518650 0.599480 -0.598447
O7    O     O_R   0.435380 0.514730 0.371330 -0.551216
O8    O     O_R   0.564620 0.485270 0.628670 -0.534564
Zn1   Zn    Zn3+2 0.597860 0.477710 0.519490 1.080486
Zn2   Zn    Zn3+2 0.402140 0.522290 0.480510 1.092378
H11   H     H_    0.024109 0.714502 0.420875 0.178302
H12   H     H_    0.975645 0.284331 0.574616 0.200880
S1    S     S_3+6 0.695070 0.353370 0.679811 0.063150
O9    O     O_2   0.744341 0.289110 0.731152 -0.276625
O10   O     O_2   0.702856 0.434479 0.731918 -0.230079
O11   O     O_3   0.584986 0.309416 0.650282 -0.598802
H13   H     H_    0.574868 0.261331 0.687468 0.385719
S2    S     S_3+6 0.305324 0.640489 0.315753 0.063417
O12   O     O_2   0.296069 0.558855 0.264053 -0.240036
O13   O     O_2   0.258520 0.705854 0.263977 -0.282288
O14   O     O_3   0.416125 0.681840 0.343889 -0.567857
H14   H     H_    0.436473 0.697090 0.292102 0.407315
H15   H     H_    0.157100 0.707495 0.362966 0.197679
H16   H     H_    0.840363 0.286843 0.628194 0.202003
S3    S     S_3+6 0.897974 0.682302 0.522891 0.010344
O15   O     O_2   0.864927 0.647481 0.597406 -0.260798
O16   O     O_2   0.957134 0.768392 0.546552 -0.268731
O17   O     O_3   0.808790 0.698403 0.449870 -0.556807
H17   H     H_    0.836450 0.725577 0.405260 0.374568
S4    S     S_3+6 0.106725 0.320997 0.477958 -0.001431
O18   O     O_2   0.136701 0.356167 0.402218 -0.294393
O19   O     O_2   0.188676 0.309201 0.542067 -0.330330
O20   O     O_3   0.042762 0.223240 0.453581 -0.530728
H18   H     H_    0.084169 0.186727 0.434674 0.386010
S5    S     S_3+6 0.405292 0.657358 0.718430 0.097395
O21   O     O_2   0.489660 0.692498 0.686719 -0.330562
O22   O     O_2   0.324245 0.647344 0.648814 -0.264501
O23   O     O_3   0.390014 0.728794 0.789150 -0.457401
H19   H     H_    0.379116 0.782076 0.759063 0.396647
S6    S     S_3+6 0.645975 0.625580 0.269543 0.093269
O24   O     O_2   0.705809 0.566680 0.317133 -0.281300
O25   O     O_2   0.695389 0.667888 0.206665 -0.199933
O26   O     O_3   0.626296 0.701659 0.333844 -0.545417
H20   H     H_    0.672528 0.752893 0.330856 0.399018
S7    S     S_3+6 0.508405 0.691113 0.106509 0.098735
O27   O     O_2   0.549289 0.757975 0.174032 -0.224982
O28   O     O_2   0.570503 0.692456 0.045704 -0.233028
O29   O     O_3   0.407168 0.718267 0.060274 -0.500512
H21   H     H_    0.422815 0.770707 0.029730 0.409601
S8    S     S_3+6 0.267599 0.558105 0.834698 0.114578
O30   O     O_2   0.280747 0.640223 0.886561 -0.208049
O31   O     O_2   0.214717 0.572421 0.751070 -0.221792
O32   O     O_3   0.206041 0.478640 0.876736 -0.489541
H22   H     H_    0.148315 0.501001 0.879883 0.413485
S9    S     S_3+6 0.529512 0.339618 0.920533 0.075032
O33   O     O_2   0.456972 0.263659 0.924458 -0.261759
O34   O     O_2   0.605490 0.308782 0.886378 -0.204978
O35   O     O_3   0.571766 0.383062 0.015381 -0.539583
H23   H     H_    0.584088 0.332956 0.049825 0.400078
S10   S     S_3+6 0.280204 0.382080 0.103792 0.085277
O36   O     O_2   0.231055 0.362113 0.173371 -0.227093
O37   O     O_2   0.221636 0.428436 0.040280 -0.211814
O38   O     O_3   0.297971 0.287966 0.063336 -0.541092
H24   H     H_    0.236043 0.256885 0.040548 0.407008
H25   H     H_    0.751572 0.048024 0.528473 0.166220
H26   H     H_    0.270127 0.958346 0.359028 0.171972
H27   H     H_    0.270881 0.258796 0.411493 0.230080
H28   H     H_    0.732077 0.745465 0.566025 0.246716
H29   H     H_    0.785231 0.901070 0.559850 0.186152
H30   H     H_    0.227565 0.104542 0.369383 0.161454

loop_
_geom_bond_atom_site_label_1
_geom_bond_atom_site_label_2
_ccdc_geom_bond_type
C19   H25   S    
C15   C18   A    
C21   H15   S    
C29   C33   A    
C27   C29   A    
C23   O5    A    
C4    C8    A    
C49   S6    S    
S6    O25   D    
O20   H18   S    
C24   O6    A    
C47   C49   A    
C38   H12   S    
S1    O9    D    
C5    H29   S    
C21   C31   A    
C50   S5    S    
C22   C32   A    
S10   O37   D    
C35   C37   A    
C3    C7    A    
S7    O28   D    
O14   H14   S    
C40   C50   A    
S9    O35   S    
C45   C51   S    
C15   C16   A    
O2    Zn2   S    
C46   C52   S    
C33   C36   A    
O1    Zn1   S    
C34   C35   A    
C25   N1    A    
C26   N2    A    
O29   H21   S    
C1    O3    A    
C2    O4    A    
C11   C15   A    
C12   C16   A    
C16   C17   A    
O6    Zn2   S    
C1    O1    A    
O26   H20   S    
O5    Zn1   S    
C32   C38   A    
S3    O16   D    
C17   H3    S    
C5    C13   A    
C18   H4    S    
C45   C47   A    
C37   H11   S    
C41   C43   A    
S4    O18   D    
C42   C44   A    
S6    O24   D    
C44   C46   A    
S8    O30   D    
S9    O34   D    
C46   C48   A    
C26   S1    S    
C30   C34   A    
C51   C52   D    
C14   C20   A    
C39   C41   A    
S7    O29   S    
C5    C7    A    
C36   S4    S    
C13   C19   A    
O8    Zn1   S    
C6    C8    A    
S4    O20   S    
O4    Zn1   S    
C28   H5    S    
C9    H10   S    
C1    C3    S    
C2    C4    S    
C3    C9    A    
C52   H7    S    
C23   O7    A    
C6    C14   A    
C9    C11   A    
C40   C42   A    
S5    O21   D    
N2    Zn1   S    
C8    H27   S    
C33   C34   A    
S1    O10   D    
O3    Zn2   S    
S3    O17   S    
S4    O19   D    
C43   C45   A    
C41   H1    S    
C7    H28   S    
C10   C12   A    
S10   O38   S    
C35   S3    S    
C39   C49   A    
C12   C14   A    
C22   H16   S    
C25   S2    S    
C10   H9    S    
C4    C10   A    
O38   H24   S    
C28   N2    A    
C24   O8    A    
C48   S8    S    
S1    O11   S    
C21   C25   A    
C24   C40   S    
S5    O22   D    
C20   H26   S    
O11   H13   S    
C2    O2    A    
C27   H6    S    
O7    Zn2   S    
S8    O31   D    
S9    O33   D    
N1    Zn2   S    
S2    O14   S    
S2    O13   D    
C44   S9    S    
C28   C30   A    
S3    O15   D    
C29   C31   A    
C47   S7    S    
O32   H22   S    
C42   H2    S    
C36   C38   A    
C30   C32   A    
C11   C13   A    
C23   C39   S    
C48   C50   A    
O17   H17   S    
C17   C19   A    
C18   C20   A    
O23   H19   S    
S8    O32   S    
C31   C37   A    
S5    O23   S    
C6    H30   S    
S2    O12   D    
C22   C26   A    
C27   N1    A    
C51   H8    S    
O35   H23   S    
S7    O27   D    
C43   S10   S    
S6    O26   S    
S10   O36   D    
