data_mof_unit_64053.cif
_audit_creation_date              2012-12-10T18:39:01-0500
_audit_creation_method            fapswitch 2.2
_symmetry_space_group_name_H-M    P1
_symmetry_Int_Tables_number       1
_space_group_crystal_system       triclinic
_cell_length_a                    10.681864
_cell_length_b                    11.568784
_cell_length_c                    10.782953
_cell_angle_alpha                 90.000061
_cell_angle_beta                  90.016515
_cell_angle_gamma                 90.000133
_cell_volume                      1332.51605675

loop_
_atom_site_label
_atom_site_type_symbol
_atom_type_description
_atom_site_fract_x
_atom_site_fract_y
_atom_site_fract_z
_atom_type_partial_charge
Br1   Br    Br    0.158601 0.729365 0.619809 -0.402238
Br2   Br    Br    0.133971 0.704768 0.337798 -0.400606
Br3   Br    Br    0.866029 0.704769 0.662187 -0.400619
Br4   Br    Br    0.841407 0.729354 0.380184 -0.402239
C1    C     C_R   0.500000 0.281183 0.500000 0.885140
C2    C     C_R   0.500000 0.718794 0.500000 0.989181
C3    C     C_1   0.500000 0.161039 0.500000 -0.160101
C4    C     C_3   0.071026 0.445507 0.619472 -0.426327
C5    C     C_3   0.070786 0.434503 0.387135 -0.421458
C6    C     C_3   0.929211 0.434511 0.612867 -0.421459
C7    C     C_3   0.928974 0.445504 0.380534 -0.426363
C8    C     C_1   0.500000 0.059123 0.500000 0.038686
C9    C     C_3   0.074184 0.633846 0.493429 0.382917
C10   C     C_3   0.925819 0.633845 0.506564 0.382920
C11   C     C_3   0.121041 0.504618 0.499867 -0.018780
C12   C     C_3   0.878958 0.504619 0.500133 -0.018792
C13   C     C_1   0.500000 0.838897 0.500000 -0.079383
C14   C     C_1   0.500000 0.940796 0.500000 0.069532
C15   C     C_R   0.256998 0.499075 0.499944 0.917848
C16   C     C_R   0.743002 0.499077 0.500056 0.917858
C17   C     C_1   0.500000 0.500030 0.069774 0.081987
C18   C     C_1   0.500000 0.500030 0.930226 0.081984
H1    H     H_    0.096874 0.496529 0.703111 0.241112
H2    H     H_    0.111256 0.464133 0.297623 0.235400
H3    H     H_    0.888740 0.464147 0.702372 0.235405
H4    H     H_    0.903131 0.496521 0.296897 0.241120
H5    H     H_    0.112681 0.357830 0.630660 0.192137
H6    H     H_    0.096864 0.341748 0.397346 0.193501
H7    H     H_    0.903129 0.341759 0.602661 0.193501
H8    H     H_    0.887316 0.357831 0.369349 0.192146
N1    N     N_1   0.500000 0.500010 0.180630 -0.067703
N2    N     N_1   0.500000 0.500010 0.819370 -0.067704
O1    O     O_R   0.500000 0.334450 0.602530 -0.616353
O2    O     O_R   0.500000 0.334450 0.397470 -0.616353
O3    O     O_R   0.314800 0.499980 0.602530 -0.608228
O4    O     O_R   0.314800 0.499980 0.397470 -0.605041
O5    O     O_R   0.685200 0.499980 0.602530 -0.605044
O6    O     O_R   0.685200 0.499980 0.397470 -0.608225
O7    O     O_R   0.500000 0.665550 0.602530 -0.582907
O8    O     O_R   0.500000 0.665550 0.397470 -0.582908
Zn1   Zn    Zn3+2 0.500000 0.500000 0.636920 1.033227
Zn2   Zn    Zn3+2 0.500000 0.500000 0.363080 1.033230

loop_
_geom_bond_atom_site_label_1
_geom_bond_atom_site_label_2
_ccdc_geom_bond_type
N2    Zn1   S    
C5    H2    S    
N1    Zn2   S    
C16   O6    A    
C7    C12   S    
O4    Zn2   S    
O2    Zn2   S    
C9    C11   S    
C12   C16   S    
O1    Zn1   S    
C1    O2    A    
O8    Zn2   S    
C13   C14   T    
C5    C11   S    
O7    Zn1   S    
C6    C12   S    
C9    C10   S    
C11   C15   S    
C16   O5    A    
C17   N1    T    
C6    H7    S    
Br3   C10   S    
C18   N2    T    
O5    Zn1   S    
C6    H3    S    
O6    Zn2   S    
C4    C11   S    
C10   C12   S    
C15   O4    A    
C5    C7    S    
Br4   C10   S    
C3    C8    T    
O3    Zn1   S    
C2    O8    A    
Br1   C9    S    
C2    C13   S    
C4    H1    S    
C7    H8    S    
C4    C6    S    
C8    C14   S    
C1    C3    S    
Br2   C9    S    
C2    O7    A    
C4    H5    S    
C15   O3    A    
C7    H4    S    
C17   C18   S    
C5    H6    S    
C1    O1    A    
