data_mof_unit_18569.cif
_audit_creation_date              2012-12-11T16:16:49-0500
_audit_creation_method            fapswitch 2.2
_symmetry_space_group_name_H-M    P1
_symmetry_Int_Tables_number       1
_space_group_crystal_system       triclinic
_cell_length_a                    13.286919
_cell_length_b                    13.279699
_cell_length_c                    28.604147
_cell_angle_alpha                 90.054329
_cell_angle_beta                  90.037654
_cell_angle_gamma                 119.997637
_cell_volume                      4371.01127322

loop_
_atom_site_label
_atom_site_type_symbol
_atom_type_description
_atom_site_fract_x
_atom_site_fract_y
_atom_site_fract_z
_atom_type_partial_charge
C1    C     C_R   0.438495 0.550319 0.316481 0.540844
C2    C     C_R   0.549968 0.438786 0.683650 0.539998
C3    C     C_3   0.706708 0.091539 0.440060 -0.253903
C4    C     C_3   0.737329 0.202949 0.413072 -0.304402
C5    C     C_3   0.830261 0.228674 0.376353 -0.443266
C6    C     C_3   0.965846 0.667186 0.054063 -0.253215
C7    C     C_3   0.082629 0.776165 0.064677 -0.294295
C8    C     C_3   0.065750 0.867869 0.089943 -0.456092
C9    C     C_3   0.384760 0.293403 0.439758 -0.253916
C10   C     C_3   0.465562 0.262790 0.412765 -0.304422
C11   C     C_3   0.398446 0.169804 0.375935 -0.443248
C12   C     C_R   0.561396 0.111352 0.816475 0.540333
C13   C     C_R   0.888785 0.449945 0.683641 0.539946
C14   C     C_1   0.063842 0.527124 0.361917 -0.027968
C15   C     C_1   0.467259 0.942191 0.139064 -0.029251
C16   C     C_1   0.473165 0.536874 0.361914 -0.028018
C17   C     C_1   0.057698 0.524392 0.138667 -0.028718
C18   C     C_1   0.463429 0.936502 0.361887 -0.027934
C19   C     C_1   0.471925 0.534986 0.137756 -0.026805
C20   C     C_1   0.529578 0.065968 0.862581 -0.029514
C21   C     C_R   0.110774 0.560999 0.183599 0.539513
C22   C     C_1   0.934013 0.462496 0.637683 -0.029159
C23   C     C_1   0.533081 0.476893 0.860912 -0.033480
C24   C     C_1   0.528432 0.065744 0.637696 -0.028996
C25   C     C_1   0.939026 0.464447 0.861762 -0.029811
C26   C     C_1   0.537195 0.471339 0.637698 -0.028944
C27   C     C_R   0.048080 0.436723 0.478266 -0.134228
C28   C     C_R   0.401314 0.978633 0.024219 -0.136853
C29   C     C_R   0.563516 0.611409 0.478363 -0.134301
C30   C     C_R   0.004602 0.407423 0.024641 -0.139741
C31   C     C_R   0.388763 0.952353 0.478174 -0.134325
C32   C     C_R   0.449768 0.888233 0.316469 0.540613
C33   C     C_R   0.576913 0.606436 0.022627 -0.136772
C34   C     C_R   0.407111 0.986813 0.975951 -0.140178
C35   C     C_R   0.033827 0.431995 0.526366 -0.136902
C36   C     C_R   0.579708 0.603199 0.974179 -0.141003
C37   C     C_R   0.398230 0.966335 0.526292 -0.136902
C38   C     C_R   0.998276 0.404333 0.976159 -0.140126
C39   C     C_R   0.568001 0.601795 0.526469 -0.136871
C40   C     C_R   0.925756 0.536055 0.519977 0.020518
C41   C     C_R   0.615842 0.056826 0.978912 0.029420
C42   C     C_R   0.463797 0.389610 0.519899 0.020538
C43   C     C_R   0.438578 0.549851 0.183496 0.539278
C44   C     C_R   0.979861 0.578422 0.976141 0.030346
C45   C     C_R   0.610329 0.074316 0.520052 0.020542
C46   C     C_R   0.413884 0.405389 0.974288 0.031075
C47   C     C_R   0.607347 0.037763 0.028234 0.031295
C48   C     C_R   0.945521 0.546019 0.470931 0.022597
C49   C     C_R   0.412694 0.407739 0.024075 0.030389
C50   C     C_R   0.600581 0.054767 0.470979 0.022610
C51   C     C_R   0.982502 0.579278 0.025936 0.030299
C52   C     C_R   0.454058 0.399509 0.470839 0.022637
C53   C     C_R   0.005380 0.493687 0.450671 0.028052
C54   C     C_R   0.111872 0.561588 0.316486 0.540848
C55   C     C_R   0.499036 0.001684 0.050318 0.033989
C56   C     C_R   0.506585 0.511767 0.450674 0.028045
C57   C     C_R   0.998383 0.494478 0.049590 0.033414
C58   C     C_R   0.488438 0.995093 0.450649 0.027994
C59   C     C_R   0.495064 0.510051 0.047678 0.033186
C60   C     C_R   0.512922 0.026188 0.953172 0.030881
C61   C     C_R   0.973654 0.481059 0.547284 0.027015
C62   C     C_R   0.500955 0.503201 0.949967 0.033118
C63   C     C_R   0.507420 0.026310 0.547282 0.027089
C64   C     C_R   0.986251 0.488704 0.951851 0.033741
C65   C     C_R   0.450363 0.889370 0.183804 0.539706
C66   C     C_R   0.518741 0.492489 0.547296 0.027082
C67   C     C_1   0.957782 0.471062 0.596943 -0.075809
C68   C     C_1   0.516208 0.041954 0.903400 -0.075685
C69   C     C_1   0.528607 0.486540 0.596959 -0.075781
C70   C     C_1   0.967074 0.475203 0.902197 -0.071875
C71   C     C_1   0.513232 0.041994 0.596944 -0.075788
C72   C     C_1   0.518698 0.495740 0.900748 -0.074497
C73   C     C_1   0.482185 0.974910 0.099274 -0.072159
C74   C     C_1   0.033905 0.507546 0.401945 -0.071802
C75   C     C_1   0.487776 0.523195 0.097263 -0.070964
C76   C     C_R   0.549702 0.439341 0.816248 0.540182
C77   C     C_1   0.473802 0.966568 0.401917 -0.071743
C78   C     C_1   0.024767 0.505181 0.098777 -0.071210
C79   C     C_1   0.492810 0.526527 0.401947 -0.071777
C80   C     C_3   0.855689 0.584144 0.543473 -0.251240
C81   C     C_3   0.936397 0.707594 0.561937 -0.292690
C82   C     C_3   0.867569 0.762607 0.580683 -0.449985
C83   C     C_3   0.732259 0.111577 0.953506 -0.247382
C84   C     C_3   0.763200 0.019855 0.937942 -0.297459
C85   C     C_3   0.877785 0.075175 0.911161 -0.455043
C86   C     C_3   0.415556 0.271377 0.543311 -0.251243
C87   C     C_R   0.561133 0.111111 0.683657 0.539971
C88   C     C_3   0.292134 0.228772 0.561574 -0.292755
C89   C     C_3   0.237007 0.104884 0.580237 -0.450111
C90   C     C_3   0.975277 0.673895 0.948309 -0.259058
C91   C     C_3   0.851414 0.636645 0.932237 -0.289343
C92   C     C_3   0.850354 0.729870 0.901378 -0.445826
C93   C     C_3   0.728425 0.144301 0.543650 -0.251251
C94   C     C_3   0.771025 0.063457 0.561979 -0.292755
C95   C     C_3   0.894734 0.132229 0.580890 -0.449887
C96   C     C_3   0.320970 0.302969 0.946511 -0.257871
C97   C     C_3   0.360989 0.217070 0.932500 -0.289374
C98   C     C_R   0.889309 0.450166 0.816336 0.539480
C99   C     C_3   0.270194 0.120238 0.901672 -0.444352
C100  C     C_3   0.709051 0.049688 0.057427 -0.251257
C101  C     C_3   0.694774 0.929839 0.068197 -0.290260
C102  C     C_3   0.804565 0.940924 0.090163 -0.460377
C103  C     C_3   0.908669 0.615327 0.439970 -0.253924
C104  C     C_3   0.797277 0.534450 0.412903 -0.304426
C105  C     C_3   0.771338 0.601600 0.376195 -0.443276
C106  C     C_3   0.326308 0.302597 0.052233 -0.253878
C107  C     C_3   0.216922 0.309210 0.063412 -0.292905
C108  C     C_3   0.127094 0.200360 0.089003 -0.457528
Cr1   Cr    Cr6+3 0.505050 0.756260 0.250000 1.015309
Cr2   Cr    Cr6+3 0.251210 0.494950 0.250000 1.015456
Cr3   Cr    Cr6+3 0.243740 0.748790 0.250000 1.015437
Cr4   Cr    Cr6+3 0.756260 0.505050 0.750000 1.013492
Cr5   Cr    Cr6+3 0.494950 0.251210 0.750000 1.013271
Cr6   Cr    Cr6+3 0.748790 0.243740 0.750000 1.015074
H1    H     H_    0.095672 0.398677 0.462605 0.113041
H2    H     H_    0.320018 0.929964 0.547289 0.110326
H3    H     H_    0.002574 0.335626 0.957477 0.103919
H4    H     H_    0.609859 0.679993 0.547585 0.110314
H5    H     H_    0.819733 0.775828 0.551728 0.141367
H6    H     H_    0.805115 0.706422 0.607910 0.171058
H7    H     H_    0.928119 0.848643 0.596364 0.137246
H8    H     H_    0.991582 0.704609 0.590504 0.176518
H9    H     H_    0.994664 0.763566 0.533591 0.150878
H10   H     H_    0.789577 0.582681 0.519350 0.146552
H11   H     H_    0.803554 0.526984 0.572777 0.151421
H12   H     H_    0.319295 0.951116 0.041423 0.107442
H13   H     H_    0.873273 0.123385 0.880254 0.170711
H14   H     H_    0.950308 0.135658 0.934226 0.138515
H15   H     H_    0.895694 0.006334 0.898899 0.136644
H16   H     H_    0.771572 0.974052 0.968742 0.157680
H17   H     H_    0.693167 0.954785 0.915044 0.173097
H18   H     H_    0.730873 0.160764 0.922382 0.157274
H19   H     H_    0.802177 0.179610 0.975130 0.131037
H20   H     H_    0.223846 0.043804 0.551269 0.141377
H21   H     H_    0.293041 0.098514 0.607559 0.170912
H22   H     H_    0.150980 0.079489 0.595775 0.137237
H23   H     H_    0.601694 0.697099 0.462768 0.113001
H24   H     H_    0.295082 0.286978 0.590141 0.176441
H25   H     H_    0.236310 0.231171 0.533137 0.150893
H26   H     H_    0.417030 0.206689 0.519186 0.146595
H27   H     H_    0.472567 0.276276 0.572707 0.151436
H28   H     H_    0.879324 0.811049 0.921755 0.134484
H29   H     H_    0.908593 0.748480 0.870819 0.167508
H30   H     H_    0.761176 0.699193 0.888121 0.151583
H31   H     H_    0.813715 0.554132 0.912142 0.183849
H32   H     H_    0.795814 0.621710 0.963308 0.159491
H33   H     H_    0.010265 0.755888 0.968421 0.131786
H34   H     H_    0.015217 0.341995 0.042869 0.105072
H35   H     H_    0.033533 0.696748 0.917457 0.148220
H36   H     H_    0.955914 0.180289 0.552050 0.141367
H37   H     H_    0.900876 0.194533 0.608244 0.171169
H38   H     H_    0.920128 0.071567 0.596455 0.137234
H39   H     H_    0.712731 0.008083 0.590426 0.176532
H40   H     H_    0.768845 0.005319 0.533526 0.150840
H41   H     H_    0.793129 0.210503 0.519629 0.146528
H42   H     H_    0.723404 0.196398 0.573039 0.151452
H43   H     H_    0.188007 0.068389 0.921391 0.135446
H44   H     H_    0.252694 0.157490 0.870020 0.168439
H45   H     H_    0.303166 0.904885 0.462442 0.113055
H46   H     H_    0.302618 0.061807 0.890168 0.149421
H47   H     H_    0.444242 0.262292 0.913004 0.183750
H48   H     H_    0.375539 0.178486 0.964363 0.160000
H49   H     H_    0.238130 0.256435 0.966057 0.131032
H50   H     H_    0.298785 0.335813 0.914651 0.150292
H51   H     H_    0.878431 0.983734 0.065370 0.138276
H52   H     H_    0.826410 0.992662 0.122933 0.162521
H53   H     H_    0.790465 0.853139 0.098516 0.142280
H54   H     H_    0.621167 0.880784 0.092549 0.185570
H55   H     H_    0.675323 0.878364 0.035503 0.152196
H56   H     H_    0.639018 0.684688 0.040770 0.106434
H57   H     H_    0.793899 0.103249 0.040246 0.135667
H58   H     H_    0.714915 0.095890 0.090633 0.144545
H59   H     H_    0.755059 0.667298 0.393247 0.156988
H60   H     H_    0.845400 0.645954 0.351558 0.158754
H61   H     H_    0.693307 0.540316 0.355844 0.143467
H62   H     H_    0.806183 0.465233 0.394859 0.164644
H63   H     H_    0.723117 0.492045 0.437628 0.161935
H64   H     H_    0.896226 0.679826 0.459895 0.133468
H65   H     H_    0.980042 0.669050 0.415200 0.151611
H66   H     H_    0.100132 0.122280 0.066818 0.139591
H67   H     H_    0.328805 0.964294 0.956411 0.108246
H68   H     H_    0.163698 0.189935 0.122374 0.164059
H69   H     H_    0.049241 0.207738 0.096951 0.140279
H70   H     H_    0.239850 0.386497 0.085603 0.184944
H71   H     H_    0.177811 0.318260 0.030533 0.151249
H72   H     H_    0.302658 0.220502 0.033513 0.134966
H73   H     H_    0.367060 0.296937 0.085336 0.148243
H74   H     H_    0.912219 0.244944 0.393390 0.156992
H75   H     H_    0.800403 0.154471 0.351676 0.158762
H76   H     H_    0.847056 0.306690 0.356045 0.143459
H77   H     H_    0.659253 0.194106 0.395045 0.164584
H78   H     H_    0.070158 0.390112 0.547407 0.110257
H79   H     H_    0.769243 0.277225 0.437848 0.162101
H80   H     H_    0.783607 0.104001 0.459998 0.133459
H81   H     H_    0.688990 0.020053 0.415240 0.151641
H82   H     H_    0.014733 0.894880 0.067776 0.139377
H83   H     H_    0.019625 0.832970 0.123581 0.163733
H84   H     H_    0.151739 0.945439 0.097309 0.141863
H85   H     H_    0.136936 0.753159 0.086806 0.183691
H86   H     H_    0.129855 0.813677 0.031566 0.147216
H87   H     H_    0.907325 0.690859 0.035430 0.134622
H88   H     H_    0.920368 0.627670 0.087425 0.148262
H89   H     H_    0.644697 0.678798 0.955609 0.108906
H90   H     H_    0.332726 0.087797 0.392873 0.156981
H91   H     H_    0.354187 0.199667 0.351270 0.158800
H92   H     H_    0.459687 0.153013 0.355637 0.143463
H93   H     H_    0.534820 0.340923 0.394838 0.164617
H94   H     H_    0.507848 0.230874 0.437524 0.162005
H95   H     H_    0.320232 0.216436 0.459576 0.133457
H96   H     H_    0.331133 0.311202 0.414938 0.151692
O1    O     O_R   0.530190 0.870330 0.301660 -0.512044
O2    O     O_R   0.870330 0.530190 0.698340 -0.509770
O3    O     O_R   0.469810 0.340140 0.801660 -0.511279
O4    O     O_R   0.659860 0.129670 0.698340 -0.509525
O5    O     O_R   0.494300 0.651190 0.297490 -0.493075
O6    O     O_R   0.156890 0.505700 0.202510 -0.492886
O7    O     O_R   0.348810 0.843110 0.297490 -0.493303
O8    O     O_R   0.494300 0.651190 0.202510 -0.492994
O9    O     O_R   0.156890 0.505700 0.297490 -0.493258
O10   O     O_R   0.348810 0.843110 0.202510 -0.492878
O11   O     O_R   0.651190 0.494300 0.797490 -0.493757
O12   O     O_R   0.340140 0.469810 0.198340 -0.511957
O13   O     O_R   0.505700 0.156890 0.702510 -0.494971
O14   O     O_R   0.843110 0.348810 0.797490 -0.494177
O15   O     O_R   0.651190 0.494300 0.702510 -0.495021
O16   O     O_R   0.505700 0.156890 0.797490 -0.494309
O17   O     O_R   0.843110 0.348810 0.702510 -0.495123
O18   O     O_3   0.333333 0.666667 0.250000 -0.237927
O19   O     O_3   0.666667 0.333333 0.750000 -0.238504
O20   O     O_R   0.129670 0.659860 0.301660 -0.512125
O21   O     O_R   0.530190 0.870330 0.198340 -0.512987
O22   O     O_R   0.340140 0.469810 0.301660 -0.512086
O23   O     O_R   0.129670 0.659860 0.198340 -0.511817
O24   O     O_R   0.870330 0.530190 0.801660 -0.511755
O25   O     O_R   0.469810 0.340140 0.698340 -0.509762
O26   O     O_R   0.659860 0.129670 0.801660 -0.510583

loop_
_geom_bond_atom_site_label_1
_geom_bond_atom_site_label_2
_ccdc_geom_bond_type
C35   H78   S    
C89   H21   S    
C100  H58   S    
Cr4   O11   S    
Cr6   O4    S    
C8    H84   S    
C53   C74   S    
C4    H77   S    
Cr5   O3    S    
C23   C76   S    
C45   C93   S    
Cr6   O19   S    
C81   C82   S    
Cr5   O16   S    
C54   O9    A    
C104  H62   S    
C37   H2    S    
C44   C64   A    
C11   H91   S    
C46   C49   A    
C108  H66   S    
C102  H53   S    
C56   C79   S    
C81   H9    S    
C86   H27   S    
Cr3   O18   S    
C14   C74   T    
C31   C58   A    
C106  H73   S    
C6    H88   S    
C18   C77   T    
C86   C88   S    
C66   C69   S    
C106  C107  S    
C41   C83   S    
C30   C57   A    
C33   C36   A    
C30   C38   A    
C34   H67   S    
Cr5   O25   S    
C27   H1    S    
C7    H86   S    
Cr4   O2    S    
C92   H29   S    
C10   H94   S    
Cr5   O13   S    
Cr1   O8    S    
C58   C77   S    
C85   H15   S    
Cr6   O17   S    
C38   H3    S    
C76   O3    A    
C3    C50   S    
C80   H11   S    
C21   O23   A    
C83   C84   S    
C19   C43   S    
C98   O14   A    
C1    O5    A    
C107  C108  S    
C40   C80   S    
C101  H55   S    
C51   C57   A    
C11   H92   S    
C82   H6    S    
C6    C51   S    
C92   H28   S    
C9    C10   S    
C82   H7    S    
C32   O7    A    
C86   H26   S    
C28   C34   A    
C102  H52   S    
C89   H22   S    
C105  H59   S    
C99   H46   S    
C100  H57   S    
C34   C60   A    
C13   O2    A    
C12   C20   S    
C8    H83   S    
C4    H79   S    
C9    C52   S    
C82   H5    S    
C90   H35   S    
C36   C62   A    
C33   H56   S    
C23   C72   T    
C104  C105  S    
C37   C63   A    
C28   C55   A    
C28   H12   S    
C38   C64   A    
C48   C53   A    
C26   C69   T    
C3    H80   S    
C65   O21   A    
C50   C58   A    
C101  C102  S    
C7    C8    S    
C43   O12   A    
C84   C85   S    
C106  H72   S    
C6    H87   S    
C2    C26   S    
C97   C99   S    
C9    H95   S    
C91   C92   S    
C1    C16   S    
C32   O1    A    
C80   C81   S    
Cr6   O26   S    
C27   C35   A    
C48   C103  S    
C45   C63   A    
C3    H81   S    
Cr4   O19   S    
C31   C37   A    
C87   O13   A    
C101  H54   S    
Cr2   O6    S    
C10   H93   S    
C88   H25   S    
C13   O17   A    
C90   H33   S    
Cr4   O15   S    
C47   C100  S    
C61   C67   S    
C12   O16   A    
C104  H63   S    
C98   O24   A    
C93   H41   S    
C9    H96   S    
C94   H40   S    
C96   C97   S    
C29   C39   A    
C41   C47   A    
C21   O6    A    
C62   C72   S    
C35   C61   A    
C95   H36   S    
C30   H34   S    
Cr2   O9    S    
C88   H24   S    
C6    C7    S    
Cr2   O22   S    
C96   H49   S    
C42   C86   S    
C44   C51   A    
C14   C54   S    
C46   C96   S    
C46   C62   A    
Cr1   O18   S    
C102  H51   S    
C64   C70   S    
C105  H60   S    
C99   H43   S    
C39   C66   A    
C85   H13   S    
C43   O8    A    
C95   H37   S    
Cr3   O10   S    
C24   C71   T    
C3    C4    S    
Cr2   O12   S    
C59   C75   S    
C91   H31   S    
C44   C90   S    
C47   C55   A    
C80   H10   S    
C40   C48   A    
C12   O26   A    
C89   H20   S    
C108  H69   S    
C15   C73   T    
C57   C78   S    
C20   C68   T    
C93   H42   S    
C41   C60   A    
C63   C71   S    
C4    C5    S    
Cr1   O5    S    
C5    H76   S    
C65   O10   A    
C27   C53   A    
Cr5   O19   S    
C49   C106  S    
C95   H38   S    
C29   C56   A    
C76   O11   A    
C39   H4    S    
C29   H23   S    
C93   C94   S    
C107  H71   S    
C84   H17   S    
C97   H47   S    
C49   C59   A    
C36   H89   S    
C108  H68   S    
C81   H8    S    
C103  H64   S    
C16   C79   T    
C19   C75   T    
C5    H75   S    
C83   H18   S    
Cr2   O18   S    
Cr1   O21   S    
C1    O22   A    
C90   C91   S    
C45   C50   A    
C94   H39   S    
Cr4   O24   S    
C84   H16   S    
C17   C78   T    
Cr3   O23   S    
C87   O4    A    
C13   C22   S    
C8    H82   S    
C103  H65   S    
C11   H90   S    
C7    H85   S    
C94   C95   S    
C92   H30   S    
C24   C87   S    
C17   C21   S    
C22   C67   T    
C83   H19   S    
C10   C11   S    
C40   C61   A    
C2    O25   A    
C55   C73   S    
C96   H50   S    
C25   C98   S    
C18   C32   S    
C88   C89   S    
C60   C68   S    
C33   C59   A    
C97   H48   S    
C105  H61   S    
C99   H44   S    
C103  C104  S    
C42   C66   A    
Cr3   O20   S    
C85   H14   S    
C100  C101  S    
C25   C70   T    
Cr3   O7    S    
C5    H74   S    
Cr6   O14   S    
Cr1   O1    S    
C107  H70   S    
C54   O20   A    
C91   H32   S    
C31   H45   S    
C52   C56   A    
C2    O15   A    
C42   C52   A    
C15   C65   S    
