data_mof_unit_57420.cif
_audit_creation_date              2012-12-10T17:19:00-0500
_audit_creation_method            fapswitch 2.2
_symmetry_space_group_name_H-M    P1
_symmetry_Int_Tables_number       1
_space_group_crystal_system       triclinic
_cell_length_a                    10.24916
_cell_length_b                    10.858175
_cell_length_c                    13.659213
_cell_angle_alpha                 92.073466
_cell_angle_beta                  99.760003
_cell_angle_gamma                 95.447881
_cell_volume                      1489.20857502

loop_
_atom_site_label
_atom_site_type_symbol
_atom_type_description
_atom_site_fract_x
_atom_site_fract_y
_atom_site_fract_z
_atom_type_partial_charge
C1    C     C_R   0.051961 0.731814 0.491699 0.940271
C2    C     C_2   0.002196 0.063763 0.476349 -0.133365
C3    C     C_2   0.429904 0.509778 0.507666 0.009628
C4    C     C_2   0.570209 0.488322 0.494228 0.007581
C5    C     C_R   0.092926 0.512703 0.685514 0.865103
C6    C     C_R   0.906841 0.487149 0.314408 0.862380
C7    C     C_R   0.144384 0.527798 0.791782 -0.062843
C8    C     C_R   0.857843 0.483627 0.207541 -0.064036
C9    C     C_R   0.142305 0.617519 0.955592 -0.209216
C10   C     C_R   0.877665 0.439531 0.036466 -0.209865
C11   C     C_R   0.078277 0.588238 0.858003 -0.193143
C12   C     C_R   0.946329 0.267850 0.504416 0.932873
C13   C     C_R   0.933882 0.448606 0.137185 -0.178814
C14   C     C_R   0.270499 0.491925 0.824410 -0.229107
C15   C     C_R   0.729113 0.514838 0.176570 -0.230359
C16   C     C_R   0.341649 0.530719 0.918317 0.103478
C17   C     C_R   0.672372 0.511021 0.076363 0.093768
C18   C     C_R   0.274294 0.591257 0.985662 0.160322
C19   C     C_R   0.746455 0.467762 0.005882 0.153735
C20   C     C_R   0.477894 0.512042 0.946196 0.052862
C21   C     C_R   0.540925 0.542175 0.045675 0.059971
C22   C     C_R   0.471259 0.603650 0.110967 -0.157723
C23   C     C_R   0.554497 0.468401 0.877271 -0.146894
C24   C     C_R   0.340339 0.627525 0.081175 -0.197444
C25   C     C_R   0.687368 0.449964 0.906438 -0.197572
C26   C     C_2   0.078659 0.862668 0.480674 -0.355340
C27   C     C_2   0.913064 0.135729 0.500567 -0.351795
C28   C     C_2   0.978282 0.932402 0.479204 -0.141290
H1    H     H_    0.290919 0.675542 0.133057 0.155993
H2    H     H_    0.516273 0.450990 0.799136 0.175596
H3    H     H_    0.097250 0.101612 0.458916 0.230688
H4    H     H_    0.878209 0.893512 0.485083 0.225919
H5    H     H_    0.818349 0.097387 0.518136 0.179537
H6    H     H_    0.178490 0.902045 0.474895 0.180509
H7    H     H_    0.584939 0.412986 0.444730 0.187503
H8    H     H_    0.415304 0.581855 0.560107 0.187768
H9    H     H_    0.809087 0.815736 0.710121 0.364448
H10   H     H_    0.189087 0.210819 0.266448 0.363001
H11   H     H_    0.742826 0.417895 0.851269 0.158977
H12   H     H_    0.671260 0.536000 0.232545 0.178955
H13   H     H_    0.312202 0.435213 0.773841 0.154434
H14   H     H_    0.034442 0.424897 0.160014 0.196795
H15   H     H_    0.979394 0.615393 0.833901 0.196489
H16   H     H_    0.090553 0.664511 0.006443 0.154756
H17   H     H_    0.935419 0.407784 0.982797 0.156190
H18   H     H_    0.516894 0.639415 0.184715 0.156268
N1    N     N_2   0.322180 0.446120 0.460900 0.054465
N2    N     N_2   0.677820 0.553880 0.539100 0.051402
O1    O     O_R   0.935190 0.693030 0.507870 -0.554683
O2    O     O_2   0.597728 0.638451 0.701392 -0.349992
O3    O     O_3   0.822783 0.742639 0.668983 -0.520262
O4    O     O_2   0.400436 0.389084 0.291259 -0.336617
O5    O     O_2   0.404850 0.231011 0.415761 -0.321611
O6    O     O_3   0.176021 0.274217 0.316892 -0.527575
O7    O     O_R   0.064810 0.306970 0.492130 -0.564199
O8    O     O_R   0.142080 0.658430 0.482770 -0.626432
O9    O     O_R   0.857920 0.341570 0.517230 -0.630115
O10   O     O_R   0.969700 0.527180 0.651960 -0.573429
O11   O     O_R   0.030300 0.472820 0.348040 -0.563629
O12   O     O_R   0.176600 0.492580 0.626860 -0.637702
O13   O     O_R   0.823400 0.507420 0.373140 -0.641341
O14   O     O_2   0.595045 0.774828 0.561828 -0.317286
S1    S     S_3+6 0.668893 0.679341 0.618779 0.080514
S2    S     S_3+6 0.330324 0.333390 0.369903 0.082709
Zn1   Zn    Zn3+2 0.861850 0.523100 0.516760 1.051778
Zn2   Zn    Zn3+2 0.138150 0.476900 0.483240 1.057014

loop_
_geom_bond_atom_site_label_1
_geom_bond_atom_site_label_2
_ccdc_geom_bond_type
C6    C8    S    
C11   H15   S    
C2    C27   D    
N2    Zn1   S    
C5    C7    S    
N1    Zn2   S    
C26   C28   D    
O10   Zn1   S    
H10   O6    S    
C20   C23   A    
C10   C19   A    
C16   C20   A    
C10   H17   S    
C4    H7    S    
O12   Zn2   S    
C21   C22   A    
C25   H11   S    
C7    C11   A    
O2    S1    D    
C9    C11   A    
C8    C13   A    
O1    Zn1   S    
C5    O10   A    
C14   H13   S    
O8    Zn2   S    
C12   O9    A    
C3    H8    S    
C6    O13   A    
C3    N1    D    
C13   H14   S    
C17   C19   A    
C1    O8    A    
C8    C15   A    
C14   C16   A    
C23   C25   A    
O11   Zn2   S    
C4    N2    D    
C1    C26   S    
H9    O3    S    
O5    S2    D    
C18   C24   A    
C15   H12   S    
C12   O7    A    
C19   C25   A    
C3    C4    S    
C23   H2    S    
O13   Zn1   S    
C9    C18   A    
C28   H4    S    
O7    Zn2   S    
O3    S1    S    
C20   C21   A    
O6    S2    S    
C16   C18   A    
O4    S2    D    
C22   C24   A    
N1    S2    S    
C15   C17   A    
C24   H1    S    
C9    H16   S    
C2    C28   S    
C12   C27   S    
C5    O12   A    
C22   H18   S    
C1    O1    A    
C6    O11   A    
C26   H6    S    
C7    C14   A    
C27   H5    S    
O14   S1    D    
O9    Zn1   S    
C2    H3    S    
N2    S1    S    
C10   C13   A    
C17   C21   A    
