data_mof_unit_6890.cif
_audit_creation_date              2013-03-05T15:59:39-0500
_audit_creation_method            fapswitch 2.2
_symmetry_space_group_name_H-M    P1
_symmetry_Int_Tables_number       1
_space_group_crystal_system       triclinic
_cell_length_a                    15.046424
_cell_length_b                    13.707953
_cell_length_c                    27.7702
_cell_angle_alpha                 90.088982
_cell_angle_beta                  89.700249
_cell_angle_gamma                 90.011558
_cell_volume                      5727.67589153

loop_
_atom_site_label
_atom_site_type_symbol
_atom_site_description
_atom_site_fract_x
_atom_site_fract_y
_atom_site_fract_z
_atom_type_partial_charge
O1    O     O_R   0.370260 0.582280 0.500010 -0.594898
O2    O     O_R   0.629740 0.417720 0.499990 -0.580636
O3    O     O_R   0.629740 0.582280 0.499990 -0.578483
O4    O     O_R   0.370260 0.417720 0.500010 -0.564173
C1    C     C_R   0.329069 0.500097 0.499426 0.788144
C2    C     C_R   0.671110 0.500020 0.501127 0.792772
O5    O     O_R   0.500020 0.582260 0.430260 -0.599544
O6    O     O_R   0.499980 0.417740 0.569740 -0.594033
O7    O     O_R   0.499980 0.582260 0.569740 -0.589117
O8    O     O_R   0.500020 0.417740 0.430260 -0.587191
C3    C     C_R   0.500161 0.499913 0.407359 0.822972
C4    C     C_R   0.500064 0.499988 0.592608 0.809959
Cu1   Cu    Cu3+1 0.500000 0.597420 0.500000 0.933039
Cu2   Cu    Cu3+1 0.500000 0.402580 0.500000 0.952618
C5    C     C_R   0.422773 0.500457 0.177247 0.620078
C6    C     C_R   0.578797 0.513771 0.822547 0.623966
O9    O     O_2   0.346255 0.493859 0.202537 -0.489266
O10   O     O_2   0.655243 0.520609 0.797211 -0.511914
N1    N     N_R   0.501447 0.499180 0.201355 -0.436936
N2    N     N_R   0.501275 0.498724 0.798469 -0.433674
C7    C     C_R   0.581255 0.496323 0.177825 0.618067
C8    C     C_R   0.422918 0.482031 0.822007 0.617525
C9    C     C_R   0.491135 0.409397 0.278699 -0.013763
C10   C     C_R   0.522717 0.411670 0.720864 -0.016290
C11   C     C_R   0.490776 0.411453 0.329099 -0.290904
C12   C     C_R   0.521890 0.413798 0.670474 -0.317091
C13   C     C_R   0.510552 0.586753 0.328706 -0.255126
C14   C     C_R   0.479792 0.584245 0.671427 -0.276272
C15   C     C_R   0.510210 0.586757 0.278353 0.271900
C16   C     C_R   0.480732 0.584192 0.721771 0.266625
C17   C     C_R   0.500272 0.498235 0.253098 0.326324
C18   C     C_R   0.502414 0.498120 0.746734 0.327022
C19   C     C_R   0.503406 0.491324 0.101493 -0.093027
C20   C     C_R   0.500584 0.490764 0.898309 -0.095407
C21   C     C_R   0.421836 0.504735 0.126581 -0.023607
C22   C     C_R   0.579183 0.518141 0.873229 -0.021514
C23   C     C_R   0.342571 0.519146 0.099964 -0.003864
C24   C     C_R   0.655419 0.546108 0.899863 -0.000598
C25   C     C_R   0.584644 0.486318 0.127080 -0.072236
C26   C     C_R   0.421063 0.471648 0.872729 -0.071321
C27   C     C_R   0.500284 0.499498 0.354337 -0.054249
C28   C     C_R   0.500762 0.499535 0.645563 -0.059311
H1    H     H_    0.518839 0.655292 0.347662 0.161035
H2    H     H_    0.462126 0.650534 0.652617 0.152121
C29   C     C_R   0.422488 0.464431 0.974838 -0.010869
C30   C     C_R   0.584360 0.478662 0.024947 -0.010636
C31   C     C_R   0.582251 0.495341 0.974451 0.110939
C32   C     C_R   0.422161 0.481468 0.025343 0.111463
C33   C     C_R   0.501677 0.483366 0.949140 0.040200
C34   C     C_R   0.503431 0.483703 0.050653 0.040296
C35   C     C_R   0.346829 0.431322 0.949171 -0.050224
C36   C     C_R   0.663811 0.459199 0.050601 -0.047613
C37   C     C_R   0.344160 0.440054 0.898565 0.191998
C38   C     C_R   0.665146 0.468421 0.101223 0.188807
O11   O     O_2   0.348024 0.475051 0.795856 -0.554483
O12   O     O_2   0.656176 0.502471 0.204001 -0.540648
C39   C     C_R   0.343627 0.505063 0.050242 -0.202651
C40   C     C_R   0.656418 0.532142 0.949570 -0.203102
H3    H     H_    0.537894 0.347994 0.650525 0.158095
H4    H     H_    0.483412 0.343649 0.348770 0.152615
H5    H     H_    0.283026 0.518783 0.030488 0.115702
H6    H     H_    0.714309 0.556230 0.969334 0.116581
C41   C     C_R   0.812857 0.555490 0.469170 -0.178682
C42   C     C_R   0.188162 0.466012 0.538700 -0.189939
C43   C     C_R   0.767687 0.500680 0.503396 -0.170982
C44   C     C_R   0.232802 0.501166 0.498561 -0.165979
C45   C     C_R   0.813960 0.447821 0.538599 -0.061951
C46   C     C_R   0.186584 0.537944 0.458823 -0.048580
C47   C     C_R   0.907705 0.458755 0.541671 0.074943
C48   C     C_R   0.092995 0.549543 0.462320 0.077246
C49   C     C_R   0.953595 0.505934 0.503215 -0.034613
C50   C     C_R   0.047197 0.506036 0.501879 -0.039304
C51   C     C_R   0.905605 0.553844 0.466336 0.061681
C52   C     C_R   0.095279 0.463531 0.540344 0.065538
C53   C     C_R   0.956351 0.426970 0.582469 0.198846
C54   C     C_R   0.044536 0.605509 0.428410 0.211403
C55   C     C_R   0.049921 0.425627 0.581020 -0.062462
C56   C     C_R   0.950987 0.603800 0.429008 -0.060395
H7    H     H_    0.773752 0.596941 0.443831 0.179703
H8    H     H_    0.227878 0.441030 0.568576 0.181651
C57   C     C_R   0.452893 0.792952 0.534272 0.027232
C58   C     C_R   0.548790 0.206980 0.466445 0.044120
C59   C     C_R   0.547736 0.792935 0.466047 0.047318
C60   C     C_R   0.452016 0.207202 0.533903 0.036820
N3    N     N_R   0.500000 0.743810 0.500000 -0.193670
N4    N     N_R   0.500000 0.256190 0.500000 -0.187099
C61   C     C_R   0.550660 0.896149 0.465580 -0.061746
C62   C     C_R   0.452203 0.103950 0.535757 -0.093684
C63   C     C_R   0.451427 0.896272 0.535476 -0.095091
C64   C     C_R   0.550387 0.103644 0.465310 -0.072343
C65   C     C_R   0.501167 0.948211 0.500557 -0.011601
C66   C     C_R   0.501281 0.051841 0.500549 0.007533
C67   C     C_R   0.600975 0.947826 0.430755 0.226875
C68   C     C_R   0.403963 0.051709 0.571347 0.206052
C69   C     C_R   0.403151 0.948689 0.571038 0.224960
C70   C     C_R   0.600465 0.051159 0.430406 0.179491
H9    H     H_    0.417049 0.750415 0.560648 0.134371
H10   H     H_    0.586436 0.249478 0.440785 0.137669
H11   H     H_    0.583636 0.750785 0.439419 0.164031
H12   H     H_    0.413386 0.249772 0.559170 0.140885
C71   C     C_2   0.763286 0.379389 0.569927 0.470977
H13   H     H_    0.701155 0.402179 0.586489 0.047036
O13   O     O_2   0.788773 0.295638 0.575599 -0.522746
C72   C     C_2   0.236669 0.552909 0.412998 0.431167
H14   H     H_    0.301759 0.586897 0.413156 0.062876
O14   O     O_2   0.207324 0.522492 0.374903 -0.498867
N5    N     N_2   0.911134 0.402144 0.626109 -0.408816
H15   H     H_    0.937363 0.344672 0.645252 0.272067
C73   C     C_3   0.886827 0.484744 0.655872 -0.689971
H16   H     H_    0.847128 0.459194 0.687222 0.255118
H17   H     H_    0.845775 0.537175 0.635142 0.230728
H18   H     H_    0.947365 0.522277 0.669206 0.218384
N6    N     N_2   0.090092 0.668532 0.395655 -0.395931
H19   H     H_    0.063872 0.673026 0.361512 0.278585
C74   C     C_3   0.114511 0.762154 0.415719 -0.716795
H20   H     H_    0.154260 0.803659 0.388900 0.244187
H21   H     H_    0.155542 0.752269 0.448507 0.233317
H22   H     H_    0.054000 0.804811 0.425005 0.215838
C75   C     C_2   0.098605 0.386702 0.623315 0.324857
H23   H     H_    0.081894 0.411768 0.659311 0.091447
O15   O     O_2   0.154501 0.322932 0.618469 -0.566485
C76   C     C_2   0.902298 0.655770 0.390277 0.311490
H24   H     H_    0.918866 0.730779 0.381629 0.078933
O16   O     O_2   0.846428 0.613594 0.366238 -0.525085
N7    N     N_2   0.649972 0.895890 0.394784 -0.436541
H25   H     H_    0.653754 0.928093 0.361300 0.286691
C77   C     C_3   0.732229 0.850925 0.410207 -0.703860
H26   H     H_    0.734456 0.774736 0.396755 0.248859
H27   H     H_    0.738205 0.849574 0.450112 0.227616
H28   H     H_    0.789939 0.891197 0.395017 0.228733
N8    N     N_2   0.356351 0.100973 0.608599 -0.428324
H29   H     H_    0.388491 0.159768 0.623782 0.239240
C78   C     C_3   0.263763 0.118732 0.598158 -0.549245
H30   H     H_    0.257534 0.172624 0.568516 0.227546
H31   H     H_    0.230280 0.147817 0.630849 0.263135
H32   H     H_    0.229972 0.049829 0.587751 0.229327
N9    N     N_2   0.353090 0.899509 0.607318 -0.412011
H33   H     H_    0.315195 0.841754 0.595441 0.233582
C79   C     C_3   0.401910 0.879401 0.650899 -0.650490
H34   H     H_    0.356982 0.844947 0.677754 0.221956
H35   H     H_    0.428108 0.948179 0.666580 0.254408
H36   H     H_    0.458098 0.829112 0.643212 0.202221
N10   N     N_2   0.650842 0.100757 0.394404 -0.447377
H37   H     H_    0.617272 0.155804 0.376974 0.240185
C80   C     C_3   0.739713 0.127796 0.408910 -0.630008
H38   H     H_    0.776111 0.158836 0.377613 0.234618
H39   H     H_    0.776659 0.062905 0.421830 0.243193
H40   H     H_    0.737294 0.183354 0.438051 0.228139
N11   N     N_2   0.522862 0.675677 0.252935 -0.434399
H41   H     H_    0.570110 0.720247 0.268373 0.264383
C81   C     C_3   0.441545 0.728093 0.243221 -0.619850
H42   H     H_    0.456827 0.793908 0.221445 0.233030
H43   H     H_    0.409442 0.751368 0.277507 0.222414
H44   H     H_    0.394745 0.681882 0.222541 0.279778
N12   N     N_2   0.456644 0.669977 0.747519 -0.435351
H45   H     H_    0.402536 0.705244 0.732976 0.252824
C82   C     C_3   0.529696 0.736285 0.755883 -0.634165
H46   H     H_    0.506193 0.798799 0.777995 0.235054
H47   H     H_    0.555917 0.764568 0.721104 0.217226
H48   H     H_    0.583857 0.699168 0.775671 0.281865
C83   C     C_2   0.258249 0.556058 0.120995 0.464722
H49   H     H_    0.195213 0.530323 0.106987 0.058160
O17   O     O_2   0.258176 0.620479 0.151409 -0.509760
C84   C     C_2   0.733423 0.597031 0.878876 0.457153
H50   H     H_    0.799371 0.582389 0.892795 0.055443
O18   O     O_2   0.724283 0.660714 0.848612 -0.514817
C85   C     C_2   0.544154 0.317406 0.744504 0.413046
H51   H     H_    0.561792 0.254667 0.722540 0.065412
O19   O     O_2   0.541961 0.307565 0.788157 -0.528208
C86   C     C_2   0.482842 0.312773 0.254756 0.421171
H52   H     H_    0.472447 0.247928 0.276474 0.059642
O20   O     O_2   0.488205 0.303359 0.211137 -0.527868
N13   N     N_2   0.265821 0.408114 0.874515 -0.432219
H53   H     H_    0.274536 0.362409 0.845391 0.305843
C87   C     C_3   0.196911 0.481086 0.869711 -0.618730
H54   H     H_    0.219912 0.542031 0.846507 0.262835
H55   H     H_    0.178061 0.510733 0.905585 0.201154
H56   H     H_    0.137114 0.447524 0.853295 0.231599
N14   N     N_2   0.747068 0.450533 0.125257 -0.434837
H57   H     H_    0.745005 0.403954 0.154315 0.307422
C88   C     C_3   0.804616 0.534564 0.130187 -0.598822
H58   H     H_    0.773135 0.590777 0.153486 0.266020
H59   H     H_    0.818968 0.567063 0.094362 0.197744
H60   H     H_    0.868487 0.511831 0.146555 0.236514
C89   C     C_2   0.275839 0.372717 0.973261 0.377415
H61   H     H_    0.208738 0.371659 0.959234 0.102055
O21   O     O_2   0.292756 0.321235 0.007881 -0.507544
C90   C     C_2   0.742360 0.413589 0.026464 0.376004
H62   H     H_    0.808759 0.424273 0.040502 0.099990
O22   O     O_2   0.733090 0.359671 0.991794 -0.509697

loop_
_geom_bond_atom_site_label_1
_geom_bond_atom_site_label_2
_geom_bond_distance
_ccdc_geom_bond_type
C40   H6    1.083200 S    
C44   C46   1.401946 A    
C41   C43   1.387449 A    
C53   N5    1.428252 S    
C71   H13   1.085464 S    
C61   C65   1.413456 A    
N12   C82   1.445663 S    
C42   H8    1.081141 S    
C59   C61   1.415612 A    
O3    C2    1.288632 A    
N1    C17   1.437006 S    
C77   H27   1.112472 S    
C83   H49   1.085662 S    
C37   N13   1.426281 S    
C32   C39   1.403553 A    
C85   O19   1.220209 D    
C41   H7    1.081634 S    
C88   H58   1.110038 S    
O5    C3    1.294757 A    
N9    C79   1.445925 S    
C45   C71   1.487778 S    
C82   H46   1.110248 S    
C86   O20   1.220225 D    
O1    C1    1.285801 A    
C84   H50   1.085655 S    
C21   C23   1.420415 A    
C54   C56   1.407778 A    
N11   C81   1.445839 S    
C79   H36   1.110593 S    
N10   H37   1.030853 S    
C29   C32   1.421473 A    
C25   C38   1.425986 A    
C13   C15   1.398344 A    
C86   H52   1.085796 S    
C29   C35   1.420308 A    
C74   H20   1.110240 S    
C30   C36   1.420367 A    
C38   N14   1.426258 S    
C87   H55   1.110820 S    
C90   O22   1.221414 D    
C81   H44   1.108984 S    
C14   C28   1.399651 A    
C47   C49   1.424685 A    
O7    Cu1   1.948128 S    
C4    C28   1.470703 S    
C73   H17   1.111159 S    
C83   O17   1.220994 D    
C24   C40   1.394020 A    
C2    C43   1.454857 S    
N10   C80   1.446621 S    
C62   C66   1.414918 A    
C43   C45   1.405367 A    
C52   C55   1.416087 A    
C78   H32   1.111138 S    
N5    H15   1.030845 S    
C47   C53   1.421123 A    
C11   H4    1.084191 S    
C63   C65   1.414814 A    
C12   H3    1.084298 S    
O3    Cu1   1.963163 S    
C6    N2    1.363017 A    
C57   C63   1.416818 A    
C24   C84   1.482653 S    
C81   H42   1.110263 S    
C82   H47   1.111713 S    
C59   H11   1.080294 S    
Cu1   Cu2   2.670856 S    
C58   H10   1.079322 S    
O2    C2    1.288815 A    
C56   C76   1.487263 S    
C5    C21   1.408462 A    
C72   H14   1.084487 S    
C80   H39   1.110085 S    
C36   C38   1.411504 A    
C80   H38   1.110134 S    
C87   H56   1.110154 S    
C75   O15   1.219981 D    
C23   C39   1.393908 A    
C88   H59   1.110821 S    
C79   H34   1.109921 S    
C62   C68   1.418077 A    
C69   N9    1.425097 S    
C60   H12   1.079495 S    
C60   C62   1.416398 A    
C10   C85   1.486514 S    
Cu2   N4    2.006707 S    
C31   C33   1.413961 A    
O8    Cu2   1.948133 S    
C73   H18   1.110982 S    
C11   C27   1.402383 A    
C65   C66   1.420552 A    
C49   C51   1.418298 A    
O4    C1    1.288398 A    
C41   C51   1.397522 A    
C74   H21   1.111245 S    
C19   C34   1.415553 A    
N13   H53   1.030136 S    
C51   C56   1.415747 A    
C14   H2    1.082707 S    
C31   C40   1.403587 A    
N6    C74   1.446449 S    
C90   H62   1.084167 S    
C45   C47   1.421427 A    
C9    C17   1.417373 A    
C63   C69   1.417626 A    
C5    N1    1.363136 A    
C10   C18   1.417382 A    
C35   C89   1.492555 S    
N7    C77   1.449776 S    
C78   H30   1.111238 S    
C55   C75   1.487262 S    
C13   C27   1.400903 A    
C70   N10   1.424896 S    
C64   C66   1.415002 A    
C87   H54   1.110034 S    
C7    C25   1.416285 A    
C29   C33   1.409911 A    
O6    C4    1.293143 A    
C74   H22   1.111148 S    
C8    C26   1.416073 A    
C54   N6    1.428019 S    
C19   C25   1.418803 A    
C64   C70   1.419611 A    
C53   C55   1.408382 A    
N13   C87   1.447669 S    
C50   C52   1.419176 A    
C16   N12   1.421370 S    
C59   N3    1.361276 A    
N2    C8    1.364538 A    
C67   C70   1.416563 A    
C48   C54   1.420100 A    
N7    H25   1.031242 S    
C20   C26   1.418835 A    
O1    Cu1   1.963081 S    
C76   O16   1.221080 D    
C77   H26   1.109102 S    
C85   H51   1.085761 S    
C80   H40   1.110869 S    
C12   C28   1.402095 A    
C23   C83   1.482706 S    
N6    H19   1.030789 S    
N2    C18   1.436729 S    
C88   H60   1.110160 S    
C5    O9    1.348574 S    
C30   C31   1.421662 A    
C20   C33   1.415578 A    
O6    Cu2   1.947486 S    
N1    C7    1.364631 A    
C46   C72   1.490009 S    
C60   N4    1.361353 A    
C1    C44   1.448876 S    
N8    C78   1.445231 S    
C7    O12   1.347094 S    
C75   H23   1.084840 S    
C39   H5    1.083219 S    
C8    O11   1.347119 S    
C82   H48   1.109358 S    
N9    H33   1.030386 S    
C30   C34   1.409936 A    
C68   N8    1.424685 S    
C58   C64   1.417040 A    
C71   O13   1.221175 D    
C84   O18   1.221008 D    
C72   O14   1.221212 D    
C77   H28   1.110581 S    
C14   C16   1.398201 A    
C15   C17   1.408932 A    
C58   N4    1.361376 A    
N11   H41   1.031834 S    
C6    C22   1.408656 A    
C22   C24   1.420450 A    
C16   C18   1.408597 A    
C79   H35   1.110965 S    
C10   C12   1.399816 A    
C89   H61   1.084164 S    
N5    C73   1.446733 S    
C9    C86   1.486618 S    
C57   H9    1.079095 S    
C61   C67   1.415804 A    
C32   C34   1.413923 A    
C19   C21   1.419956 A    
C3    C27   1.472439 S    
C20   C22   1.420055 A    
C81   H43   1.111755 S    
O4    Cu2   1.963164 S    
C68   C69   1.412254 A    
O2    Cu2   1.963080 S    
O7    C4    1.295143 A    
C67   N7    1.427742 S    
C89   O21   1.221414 D    
O8    C3    1.294408 A    
C15   N11   1.421771 S    
N14   H57   1.030118 S    
C13   H1    1.083742 S    
O5    Cu1   1.947492 S    
C9    C11   1.399840 A    
C49   C50   1.408667 A    
C6    O10   1.348551 S    
C26   C37   1.425953 A    
Cu1   N3    2.006707 S    
N12   H45   1.031434 S    
C78   H31   1.109532 S    
C46   C48   1.419962 A    
C42   C52   1.398480 A    
C48   C50   1.425244 A    
C36   C90   1.492548 S    
C35   C37   1.411372 A    
C76   H24   1.084932 S    
C73   H16   1.110335 S    
C57   N3    1.361307 A    
N8    H29   1.030599 S    
C42   C44   1.385476 A    
N14   C88   1.447649 S    
