data_mof_unit_52507.cif
_audit_creation_date              2012-12-10T16:51:00-0500
_audit_creation_method            fapswitch 2.2
_symmetry_space_group_name_H-M    P1
_symmetry_Int_Tables_number       1
_space_group_crystal_system       triclinic
_cell_length_a                    7.850364
_cell_length_b                    8.545255
_cell_length_c                    10.534428
_cell_angle_alpha                 90.932615
_cell_angle_beta                  85.751545
_cell_angle_gamma                 93.325592
_cell_volume                      703.505294389

loop_
_atom_site_label
_atom_site_type_symbol
_atom_type_description
_atom_site_fract_x
_atom_site_fract_y
_atom_site_fract_z
_atom_type_partial_charge
C1    C     C_R   0.545374 0.794381 0.499069 0.948006
C2    C     C_R   0.980761 0.540494 0.023782 -0.181432
C3    C     C_R   0.066964 0.678279 0.070353 -0.155729
C4    C     C_R   0.981979 0.613337 0.904895 -0.093328
C5    C     C_R   0.217010 0.664219 0.136538 0.215736
C6    C     C_R   0.827490 0.655884 0.859835 0.174757
C7    C     C_R   0.365190 0.610573 0.067050 0.034555
C8    C     C_R   0.673051 0.596621 0.920623 0.064030
C9    C     C_R   0.378583 0.641633 0.936104 0.061414
C10   C     C_R   0.666977 0.542002 0.044858 0.045072
C11   C     C_R   0.507469 0.545086 0.121243 -0.223121
C12   C     C_R   0.455084 0.205921 0.508105 0.980447
C13   C     C_R   0.521801 0.600422 0.862857 -0.219353
C14   C     C_3   0.314772 0.918439 0.211912 -0.798486
C15   C     C_3   0.753185 0.925455 0.826228 -0.823302
C16   C     C_2   0.569801 0.958030 0.502612 -0.371186
C17   C     C_2   0.432520 0.042730 0.520660 -0.410299
C18   C     C_R   0.507930 0.537418 0.734251 0.872585
C19   C     C_R   0.500203 0.507631 0.257589 0.903129
C20   C     C_R   0.257995 0.730982 0.883822 -0.216145
C21   C     C_R   0.822317 0.491339 0.085176 -0.200905
C22   C     C_R   0.094008 0.734478 0.944469 -0.139596
H1    H     H_    0.035993 0.539327 0.828561 0.163234
H2    H     H_    0.988964 0.619872 0.593602 0.180460
H3    H     H_    0.130184 0.769409 0.305641 0.228812
H4    H     H_    0.312208 0.995163 0.297308 0.237414
H5    H     H_    0.241434 0.974144 0.140230 0.224212
H6    H     H_    0.449744 0.909675 0.173853 0.248576
H7    H     H_    0.787137 0.755635 0.688039 0.246196
H8    H     H_    0.800964 0.027008 0.766695 0.252990
H9    H     H_    0.611809 0.913487 0.824371 0.240616
H10   H     H_    0.786470 0.949704 0.925582 0.240783
H11   H     H_    0.979536 0.750625 0.127732 0.157082
H12   H     H_    0.283185 0.783114 0.790544 0.160811
H13   H     H_    0.823861 0.397733 0.152712 0.172279
H14   H     H_    0.051900 0.851792 0.933164 0.176887
H15   H     H_    0.060820 0.440207 0.023186 0.149442
H16   H     H_    0.699868 0.008258 0.485628 0.180743
H17   H     H_    0.302719 0.992253 0.538893 0.181046
H18   H     H_    0.012428 0.381066 0.405226 0.186505
N1    N     N_2   0.950330 0.457950 0.466250 -0.184563
N2    N     N_2   0.049670 0.542050 0.533750 -0.188850
N3    N     N_2   0.238646 0.764420 0.244398 -0.259951
N4    N     N_2   0.829599 0.785036 0.775023 -0.331652
O1    O     O_R   0.389250 0.738570 0.508280 -0.609150
O2    O     O_R   0.610750 0.261430 0.491720 -0.606549
O3    O     O_R   0.678390 0.711630 0.486650 -0.655474
O4    O     O_R   0.321610 0.288370 0.513350 -0.624295
O5    O     O_R   0.355430 0.513480 0.694040 -0.617382
O6    O     O_R   0.644570 0.486520 0.305960 -0.624910
O7    O     O_R   0.644570 0.486540 0.672410 -0.627746
O8    O     O_R   0.355430 0.513460 0.327590 -0.604696
Zn1   Zn    Zn3+2 0.306940 0.517990 0.514440 0.925687
Zn2   Zn    Zn3+2 0.693060 0.482010 0.485560 0.914597

loop_
_geom_bond_atom_site_label_1
_geom_bond_atom_site_label_2
_ccdc_geom_bond_type
C12   C17   S    
C15   N4    S    
C2    C4    A    
C15   H9    S    
C8    C13   A    
C21   H13   S    
C14   H5    S    
C4    C22   A    
N1    N2    D    
C9    C20   A    
C22   H14   S    
C2    H15   S    
C12   O4    A    
O7    Zn2   S    
C20   H12   S    
O2    Zn2   S    
C2    C21   A    
C2    C3    A    
C5    N3    S    
O1    Zn1   S    
C15   H10   S    
H7    N4    S    
C1    C16   S    
C6    N4    S    
C14   H4    S    
C7    C11   A    
C19   O6    A    
H3    N3    S    
O6    Zn2   S    
C13   C18   S    
O3    Zn2   S    
O5    Zn1   S    
C4    C6    A    
H18   N1    S    
C20   C22   A    
C18   O7    A    
C14   N3    S    
C5    C7    A    
C10   C21   A    
O4    Zn1   S    
N1    Zn2   S    
N2    Zn1   S    
C10   C11   A    
C3    H11   S    
H2    N2    S    
O8    Zn1   S    
C15   H8    S    
C8    C10   A    
C17   H17   S    
C1    O1    A    
C7    C9    A    
C4    H1    S    
C9    C13   A    
C11   C19   S    
C3    C22   A    
C6    C8    A    
C14   H6    S    
C19   O8    A    
C1    O3    A    
C18   O5    A    
C16   H16   S    
C16   C17   D    
C3    C5    A    
C12   O2    A    
