data_mof_unit_51960.cif
_audit_creation_date              2012-12-10T20:33:26-0500
_audit_creation_method            fapswitch 2.2
_symmetry_space_group_name_H-M    P1
_symmetry_Int_Tables_number       1
_space_group_crystal_system       triclinic
_cell_length_a                    14.151558
_cell_length_b                    10.654255
_cell_length_c                    9.863553
_cell_angle_alpha                 90.108459
_cell_angle_beta                  90.015861
_cell_angle_gamma                 90.264823
_cell_volume                      1487.1517634

loop_
_atom_site_label
_atom_site_type_symbol
_atom_type_description
_atom_site_fract_x
_atom_site_fract_y
_atom_site_fract_z
_atom_type_partial_charge
C1    C     C_R   0.501381 0.260555 0.499698 0.898176
C2    C     C_1   0.772293 0.498848 0.500346 -0.194880
C3    C     C_R   0.430999 0.062278 0.545691 0.160664
C4    C     C_R   0.507485 0.128916 0.496701 -0.194551
C5    C     C_R   0.582542 0.068108 0.428609 -0.063895
C6    C     C_R   0.585324 0.935168 0.430528 0.074180
C7    C     C_R   0.510845 0.871089 0.498292 -0.084920
C8    C     C_R   0.434097 0.935418 0.550026 -0.044978
C9    C     C_3   0.380210 0.927869 0.681471 -0.106162
C10   C     C_3   0.375974 0.072662 0.675257 -0.307269
C11   C     C_R   0.450111 0.411134 0.071070 0.242532
C12   C     C_R   0.329138 0.500076 0.500043 0.936937
C13   C     C_R   0.555709 0.580777 0.072167 -0.109781
C14   C     C_R   0.555717 0.580775 0.928174 -0.107675
C15   C     C_R   0.450043 0.411206 0.928495 0.219961
C16   C     C_3   0.345816 0.390765 0.923044 -0.498903
C17   C     C_3   0.345980 0.390383 0.076923 -0.496977
C18   C     C_R   0.504698 0.739331 0.500023 0.870751
C19   C     C_R   0.670872 0.499950 0.500041 0.855276
C20   C     C_1   0.227704 0.499847 0.500175 -0.134493
C21   C     C_1   0.142474 0.499435 0.500436 0.028958
C22   C     C_1   0.042613 0.498833 0.500703 0.025116
C23   C     C_1   0.957377 0.498379 0.500813 0.019906
C24   C     C_1   0.857522 0.498211 0.500721 -0.006044
H1    H     H_    0.327038 0.298155 0.878633 0.191227
H2    H     H_    0.307635 0.471264 0.121853 0.224559
H3    H     H_    0.327633 0.297450 0.120945 0.215565
H4    H     H_    0.416840 0.121372 0.756349 0.169776
H5    H     H_    0.599193 0.647699 0.126664 0.149606
H6    H     H_    0.599202 0.647675 0.873977 0.174631
H7    H     H_    0.307483 0.471920 0.878946 0.242965
N1    N     N_R   0.499420 0.499140 0.142800 -0.106120
N2    N     N_R   0.499420 0.499180 0.857150 -0.108409
O1    O     O_R   0.500010 0.316790 0.614690 -0.609430
O2    O     O_R   0.500000 0.316760 0.385350 -0.603950
O3    O     O_R   0.373720 0.500020 0.614700 -0.581436
O4    O     O_R   0.373710 0.499980 0.385350 -0.606696
O5    O     O_R   0.500000 0.683240 0.614650 -0.593692
O6    O     O_R   0.499990 0.683210 0.385310 -0.629580
O7    O     O_R   0.626290 0.500020 0.614650 -0.597114
O8    O     O_R   0.626280 0.499980 0.385300 -0.606423
Zn1   Zn    Zn3+2 0.500010 0.500020 0.653130 0.973943
Zn2   Zn    Zn3+2 0.499990 0.499980 0.346870 0.954983
C25   C     C_2   0.659335 0.145237 0.366546 0.439225
H8    H     H_    0.682686 0.230802 0.416281 0.044245
O9    O     O_2   0.694110 0.117743 0.257378 -0.563973
C26   C     C_3   0.670892 0.864485 0.375435 -0.391444
C27   C     C_3   0.756903 0.878955 0.469245 -0.334255
C28   C     C_3   0.846573 0.831314 0.400789 -0.830771
H9    H     H_    0.906127 0.833695 0.474085 0.254958
H10   H     H_    0.836582 0.733475 0.364624 0.258997
H11   H     H_    0.864804 0.891886 0.312978 0.278753
H12   H     H_    0.768247 0.978574 0.498350 0.234933
H13   H     H_    0.744272 0.824398 0.563577 0.224619
H14   H     H_    0.657454 0.762743 0.364188 0.190108
H15   H     H_    0.687210 0.895929 0.271022 0.258378
C29   C     C_2   0.287487 0.858247 0.660969 0.311895
H16   H     H_    0.242969 0.880886 0.574798 0.105767
O10   O     O_2   0.261884 0.775650 0.738588 -0.588997
C30   C     C_2   0.438219 0.882555 0.801354 0.483977
H17   H     H_    0.405195 0.828545 0.881721 0.102681
O11   O     O_2   0.521891 0.909742 0.811879 -0.588458
C31   C     C_2   0.278982 0.128681 0.656869 0.360606
H18   H     H_    0.227781 0.120929 0.738275 0.083390
O12   O     O_2   0.257472 0.183815 0.552956 -0.570967

loop_
_geom_bond_atom_site_label_1
_geom_bond_atom_site_label_2
_ccdc_geom_bond_type
O4    Zn2   S    
C18   O6    A    
C31   O12   D    
C6    C7    A    
C12   O3    A    
O2    Zn2   S    
C9    C10   S    
C13   N1    A    
O3    Zn1   S    
C10   C31   S    
O1    Zn1   S    
C23   C24   S    
C1    C4    S    
C7    C18   S    
C14   N2    A    
O7    Zn1   S    
C11   N1    A    
C18   O5    A    
C7    C8    A    
C3    C10   S    
C21   C22   S    
C20   C21   T    
C16   H7    S    
C27   H13   S    
O8    Zn2   S    
C12   C20   S    
C29   H16   S    
C27   H12   S    
C14   H6    S    
N2    Zn1   S    
C13   H5    S    
C27   C28   S    
C5    C25   S    
C25   O9    D    
C1    O1    A    
O5    Zn1   S    
C9    C29   S    
C3    C8    A    
C2    C24   T    
C5    C6    A    
C30   O11   D    
C29   O10   D    
C16   C17   S    
C19   O7    A    
C17   H2    S    
C31   H18   S    
C17   H3    S    
C19   O8    A    
C12   O4    A    
C25   H8    S    
C1    O2    A    
C26   H14   S    
C28   H9    S    
C6    C26   S    
C10   H4    S    
C16   H1    S    
C26   H15   S    
C22   C23   T    
C8    C9    S    
O6    Zn2   S    
C30   H17   S    
C2    C19   S    
C13   C14   A    
C11   C15   A    
N1    Zn2   S    
C15   C16   S    
C11   C17   S    
C3    C4    A    
C26   C27   S    
C28   H11   S    
C15   N2    A    
C4    C5    A    
C28   H10   S    
C9    C30   S    
