data_mof_unit_58109.cif
_audit_creation_date              2012-12-10T17:55:03-0500
_audit_creation_method            fapswitch 2.2
_symmetry_space_group_name_H-M    P1
_symmetry_Int_Tables_number       1
_space_group_crystal_system       triclinic
_cell_length_a                    8.716794
_cell_length_b                    10.76645
_cell_length_c                    9.652962
_cell_angle_alpha                 90.006016
_cell_angle_beta                  97.835132
_cell_angle_gamma                 92.971316
_cell_volume                      896.232763357

loop_
_atom_site_label
_atom_site_type_symbol
_atom_type_description
_atom_site_fract_x
_atom_site_fract_y
_atom_site_fract_z
_atom_type_partial_charge
C1    C     C_R   0.503099 0.262933 0.500390 0.747600
C2    C     C_R   0.496901 0.737067 0.499610 0.747599
C3    C     C_R   0.204202 0.499153 0.464047 0.850554
C4    C     C_R   0.795798 0.500847 0.535953 0.850554
C5    C     C_2   0.037997 0.497047 0.444628 -0.343037
C6    C     C_2   0.962003 0.502953 0.555372 -0.343037
C7    C     C_R   0.390481 0.062830 0.411181 -0.094973
C8    C     C_R   0.609518 0.937170 0.588819 -0.094974
C9    C     C_R   0.382240 0.933247 0.409524 -0.025984
C10   C     C_R   0.617759 0.066753 0.590476 -0.025985
C11   C     C_R   0.494206 0.871024 0.499236 -0.137802
C12   C     C_R   0.505794 0.128975 0.500764 -0.137803
C13   C     C_R   0.403534 0.418356 0.062328 0.073665
C14   C     C_R   0.596466 0.581644 0.937672 0.073665
C15   C     C_R   0.397968 0.422667 0.913339 0.070910
C16   C     C_R   0.602032 0.577333 0.086661 0.070908
Cu1   Cu    Cu3+1 0.500000 0.500020 0.640660 0.944755
Cu2   Cu    Cu3+1 0.500000 0.499980 0.359340 0.944754
H1    H     H_    0.977942 0.489667 0.338486 0.212638
H2    H     H_    0.022058 0.510333 0.661514 0.212638
H3    H     H_    0.303960 0.113113 0.345616 0.187084
H4    H     H_    0.696039 0.886887 0.654384 0.187084
N1    N     N_R   0.500040 0.500030 0.852080 -0.263578
N2    N     N_R   0.499960 0.499970 0.147920 -0.263578
O1    O     O_R   0.499990 0.319660 0.618740 -0.615354
O2    O     O_R   0.500010 0.680340 0.381260 -0.615355
O3    O     O_R   0.499990 0.319630 0.381170 -0.578495
O4    O     O_R   0.500010 0.680370 0.618830 -0.578495
O5    O     O_R   0.274840 0.500010 0.591370 -0.589119
O6    O     O_R   0.725160 0.499990 0.408630 -0.589118
O7    O     O_R   0.274830 0.499980 0.353800 -0.606708
O8    O     O_R   0.725170 0.500020 0.646200 -0.606707
C17   C     C_2   0.253038 0.865151 0.319040 0.428915
H5    H     H_    0.232734 0.765584 0.328801 0.090034
O9    O     O_2   0.166075 0.919964 0.232689 -0.468144
C18   C     C_2   0.746960 0.134849 0.680960 0.428918
H6    H     H_    0.767270 0.234415 0.671194 0.090030
O10   O     O_2   0.833916 0.080037 0.767319 -0.468140
C19   C     C_2   0.315714 0.315644 0.123929 0.502388
H7    H     H_    0.246532 0.331473 0.205688 0.093423
O11   O     O_2   0.320459 0.209041 0.082022 -0.514094
C20   C     C_2   0.684286 0.684355 0.876071 0.502389
H8    H     H_    0.753469 0.668526 0.794313 0.093423
O12   O     O_2   0.679541 0.790959 0.917978 -0.514092
C21   C     C_2   0.270389 0.350728 0.825498 0.468912
H9    H     H_    0.288562 0.301103 0.733140 0.118748
O13   O     O_2   0.138987 0.346872 0.856555 -0.552340
C22   C     C_2   0.729611 0.649272 0.174502 0.468912
H10   H     H_    0.711438 0.698897 0.266860 0.118749
O14   O     O_2   0.861013 0.653128 0.143444 -0.552339

loop_
_geom_bond_atom_site_label_1
_geom_bond_atom_site_label_2
_ccdc_geom_bond_type
C14   N1    A    
C8    H4    S    
C1    O1    A    
C5    H1    S    
Cu1   O5    S    
Cu2   O2    S    
C14   C20   S    
Cu1   O1    S    
C16   C22   S    
C22   O14   D    
C17   H5    S    
C16   N2    A    
Cu1   N1    S    
C21   H9    S    
C3    O7    A    
C9    C11   A    
C1    O3    A    
C4    O8    A    
C1    C12   S    
C20   O12   D    
C9    C17   S    
C8    C11   A    
Cu2   N2    S    
C2    C11   S    
C10   C12   A    
C15   N1    A    
C22   H10   S    
C17   O9    D    
Cu1   Cu2   S    
C13   C15   A    
C5    C6    D    
C14   C16   A    
C7    C12   A    
C13   C19   S    
C4    C6    S    
C2    O4    A    
C20   H8    S    
C15   C21   S    
Cu2   O6    S    
C18   O10   D    
C7    C9    A    
C6    H2    S    
C19   O11   D    
C2    O2    A    
C21   O13   D    
C19   H7    S    
C3    O5    A    
Cu1   O8    S    
C18   H6    S    
C10   C18   S    
Cu2   O7    S    
C7    H3    S    
Cu1   O4    S    
C8    C10   A    
C4    O6    A    
Cu2   O3    S    
C13   N2    A    
C3    C5    S    
