data_mof_unit_28132.cif
_audit_creation_date              2012-12-11T17:02:11-0500
_audit_creation_method            fapswitch 2.2
_symmetry_space_group_name_H-M    P1
_symmetry_Int_Tables_number       1
_space_group_crystal_system       triclinic
_cell_length_a                    21.739084
_cell_length_b                    7.081927
_cell_length_c                    15.113514
_cell_angle_alpha                 90.000041
_cell_angle_beta                  107.789579
_cell_angle_gamma                 90.000125
_cell_volume                      2215.53933151

loop_
_atom_site_label
_atom_site_type_symbol
_atom_type_description
_atom_site_fract_x
_atom_site_fract_y
_atom_site_fract_z
_atom_type_partial_charge
O1    O     O_R   0.585850 0.505770 0.002130 -0.543239
O2    O     O_R   0.414150 0.005770 0.997870 -0.543239
O3    O     O_R   0.467530 0.173560 0.861970 -0.541399
O4    O     O_R   0.532470 0.673560 0.138030 -0.541399
C1    C     C_R   0.457902 0.345976 0.825152 0.673959
C2    C     C_R   0.542099 0.845976 0.174848 0.673956
O5    O     O_R   0.588690 0.175900 0.993250 -0.543061
O6    O     O_R   0.411310 0.675900 0.006750 -0.543065
O7    O     O_R   0.536170 0.007950 0.130090 -0.540861
O8    O     O_R   0.463830 0.507950 0.869910 -0.540861
C3    C     C_R   0.614697 0.345462 0.996326 0.686770
C4    C     C_R   0.385302 0.845461 0.003673 0.686768
O9    O     O_3   0.482630 0.339970 0.044740 -0.376411
O10   O     O_3   0.517370 0.839970 0.955260 -0.376408
V1    V     V_3+5 0.503220 0.064200 0.991700 1.380032
V2    V     V_3+5 0.496780 0.564200 0.008300 1.380029
C5    C     C_R   0.275578 0.001964 0.957163 0.073825
C6    C     C_R   0.724421 0.501965 0.042835 0.073826
C7    C     C_R   0.316894 0.856464 0.003514 -0.111606
C8    C     C_R   0.683105 0.356466 0.996484 -0.111602
C9    C     C_R   0.288979 0.712453 0.043556 -0.188140
C10   C     C_R   0.711020 0.212456 0.956440 -0.188146
H1    H     H_    0.318043 0.594223 0.078054 0.130625
H2    H     H_    0.681956 0.094227 0.921942 0.130623
C11   C     C_R   0.223366 0.721259 0.041048 -0.193037
C12   C     C_R   0.776633 0.221261 0.958949 -0.193033
H3    H     H_    0.204278 0.609987 0.074219 0.124658
H4    H     H_    0.795721 0.109988 0.925778 0.124656
C13   C     C_R   0.183938 0.876366 0.000158 -0.097928
C14   C     C_R   0.816061 0.376367 0.999839 -0.097930
C15   C     C_R   0.211658 0.011152 0.956537 0.064820
C16   C     C_R   0.788341 0.511153 0.043460 0.064810
C17   C     C_3   0.210629 0.220504 0.958453 -0.407931
C18   C     C_3   0.789373 0.720506 0.041556 -0.407937
C19   C     C_3   0.281693 0.213721 0.960529 -0.090750
C20   C     C_3   0.718309 0.713724 0.039480 -0.090749
H5    H     H_    0.204304 0.275489 0.023991 0.155287
H6    H     H_    0.795699 0.775505 0.976021 0.155291
H7    H     H_    0.175411 0.276470 0.894364 0.166422
H8    H     H_    0.824591 0.776457 0.105649 0.166430
H9    H     H_    0.315012 0.262929 0.028152 0.129768
H10   H     H_    0.684991 0.762946 0.971859 0.129774
C21   C     C_R   0.921785 0.862604 0.725488 -0.089953
C22   C     C_R   0.078222 0.362606 0.274510 -0.089950
C23   C     C_R   0.564744 0.865444 0.276704 -0.035697
C24   C     C_R   0.435260 0.365444 0.723296 -0.035696
C25   C     C_R   0.920095 0.644552 0.599290 0.092484
C26   C     C_R   0.079915 0.144557 0.400711 0.092492
C27   C     C_R   0.951412 0.732295 0.684176 -0.159737
C28   C     C_R   0.048596 0.232304 0.315828 -0.159749
C29   C     C_R   0.857657 0.909215 0.682377 -0.218829
C30   C     C_R   0.142353 0.409206 0.317615 -0.218828
C31   C     C_R   0.820933 0.820454 0.598313 0.046510
C32   C     C_R   0.179077 0.320448 0.401680 0.046509
C33   C     C_R   0.851657 0.678898 0.556638 0.054142
C34   C     C_R   0.148354 0.178895 0.443357 0.054145
C35   C     C_R   0.754238 0.869788 0.555274 0.062285
C36   C     C_R   0.245773 0.369784 0.444718 0.062284
C37   C     C_R   0.718282 0.778083 0.472063 0.022497
C38   C     C_R   0.281729 0.278072 0.527926 0.022494
C39   C     C_R   0.746142 0.625884 0.440623 -0.214626
C40   C     C_R   0.253872 0.125860 0.559360 -0.214634
C41   C     C_R   0.811419 0.580094 0.476402 0.070449
C42   C     C_R   0.188594 0.080079 0.523588 0.070452
C43   C     C_R   0.721914 0.009296 0.591875 -0.184968
C44   C     C_R   0.278095 0.509301 0.408120 -0.184967
C45   C     C_R   0.658219 0.059873 0.546509 -0.206627
C46   C     C_R   0.341791 0.559876 0.453489 -0.206626
C47   C     C_R   0.625188 0.982290 0.460384 0.139620
C48   C     C_R   0.374822 0.482289 0.539613 0.139617
C49   C     C_R   0.655004 0.841648 0.421069 0.080809
C50   C     C_R   0.345004 0.341643 0.578924 0.080815
C51   C     C_R   0.563982 0.052012 0.410827 -0.173558
C52   C     C_R   0.436027 0.552013 0.589175 -0.173561
C53   C     C_R   0.534527 0.996169 0.319257 -0.161792
C54   C     C_R   0.465479 0.496169 0.680746 -0.161790
C55   C     C_R   0.622977 0.782904 0.328374 -0.228490
C56   C     C_R   0.377027 0.282903 0.671621 -0.228493
H11   H     H_    0.645470 0.690723 0.290661 0.107076
H12   H     H_    0.354532 0.190724 0.709332 0.107075
H13   H     H_    0.999935 0.692881 0.723754 0.121004
H14   H     H_    0.000072 0.192891 0.276254 0.121006
H15   H     H_    0.836828 0.004314 0.720757 0.102611
H16   H     H_    0.163184 0.504285 0.279228 0.102605
H17   H     H_    0.716969 0.539243 0.384794 0.127461
H18   H     H_    0.283047 0.039210 0.615183 0.127469
H19   H     H_    0.744116 0.084919 0.655261 0.122054
H20   H     H_    0.255892 0.584933 0.344738 0.122056
O11   O     O_R   0.036080 0.231270 0.130120 -0.538150
O12   O     O_R   0.963920 0.731270 0.869880 -0.538152
O13   O     O_R   0.911300 0.558970 0.006750 -0.540744
O14   O     O_R   0.088700 0.058970 0.993250 -0.540747
C57   C     C_R   0.884544 0.389834 0.000245 0.690567
C58   C     C_R   0.115456 0.889834 0.999754 0.690564
O15   O     O_R   0.032450 0.561140 0.138040 -0.542019
O16   O     O_R   0.967550 0.061140 0.861960 -0.542020
O17   O     O_R   0.085870 0.728910 0.002130 -0.541818
O18   O     O_R   0.914130 0.228910 0.997870 -0.541816
C59   C     C_R   0.048310 0.391106 0.174202 0.700689
C60   C     C_R   0.951692 0.891105 0.825797 0.700690
O19   O     O_3   0.017320 0.394650 0.955270 -0.375599
O20   O     O_3   0.982680 0.894650 0.044730 -0.375596
V3    V     V_3+5 0.996780 0.670490 0.008300 1.402822
V4    V     V_3+5 0.003220 0.170490 0.991700 1.402820
H21   H     H_    0.635783 0.168190 0.576993 0.125739
H22   H     H_    0.364228 0.668197 0.423008 0.125740
C61   C     C_3   0.963102 0.521858 0.558890 -0.395196
C62   C     C_3   0.034755 0.579902 0.588697 -0.364513
C63   C     C_3   0.072025 0.486873 0.531252 -0.797342
H23   H     H_    0.069845 0.335007 0.542062 0.248494
H24   H     H_    0.051343 0.523312 0.456580 0.239934
H25   H     H_    0.123627 0.528769 0.556207 0.222171
H26   H     H_    0.037073 0.733257 0.578762 0.227991
H27   H     H_    0.059150 0.538454 0.661870 0.200619
H28   H     H_    0.959434 0.372097 0.578493 0.185560
H29   H     H_    0.948275 0.539180 0.482970 0.202131
C64   C     C_3   0.036910 0.021860 0.441114 -0.395199
C65   C     C_3   0.965259 0.079916 0.411321 -0.364528
C66   C     C_3   0.927993 0.986881 0.468769 -0.797331
H30   H     H_    0.930166 0.835018 0.457946 0.248482
H31   H     H_    0.948685 0.023291 0.543444 0.239932
H32   H     H_    0.876393 0.028796 0.443830 0.222174
H33   H     H_    0.962945 0.233269 0.421262 0.227994
H34   H     H_    0.940858 0.038480 0.338147 0.200626
H35   H     H_    0.040574 0.872100 0.421508 0.185557
H36   H     H_    0.051742 0.039175 0.517034 0.202139
H37   H     H_    0.540648 0.158562 0.440944 0.119798
H38   H     H_    0.459363 0.658564 0.559062 0.119798
C67   C     C_3   0.298482 0.297340 0.875838 -0.275521
C68   C     C_3   0.255906 0.465686 0.829125 -0.322720
C69   C     C_3   0.288506 0.590657 0.774508 -0.779020
H39   H     H_    0.338437 0.627733 0.816602 0.241738
H40   H     H_    0.289132 0.518682 0.709750 0.236161
H41   H     H_    0.260909 0.723842 0.755761 0.215492
H42   H     H_    0.209733 0.413182 0.780579 0.182487
H43   H     H_    0.243992 0.554106 0.881771 0.225950
H44   H     H_    0.349685 0.343490 0.901717 0.190856
H45   H     H_    0.296520 0.187406 0.822894 0.139732
C70   C     C_3   0.701523 0.797330 0.124175 -0.275537
C71   C     C_3   0.744091 0.965701 0.170877 -0.322713
C72   C     C_3   0.711484 0.090677 0.225484 -0.779001
H46   H     H_    0.661552 0.127729 0.183386 0.241742
H47   H     H_    0.710860 0.018715 0.290246 0.236162
H48   H     H_    0.739075 0.223875 0.244224 0.215486
H49   H     H_    0.790266 0.913224 0.219427 0.182482
H50   H     H_    0.756001 0.054112 0.118225 0.225952
H51   H     H_    0.650316 0.843446 0.098305 0.190851
H52   H     H_    0.703498 0.687397 0.177124 0.139726
C73   C     C_3   0.831755 0.435930 0.416266 -0.368241
C74   C     C_3   0.836916 0.534170 0.327401 -0.297620
C75   C     C_3   0.879039 0.430793 0.279358 -0.806268
H53   H     H_    0.930624 0.451283 0.318522 0.217421
H54   H     H_    0.865756 0.279234 0.270126 0.236263
H55   H     H_    0.872440 0.494038 0.210245 0.220692
H56   H     H_    0.787767 0.545863 0.277600 0.189295
H57   H     H_    0.855845 0.679875 0.342628 0.197055
H58   H     H_    0.872931 0.349465 0.453120 0.180035
H59   H     H_    0.794262 0.323985 0.395031 0.163103
C76   C     C_3   0.168259 0.935928 0.583731 -0.368223
C77   C     C_3   0.163107 0.034183 0.672598 -0.297606
C78   C     C_3   0.120961 0.930875 0.720627 -0.806276
H60   H     H_    0.069381 0.951389 0.681443 0.217423
H61   H     H_    0.134230 0.779308 0.729876 0.236256
H62   H     H_    0.127552 0.994150 0.789733 0.220692
H63   H     H_    0.212255 0.045811 0.722406 0.189285
H64   H     H_    0.144202 0.179917 0.657377 0.197064
H65   H     H_    0.127081 0.849460 0.546884 0.180035
H66   H     H_    0.205750 0.823977 0.604962 0.163084
H67   H     H_    0.489500 0.062118 0.279910 0.115458
H68   H     H_    0.510505 0.562118 0.720096 0.115457

loop_
_geom_bond_atom_site_label_1
_geom_bond_atom_site_label_2
_ccdc_geom_bond_type
C44   C46   A    
C6    C20   S    
C2    C23   S    
C31   C33   A    
C20   H10   S    
C68   H42   S    
O1    C3    A    
C69   H41   S    
O2    C4    A    
C2    O7    A    
C24   C54   A    
C78   H60   S    
C73   C74   S    
C25   C27   A    
C62   C63   S    
O5    C3    A    
C40   H18   S    
C70   H51   S    
C17   H7    S    
C52   C54   A    
O11   C59   A    
C18   H8    S    
C7    C9    A    
C14   C57   S    
C63   H24   S    
C44   H20   S    
C13   C58   S    
C22   C59   S    
O15   C59   A    
C61   H29   S    
C35   C37   A    
C38   C50   A    
C36   C38   A    
C76   H66   S    
C4    C7    S    
C38   C40   A    
C75   H55   S    
C27   H13   S    
C47   C49   A    
C65   C66   S    
C41   C73   S    
C50   C56   A    
C17   C19   S    
C36   C44   A    
C52   H38   S    
C67   H45   S    
O15   V3    S    
C43   C45   A    
C33   C41   A    
C53   H67   S    
C40   C42   A    
C61   C62   S    
C15   C17   S    
C47   C51   A    
C77   H64   S    
C73   H59   S    
C19   C67   S    
C18   C20   S    
C22   C30   A    
C26   C28   A    
C75   H53   S    
O6    V2    S    
C74   H57   S    
C51   C53   A    
C46   H22   S    
O12   C60   A    
C78   H61   S    
C30   C32   A    
C43   H19   S    
C55   H11   S    
C9    H1    S    
C11   C13   A    
C3    C8    S    
C70   C71   S    
C32   C34   A    
C70   H52   S    
C37   C39   A    
C21   C60   S    
O4    C2    A    
C72   H48   S    
C71   H50   S    
C24   C56   A    
C31   C35   A    
C45   H21   S    
C58   O17   A    
O3    C1    A    
C51   H37   S    
C68   H43   S    
C17   H5    S    
C29   C31   A    
C72   H47   S    
C16   C18   S    
C62   H26   S    
O4    V2    S    
O20   V4    S    
C48   C52   A    
O13   C57   A    
C76   C77   S    
O10   V1    S    
O6    C4    A    
C35   C43   A    
C34   C42   A    
C56   H12   S    
O1    V2    S    
C65   H34   S    
C77   H63   S    
C71   C72   S    
C54   H68   S    
O2    V1    S    
C61   H28   S    
O17   V3    S    
C66   H31   S    
C39   H17   S    
C46   C48   A    
C8    C10   A    
C12   C14   A    
O19   V4    S    
C25   C61   S    
C74   H56   S    
O16   V4    S    
O11   V4    S    
C5    C15   A    
C10   H2    S    
C63   H25   S    
C6    C16   A    
C69   H39   S    
C29   H15   S    
C49   C55   A    
C78   H62   S    
O3    V1    S    
C28   H14   S    
C25   C33   A    
C67   C68   S    
C32   C36   A    
C66   H32   S    
C22   C28   A    
C26   C34   A    
C9    C11   A    
C18   H6    S    
C39   C41   A    
C21   C27   A    
O13   V3    S    
C69   H40   S    
C71   H49   S    
C48   C50   A    
C66   H30   S    
C26   C64   S    
C11   H3    S    
C1    C24   S    
C12   H4    S    
C23   C53   A    
C62   H27   S    
C77   C78   S    
C30   H16   S    
C68   C69   S    
O7    V1    S    
C1    O8    A    
C13   C15   A    
O8    V2    S    
C72   H46   S    
C14   C16   A    
C21   C29   A    
O14   C58   A    
C64   H35   S    
O18   V4    S    
O16   C60   A    
C42   C76   S    
O5    V1    S    
C5    C7    A    
C76   H65   S    
C6    C8    A    
C65   H33   S    
C75   H54   S    
O20   V3    S    
C19   H9    S    
C20   C70   S    
O12   V3    S    
O14   V4    S    
C67   H44   S    
O19   V3    S    
C10   C12   A    
O9    V2    S    
C63   H23   S    
C74   C75   S    
C64   H36   S    
C23   C55   A    
C5    C19   S    
C45   C47   A    
C64   C65   S    
C73   H58   S    
C57   O18   A    
C37   C49   A    
