data_mof_unit_29445.cif
_audit_creation_date              2012-12-10T18:33:34-0500
_audit_creation_method            fapswitch 2.2
_symmetry_space_group_name_H-M    P1
_symmetry_Int_Tables_number       1
_space_group_crystal_system       triclinic
_cell_length_a                    8.733998
_cell_length_b                    15.149774
_cell_length_c                    13.861741
_cell_angle_alpha                 89.514793
_cell_angle_beta                  97.935175
_cell_angle_gamma                 90.237563
_cell_volume                      1816.52356473

loop_
_atom_site_label
_atom_site_type_symbol
_atom_type_description
_atom_site_fract_x
_atom_site_fract_y
_atom_site_fract_z
_atom_type_partial_charge
C1    C     C_R   0.501544 0.329840 0.500640 0.827960
C2    C     C_R   0.501257 0.670250 0.499553 0.821728
C3    C     C_R   0.620348 0.539876 0.118006 -0.300661
C4    C     C_R   0.423005 0.433688 0.885891 -0.297148
C5    C     C_R   0.617512 0.539764 0.219211 0.090065
C6    C     C_R   0.423245 0.435449 0.784435 0.090871
C7    C     C_R   0.382285 0.460419 0.199548 0.074143
C8    C     C_R   0.576122 0.564750 0.796604 0.082350
C9    C     C_R   0.379262 0.460343 0.097828 -0.285138
C10   C     C_R   0.576331 0.566444 0.898053 -0.285715
C11   C     C_R   0.499798 0.500070 0.054650 0.132533
C12   C     C_R   0.499748 0.500034 0.945248 0.137016
C13   C     C_R   0.203673 0.499980 0.475097 0.874832
C14   C     C_R   0.796325 0.500024 0.524895 0.894472
C15   C     C_2   0.037888 0.500036 0.461333 -0.364461
C16   C     C_2   0.962104 0.499972 0.538633 -0.356210
C17   C     C_R   0.559760 0.093250 0.584778 -0.257847
C18   C     C_R   0.544217 0.907208 0.420139 -0.253128
C19   C     C_R   0.559335 0.185675 0.587345 0.494753
C20   C     C_R   0.543543 0.814957 0.417834 0.492839
C21   C     C_R   0.501931 0.233203 0.501982 -0.123536
C22   C     C_R   0.501072 0.767035 0.498043 -0.126925
C23   C     C_R   0.441702 0.187927 0.417253 -0.267565
C24   C     C_R   0.455460 0.812325 0.577188 -0.270209
C25   C     C_R   0.438591 0.096321 0.416598 -0.172060
C26   C     C_R   0.452799 0.903946 0.577431 -0.173580
C27   C     C_R   0.497774 0.048549 0.500255 0.068235
C28   C     C_R   0.497443 0.951828 0.499059 0.066428
Cu1   Cu    Cu3+1 0.500000 0.499990 0.596430 0.957208
Cu2   Cu    Cu3+1 0.500000 0.500010 0.403570 0.951215
H1    H     H_    0.977963 0.500147 0.387165 0.168100
H2    H     H_    0.022044 0.499853 0.612795 0.175488
H3    H     H_    0.612058 0.056197 0.647875 0.139918
H4    H     H_    0.584471 0.943987 0.361111 0.143625
H5    H     H_    0.395087 0.223469 0.351654 0.167897
H6    H     H_    0.420321 0.776873 0.638730 0.171706
H7    H     H_    0.389270 0.062709 0.350834 0.138268
H8    H     H_    0.415148 0.937492 0.638699 0.138934
H9    H     H_    0.718022 0.570146 0.090359 0.130705
H10   H     H_    0.364364 0.379747 0.917102 0.125474
H11   H     H_    0.710345 0.571536 0.266167 0.140248
H12   H     H_    0.362166 0.384595 0.740169 0.120949
H13   H     H_    0.289338 0.428847 0.231018 0.119988
H14   H     H_    0.636621 0.615935 0.762092 0.120892
H15   H     H_    0.281464 0.430175 0.053763 0.128696
H16   H     H_    0.634721 0.620444 0.938497 0.125304
N1    N     N_R   0.500000 0.500020 0.258690 -0.173453
N2    N     N_R   0.500000 0.499980 0.741310 -0.169846
O1    O     O_R   0.500010 0.371450 0.581430 -0.549646
O2    O     O_R   0.499990 0.628550 0.418570 -0.541469
O3    O     O_R   0.500010 0.371460 0.418560 -0.596442
O4    O     O_R   0.499990 0.628540 0.581440 -0.608356
O5    O     O_R   0.274840 0.499990 0.562640 -0.584044
O6    O     O_R   0.725160 0.500010 0.437360 -0.588459
O7    O     O_R   0.274840 0.500000 0.399770 -0.604668
O8    O     O_R   0.725160 0.500000 0.600230 -0.581918
O9    O     O_3   0.629733 0.230036 0.668836 -0.565261
C29   C     C_3   0.551979 0.210843 0.749330 -0.317731
H17   H     H_    0.424278 0.217725 0.730861 0.143150
H18   H     H_    0.590627 0.258784 0.807782 0.192715
H19   H     H_    0.582008 0.143941 0.779262 0.151818
O10   O     O_3   0.599321 0.771902 0.342214 -0.575044
C30   C     C_3   0.490400 0.779598 0.257396 -0.304809
H20   H     H_    0.374350 0.754985 0.269962 0.163756
H21   H     H_    0.529208 0.738245 0.199764 0.186955
H22   H     H_    0.482424 0.848739 0.229691 0.144095

loop_
_geom_bond_atom_site_label_1
_geom_bond_atom_site_label_2
_ccdc_geom_bond_type
C2    C22   S    
C14   O8    A    
Cu2   O3    S    
C30   H21   S    
C13   O5    A    
C1    C21   S    
Cu1   Cu2   S    
Cu1   O8    S    
C7    H13   S    
C16   H2    S    
Cu2   O6    S    
Cu2   O7    S    
Cu2   N1    S    
C23   H5    S    
C1    O3    A    
C13   C15   S    
C11   C12   S    
C3    C5    A    
C29   H19   S    
C8    N2    A    
Cu2   O2    S    
C30   H22   S    
C3    H9    S    
C17   H3    S    
Cu1   O1    S    
C19   O9    S    
C15   H1    S    
C18   H4    S    
O9    C29   S    
C24   H6    S    
C2    O4    A    
C14   C16   S    
C9    H15   S    
C10   C12   A    
C18   C28   A    
C26   C28   A    
C14   O6    A    
C24   C26   A    
Cu1   O5    S    
C18   C20   A    
C9    C11   A    
C21   C23   A    
C20   O10   S    
C22   C24   A    
C4    C12   A    
C4    C6    A    
C25   C27   A    
Cu1   N2    S    
C29   H18   S    
C15   C16   D    
C17   C27   A    
C4    H10   S    
C10   H16   S    
C23   C25   A    
C3    C11   A    
C8    C10   A    
C1    O1    A    
C7    N1    A    
C27   C28   S    
C7    C9    A    
C6    H12   S    
C17   C19   A    
C5    H11   S    
C2    O2    A    
C25   H7    S    
C29   H17   S    
C19   C21   A    
C5    N1    A    
C26   H8    S    
O10   C30   S    
C8    H14   S    
C20   C22   A    
C30   H20   S    
C13   O7    A    
Cu1   O4    S    
C6    N2    A    
