data_mof_unit_28333.cif
_audit_creation_date              2012-12-10T16:54:00-0500
_audit_creation_method            fapswitch 2.2
_symmetry_space_group_name_H-M    P1
_symmetry_Int_Tables_number       1
_space_group_crystal_system       triclinic
_cell_length_a                    7.936378
_cell_length_b                    8.584596
_cell_length_c                    10.71592
_cell_angle_alpha                 94.510193
_cell_angle_beta                  84.631365
_cell_angle_gamma                 93.089868
_cell_volume                      723.831315405

loop_
_atom_site_label
_atom_site_type_symbol
_atom_type_description
_atom_site_fract_x
_atom_site_fract_y
_atom_site_fract_z
_atom_type_partial_charge
C1    C     C_R   0.544742 0.791935 0.486944 0.941450
C2    C     C_3   0.429961 0.652362 0.943247 -0.502175
C3    C     C_3   0.443445 0.649190 0.085453 0.212045
C4    C     C_3   0.389951 0.359333 0.916774 -0.458850
C5    C     C_3   0.685415 0.487854 0.913314 -0.440227
C6    C     C_3   0.502182 0.501966 0.876560 0.093450
C7    C     C_3   0.755522 0.301996 0.071949 -0.324410
C8    C     C_3   0.943996 0.317304 0.078264 -0.985895
C9    C     C_3   0.373260 0.176186 0.087062 -0.478367
C10   C     C_3   0.341552 0.141844 0.222968 -0.806088
C11   C     C_3   0.732715 0.004327 0.380966 -0.366826
C12   C     C_3   0.498785 0.483467 0.118533 -0.004208
C13   C     C_3   0.823722 0.880800 0.291834 -0.838787
C14   C     C_3   0.985903 0.682567 0.602675 -0.176224
C15   C     C_3   0.069742 0.720344 0.724287 -0.920520
C16   C     C_3   0.373826 0.352602 0.060825 0.000161
C17   C     C_3   0.682582 0.462036 0.053550 -0.031344
C18   C     C_2   0.568392 0.949870 0.457133 -0.011447
C19   C     C_2   0.439022 0.041461 0.500817 -0.446744
C20   C     C_R   0.501414 0.505410 0.741313 0.850824
C21   C     C_R   0.456715 0.205974 0.503503 0.917507
C22   C     C_R   0.498564 0.490218 0.257319 0.850662
H1    H     H_    0.296124 0.661186 0.922869 0.199501
H2    H     H_    0.766584 0.557045 0.094848 0.163884
H3    H     H_    0.003926 0.360569 0.989238 0.258702
H4    H     H_    0.973489 0.401075 0.158401 0.287300
H5    H     H_    0.992040 0.201492 0.092090 0.262412
H6    H     H_    0.700479 0.253677 0.159809 0.219935
H7    H     H_    0.732007 0.214238 0.993118 0.202918
H8    H     H_    0.450195 0.189796 0.271537 0.232487
H9    H     H_    0.223324 0.193013 0.264924 0.307854
H10   H     H_    0.330673 0.013494 0.231030 0.288246
H11   H     H_    0.268794 0.113781 0.038224 0.225738
H12   H     H_    0.446822 0.252380 0.868081 0.165172
H13   H     H_    0.487326 0.117081 0.045653 0.213087
H14   H     H_    0.908017 0.813832 0.342315 0.280433
H15   H     H_    0.731661 0.799473 0.246341 0.243153
H16   H     H_    0.905200 0.939052 0.217442 0.238135
H17   H     H_    0.701930 0.093507 0.318776 0.211397
H18   H     H_    0.823600 0.056183 0.447206 0.236380
H19   H     H_    0.931155 0.284123 0.354547 0.332493
H20   H     H_    0.061741 0.615953 0.779946 0.257825
H21   H     H_    0.203135 0.762531 0.705519 0.285679
H22   H     H_    0.002495 0.815432 0.781543 0.215513
H23   H     H_    0.320224 0.996031 0.546380 0.168241
H24   H     H_    0.008498 0.782911 0.542992 0.170591
H25   H     H_    0.852011 0.668857 0.633192 0.227975
H26   H     H_    0.195587 0.636563 0.123784 0.338643
H27   H     H_    0.501862 0.757297 0.907575 0.140582
H28   H     H_    0.544333 0.737794 0.109528 0.125037
H29   H     H_    0.261572 0.362791 0.884156 0.171323
H30   H     H_    0.248000 0.389034 0.097363 0.185699
H31   H     H_    0.749995 0.392099 0.854514 0.208379
H32   H     H_    0.761522 0.597387 0.893364 0.159081
N1    N     N_2   0.950330 0.457950 0.465890 0.103060
N2    N     N_2   0.049670 0.542050 0.534110 0.056617
O1    O     O_R   0.389250 0.738570 0.508370 -0.629197
O2    O     O_3   0.293646 0.699123 0.154987 -0.759397
O3    O     O_R   0.678390 0.711620 0.486510 -0.659940
O4    O     O_R   0.355430 0.513500 0.696140 -0.628194
O5    O     O_R   0.644580 0.486550 0.674270 -0.658833
O6    O     O_R   0.321610 0.288380 0.513490 -0.555496
O7    O     O_R   0.610750 0.261430 0.491630 -0.637038
O8    O     O_R   0.355420 0.513450 0.325730 -0.527896
O9    O     O_R   0.644570 0.486500 0.303860 -0.655813
O10   O     O_3   0.023421 0.338060 0.399323 -0.678481
Zn1   Zn    Zn3+2 0.306940 0.517990 0.514600 1.009669
Zn2   Zn    Zn3+2 0.693060 0.482010 0.485400 0.923150

loop_
_geom_bond_atom_site_label_1
_geom_bond_atom_site_label_2
_ccdc_geom_bond_type
C12   C17   S    
C4    C16   S    
C14   N2    S    
N1    N2    D    
C19   H23   S    
C22   O9    A    
H26   O2    S    
H19   O10   S    
C7    H7    S    
C2    H27   S    
C10   H10   S    
O3    Zn2   S    
C20   O4    A    
N2    Zn1   S    
C8    H4    S    
C9    C10   S    
C10   H8    S    
C13   H15   S    
C3    O2    S    
O9    Zn2   S    
C16   H30   S    
C2    C3    S    
C13   H16   S    
C15   H21   S    
C7    C8    S    
C14   H24   S    
C9    H11   S    
C8    H3    S    
C11   C13   S    
O5    Zn2   S    
C1    C18   S    
C2    C6    S    
O6    Zn1   S    
O1    Zn1   S    
C5    C6    S    
C5    H31   S    
C19   C21   S    
C9    C16   S    
C15   H22   S    
N1    Zn2   S    
C1    O1    A    
C1    O3    A    
C11   H18   S    
C11   H17   S    
C4    H12   S    
C21   O7    A    
C17   H2    S    
C5    C17   S    
C4    H29   S    
C22   O8    A    
O8    Zn1   S    
C12   C22   S    
C5    H32   S    
C2    H1    S    
N1    O10   S    
C6    C20   S    
O4    Zn1   S    
C13   H14   S    
C4    C6    S    
C18   C19   D    
C20   O5    A    
C9    H13   S    
C8    H5    S    
C14   C15   S    
C11   C18   S    
C3    C12   S    
C21   O6    A    
O7    Zn2   S    
C14   H25   S    
C10   H9    S    
C3    H28   S    
C7    H6    S    
C12   C16   S    
C15   H20   S    
C7    C17   S    
