data_mof_unit_55235.cif
_audit_creation_date              2012-12-11T17:36:08-0500
_audit_creation_method            fapswitch 2.2
_symmetry_space_group_name_H-M    P1
_symmetry_Int_Tables_number       1
_space_group_crystal_system       triclinic
_cell_length_a                    26.179429
_cell_length_b                    6.886313
_cell_length_c                    21.460752
_cell_angle_alpha                 89.983393
_cell_angle_beta                  96.054067
_cell_angle_gamma                 89.982528
_cell_volume                      3847.36066936

loop_
_atom_site_label
_atom_site_type_symbol
_atom_type_description
_atom_site_fract_x
_atom_site_fract_y
_atom_site_fract_z
_atom_type_partial_charge
O1    O     O_R   0.208650 0.594520 0.175450 -0.558354
O2    O     O_R   0.791350 0.405480 0.824550 -0.558198
O3    O     O_R   0.291350 0.094520 0.324550 -0.558625
O4    O     O_R   0.708650 0.905480 0.675450 -0.558004
O5    O     O_R   0.192980 0.260780 0.300160 -0.500640
O6    O     O_R   0.807020 0.739220 0.699840 -0.500495
O7    O     O_R   0.307020 0.760780 0.199840 -0.500045
O8    O     O_R   0.692980 0.239220 0.800160 -0.500655
C1    C     C_R   0.178442 0.432229 0.317905 0.754346
C2    C     C_R   0.821603 0.567747 0.682198 0.757523
C3    C     C_R   0.321559 0.932224 0.182099 0.756594
C4    C     C_R   0.678413 0.067752 0.817823 0.757576
O9    O     O_R   0.202550 0.264660 0.174420 -0.520316
O10   O     O_R   0.797450 0.735340 0.825580 -0.519794
O11   O     O_R   0.297450 0.764660 0.325580 -0.521450
O12   O     O_R   0.702550 0.235340 0.674420 -0.519954
O13   O     O_R   0.300990 0.096480 0.197920 -0.533753
O14   O     O_R   0.699010 0.903520 0.802080 -0.535443
O15   O     O_R   0.199010 0.596480 0.302080 -0.533216
O16   O     O_R   0.800990 0.403520 0.697920 -0.535224
C5    C     C_R   0.190355 0.434152 0.151353 0.725600
C6    C     C_R   0.809656 0.565819 0.848637 0.730218
C7    C     C_R   0.309650 0.934068 0.348647 0.725490
C8    C     C_R   0.690331 0.065910 0.651367 0.731371
O17   O     O_3   0.282290 0.427760 0.257860 -0.352474
O18   O     O_3   0.717710 0.572240 0.742140 -0.353704
O19   O     O_3   0.217710 0.927760 0.242140 -0.351298
O20   O     O_3   0.782290 0.072240 0.757860 -0.353554
V1    V     V_3+5 0.244010 0.152080 0.248540 1.636949
V2    V     V_3+5 0.755990 0.847920 0.751460 1.637338
V3    V     V_3+5 0.255990 0.652080 0.251460 1.634667
V4    V     V_3+5 0.744010 0.347920 0.748540 1.637074
C9    C     C_R   0.655495 0.057230 0.591919 -0.313583
C10   C     C_R   0.344467 0.942635 0.408106 -0.291913
C11   C     C_R   0.844444 0.556768 0.908111 -0.315216
C12   C     C_R   0.155543 0.442994 0.091893 -0.289097
C13   C     C_R   0.640670 0.153008 0.482038 0.493072
C14   C     C_R   0.359153 0.846124 0.517951 0.417801
C15   C     C_R   0.859027 0.649369 0.018272 0.495894
C16   C     C_R   0.140924 0.347591 0.981972 0.413874
C17   C     C_R   0.674804 0.109176 0.535178 0.245733
C18   C     C_R   0.325095 0.891006 0.464825 0.214896
C19   C     C_R   0.824996 0.606898 0.964930 0.248931
C20   C     C_R   0.174955 0.392054 0.035141 0.214722
C21   C     C_R   0.602668 0.005494 0.590749 0.339486
C22   C     C_R   0.397335 0.993542 0.409290 0.338825
C23   C     C_R   0.897323 0.505661 0.909276 0.345557
C24   C     C_R   0.102648 0.493627 0.090740 0.347924
C25   C     C_R   0.568986 0.034141 0.534582 0.004174
C26   C     C_R   0.430938 0.964964 0.465514 0.007251
C27   C     C_R   0.930921 0.533524 0.965539 0.001927
C28   C     C_R   0.069058 0.465437 0.034487 0.018477
C29   C     C_R   0.587143 0.146114 0.486140 -0.243339
C30   C     C_R   0.412733 0.852942 0.513926 -0.218678
C31   C     C_R   0.912573 0.643745 0.014229 -0.271997
C32   C     C_R   0.087341 0.354044 0.985991 -0.206998
C33   C     C_R   0.517207 0.963802 0.525428 0.102171
C34   C     C_R   0.482702 0.035341 0.474703 0.100392
C35   C     C_R   0.982780 0.463907 0.974591 0.089830
C36   C     C_R   0.017222 0.535299 0.025373 0.038783
C37   C     C_R   0.499476 0.189142 0.438976 -0.092891
C38   C     C_R   0.500417 0.810005 0.561142 -0.102694
C39   C     C_R   0.000205 0.687885 0.061412 -0.098045
C40   C     C_R   0.999695 0.310709 0.938744 -0.105489
C41   C     C_R   0.550838 0.247004 0.444480 0.453383
C42   C     C_R   0.449053 0.752040 0.555590 0.448286
C43   C     C_R   0.948715 0.744197 0.056182 0.476249
C44   C     C_R   0.051096 0.253144 0.944276 0.450838
H1    H     H_    0.472166 0.274454 0.409316 0.181853
H2    H     H_    0.527720 0.724635 0.590785 0.185591
H3    H     H_    0.027345 0.773317 0.091261 0.217887
H4    H     H_    0.972455 0.225410 0.909022 0.184911
C45   C     C_R   0.446061 0.843430 0.105977 -0.225294
C46   C     C_R   0.553642 0.155975 0.893273 -0.220613
C47   C     C_R   0.054025 0.343297 0.394199 -0.225923
C48   C     C_R   0.946353 0.656300 0.606724 -0.220516
H5    H     H_    0.479622 0.750544 0.111481 0.183808
H6    H     H_    0.519947 0.248183 0.887322 0.197153
H7    H     H_    0.020509 0.250256 0.388800 0.182774
H8    H     H_    0.979984 0.748763 0.612596 0.197122
C49   C     C_R   0.407596 0.822083 0.146630 0.413164
C50   C     C_R   0.592037 0.176169 0.852481 0.395056
C51   C     C_R   0.092474 0.321884 0.353528 0.405182
C52   C     C_R   0.907941 0.676484 0.647494 0.395018
C53   C     C_R   0.363024 0.942068 0.138771 -0.340029
C54   C     C_R   0.636898 0.057980 0.861017 -0.334705
C55   C     C_R   0.136988 0.442089 0.361255 -0.339377
C56   C     C_R   0.863153 0.557980 0.639043 -0.334788
C57   C     C_R   0.358531 0.077924 0.088412 0.365641
C58   C     C_R   0.641668 0.924361 0.911987 0.375671
C59   C     C_R   0.141440 0.578192 0.411516 0.366864
C60   C     C_R   0.858485 0.424054 0.588188 0.376217
C61   C     C_R   0.398376 0.103421 0.050058 0.431760
C62   C     C_R   0.601854 0.899567 0.950436 0.452709
C63   C     C_R   0.101605 0.603760 0.449879 0.431024
C64   C     C_R   0.898323 0.399254 0.549779 0.452590
C65   C     C_R   0.442313 0.982960 0.058290 -0.136328
C66   C     C_R   0.557661 0.018603 0.941616 -0.128412
C67   C     C_R   0.057730 0.483086 0.441774 -0.135085
C68   C     C_R   0.942430 0.518633 0.558500 -0.128303
C69   C     C_1   0.483107 0.995506 0.017221 0.034748
C70   C     C_1   0.516837 0.006497 0.982654 0.038597
C71   C     C_1   0.016962 0.495645 0.482873 0.034234
C72   C     C_1   0.983247 0.506608 0.517457 0.038607
S1    S     S_3+6 0.564022 0.479034 0.413639 0.112205
O21   O     O_2   0.608812 0.572109 0.451941 -0.286789
O22   O     O_2   0.575677 0.461498 0.346782 -0.236506
O23   O     O_3   0.512421 0.623766 0.415965 -0.505731
H9    H     H_    0.492424 0.610948 0.374341 0.389491
S2    S     S_3+6 0.435932 0.519759 0.586279 0.104683
O24   O     O_2   0.423916 0.536934 0.653010 -0.222369
O25   O     O_2   0.391402 0.426298 0.547613 -0.303332
O26   O     O_3   0.487701 0.375663 0.584322 -0.509686
H10   H     H_    0.507433 0.388296 0.626116 0.376936
S3    S     S_3+6 0.935089 0.973990 0.088210 0.105987
O27   O     O_2   0.890246 0.068018 0.050203 -0.307360
O28   O     O_2   0.923692 0.951397 0.154984 -0.230744
O29   O     O_3   0.986759 0.118583 0.087117 -0.504119
H11   H     H_    0.977985 0.238263 0.109279 0.394179
S4    S     S_3+6 0.064378 0.021137 0.913517 0.108751
O30   O     O_2   0.076273 0.038771 0.846748 -0.223428
O31   O     O_2   0.109042 0.927973 0.952069 -0.300557
O32   O     O_3   0.012754 0.876451 0.915582 -0.505308
H12   H     H_    0.992955 0.888990 0.873821 0.376733
O33   O     O_3   0.418076 0.049804 0.355421 -0.603756
H13   H     H_    0.390479 0.086188 0.322457 0.318101
O34   O     O_3   0.582039 0.948367 0.644598 -0.606704
H14   H     H_    0.609700 0.911331 0.677396 0.320325
O35   O     O_3   0.081883 0.549146 0.144663 -0.604819
H15   H     H_    0.109461 0.585473 0.177643 0.319645
O36   O     O_3   0.918062 0.449809 0.855374 -0.605953
H16   H     H_    0.890461 0.412881 0.822499 0.319631
O37   O     O_3   0.273040 0.884037 0.469993 -0.585836
H17   H     H_    0.254635 0.963528 0.436297 0.322367
O38   O     O_3   0.726842 0.117412 0.529976 -0.560148
H18   H     H_    0.745411 0.038803 0.563778 0.320039
O39   O     O_3   0.227017 0.385251 0.029987 -0.585521
H19   H     H_    0.245410 0.464237 0.063795 0.322179
O40   O     O_3   0.772932 0.614536 0.970040 -0.559588
H20   H     H_    0.754421 0.537110 0.935925 0.319542
S5    S     S_3+6 0.665242 0.161791 0.407869 0.216619
O41   O     O_2   0.684356 0.362837 0.396106 -0.219591
O42   O     O_2   0.709184 0.021460 0.407079 -0.234648
O43   O     O_3   0.619394 0.098220 0.350660 -0.446725
H21   H     H_    0.636002 0.108450 0.311403 0.405266
S6    S     S_3+6 0.334184 0.834752 0.591941 0.246588
O44   O     O_2   0.374963 0.888684 0.643612 -0.225419
O45   O     O_2   0.290381 0.975402 0.593373 -0.229113
O46   O     O_3   0.312451 0.610029 0.604662 -0.378809
H22   H     H_    0.286373 0.583929 0.568759 0.375103
S7    S     S_3+6 0.834399 0.653981 0.092440 0.209060
O47   O     O_2   0.815156 0.854129 0.105225 -0.217720
O48   O     O_2   0.790544 0.513052 0.092490 -0.235013
O49   O     O_3   0.880277 0.587977 0.149325 -0.458729
H23   H     H_    0.863724 0.596789 0.188654 0.405397
S8    S     S_3+6 0.165909 0.337048 0.907980 0.246562
O50   O     O_2   0.125090 0.390925 0.856327 -0.225617
O51   O     O_2   0.209590 0.478187 0.906636 -0.228956
O52   O     O_3   0.187841 0.112665 0.895150 -0.378885
H24   H     H_    0.213958 0.086613 0.931027 0.375579
S9    S     S_3+6 0.417483 0.643078 0.206235 0.050139
O53   O     O_2   0.405036 0.724193 0.267796 -0.313990
O54   O     O_2   0.382936 0.472559 0.189268 -0.333107
O55   O     O_3   0.478944 0.567028 0.214480 -0.453107
H25   H     H_    0.480248 0.458593 0.184356 0.354243
S10   S     S_3+6 0.581734 0.352287 0.792034 0.051956
O56   O     O_2   0.614148 0.527640 0.809931 -0.297498
O57   O     O_2   0.596421 0.273305 0.731169 -0.343333
O58   O     O_3   0.519738 0.421067 0.782073 -0.455037
H26   H     H_    0.501116 0.308373 0.762005 0.377223
S11   S     S_3+6 0.082636 0.142510 0.294078 0.067062
O59   O     O_2   0.094867 0.223501 0.232400 -0.298565
O60   O     O_2   0.117369 0.972422 0.311065 -0.332724
O61   O     O_3   0.021248 0.065761 0.286086 -0.443988
H27   H     H_    0.020102 0.957596 0.316359 0.353270
S12   S     S_3+6 0.918132 0.853029 0.707784 0.052003
O62   O     O_2   0.885608 0.028086 0.689730 -0.297403
O63   O     O_2   0.903498 0.774352 0.768723 -0.342985
O64   O     O_3   0.980084 0.922228 0.717682 -0.455339
H28   H     H_    0.998780 0.809751 0.737840 0.377123
O65   O     O_3   0.314747 0.186562 0.073855 -0.573674
H29   H     H_    0.284816 0.108554 0.083589 0.294694
O66   O     O_3   0.685665 0.817311 0.927056 -0.566988
H30   H     H_    0.715453 0.894855 0.916600 0.302124
O67   O     O_3   0.185183 0.686995 0.425970 -0.573741
H31   H     H_    0.215136 0.608843 0.416366 0.294682
O68   O     O_3   0.814554 0.316728 0.573188 -0.567138
H32   H     H_    0.784724 0.394444 0.583441 0.302440
O69   O     O_3   0.391473 0.243908 0.003780 -0.573927
H33   H     H_    0.422585 0.255329 0.981624 0.309791
O70   O     O_3   0.609035 0.761259 0.997372 -0.571228
H34   H     H_    0.577973 0.750251 0.019641 0.306432
O71   O     O_3   0.108462 0.744513 0.496043 -0.574138
H35   H     H_    0.077349 0.755985 0.518198 0.309700
O72   O     O_3   0.891242 0.260618 0.502966 -0.571574
H36   H     H_    0.922330 0.249561 0.480747 0.306207

loop_
_geom_bond_atom_site_label_1
_geom_bond_atom_site_label_2
_ccdc_geom_bond_type
O17   V3    S    
C51   C55   A    
S11   O59   D    
O1    C5    A    
C69   C70   T    
C55   C59   A    
O19   V1    S    
C9    C21   A    
O58   H26   S    
C22   O33   S    
O3    C7    A    
C10   C18   A    
C60   C64   A    
C11   C23   A    
C48   C52   A    
S9    O53   D    
O67   H31   S    
C60   O68   S    
C25   C33   A    
O38   H18   S    
C46   C66   A    
C5    C12   S    
O65   H29   S    
O7    C3    A    
C6    C11   S    
S11   O60   D    
C2    C56   S    
C35   C40   A    
C20   O39   S    
C13   S5    S    
C18   O37   S    
C40   C44   A    
O9    V1    S    
O55   H25   S    
O10   V2    S    
C14   C18   A    
S5    O42   D    
C50   S10   S    
O4    C8    A    
C63   C67   A    
C62   C66   A    
S3    O27   D    
C15   S7    S    
O1    V3    S    
O13   V1    S    
O23   H9    S    
C38   H2    S    
O2    V4    S    
S7    O49   S    
C45   C49   A    
O3    V1    S    
C43   S3    S    
O61   H27   S    
C14   S6    S    
C28   C36   A    
O29   H11   S    
C1    O15   A    
S12   O64   S    
C15   C31   A    
C56   C60   A    
C2    O16   A    
C16   C32   A    
C51   S11   S    
O2    C6    A    
S7    O47   D    
C19   O40   S    
C10   C22   A    
C21   C25   A    
C11   C19   A    
C16   C20   A    
S6    O45   D    
S4    O32   S    
C49   C53   A    
C13   C29   A    
C7    C10   S    
C34   C37   A    
O11   C7    A    
O33   H13   S    
C59   O67   S    
O39   H19   S    
O15   V3    S    
C35   C36   A    
O12   C8    A    
S7    O48   D    
S10   O57   D    
C46   C50   A    
C41   S1    S    
S9    O54   D    
S4    O31   D    
C58   C62   A    
O5    V1    S    
C64   O72   S    
O17   V1    S    
S11   O61   S    
C39   C43   A    
O7    V3    S    
C38   C42   A    
O19   V3    S    
O70   H34   S    
C26   C34   A    
C52   C56   A    
C48   C68   A    
O32   H12   S    
O26   H10   S    
C67   C71   S    
C54   C58   A    
S5    O43   S    
C53   C57   A    
O18   V4    S    
C15   C19   A    
O72   H36   S    
C68   C72   S    
C50   C54   A    
C57   C61   A    
O4    V2    S    
S2    O24   D    
C23   O36   S    
O8    V4    S    
C45   C65   A    
O66   H30   S    
O5    C1    A    
S6    O46   S    
S1    O22   D    
C31   C43   A    
O52   H24   S    
C14   C30   A    
O20   V4    S    
O8    C4    A    
S3    O29   S    
C47   C67   A    
O9    C5    A    
C26   C30   A    
S1    O23   S    
C42   S2    S    
C52   S12   S    
S2    O26   S    
O49   H23   S    
O14   V2    S    
S12   O62   D    
O6    V2    S    
C39   H3    S    
O18   V2    S    
C36   C39   A    
O37   H17   S    
C24   O35   S    
C12   C20   A    
C27   C35   A    
C33   C38   A    
O36   H16   S    
C61   C65   A    
C17   O38   S    
S9    O55   S    
C29   C41   A    
S4    O30   D    
S6    O44   D    
O16   V4    S    
C37   H1    S    
S3    O28   D    
C3    O13   A    
C49   S9    S    
S8    O52   S    
C48   H8    S    
O43   H21   S    
O6    C2    A    
C23   C27   A    
O40   H20   S    
O11   V3    S    
O34   H14   S    
C30   C42   A    
C61   O69   S    
O12   V4    S    
S1    O21   D    
C22   C26   A    
C8    C9    S    
C21   O34   S    
C4    C54   S    
C62   O70   S    
C9    C17   A    
O10   C6    A    
S8    O51   D    
O35   H15   S    
O68   H32   S    
C66   C70   S    
S5    O41   D    
C44   S4    S    
C47   C51   A    
C33   C34   A    
S10   O56   D    
C3    C53   S    
C25   C29   A    
C64   C68   A    
O20   V2    S    
C32   C44   A    
C12   C24   A    
C27   C31   A    
C40   H4    S    
C13   C17   A    
O69   H33   S    
S2    O25   D    
C59   C63   A    
O64   H28   S    
C37   C41   A    
C24   C28   A    
S8    O50   D    
C58   O66   S    
S10   O58   S    
C63   O71   S    
O71   H35   S    
C46   H6    S    
C4    O14   A    
C71   C72   T    
C45   H5    S    
C16   S8    S    
O46   H22   S    
C47   H7    S    
C65   C69   S    
C28   C32   A    
C57   O65   S    
S12   O63   D    
C1    C55   S    
