data_mof_unit_31075.cif
_audit_creation_date              2012-12-11T15:37:12-0500
_audit_creation_method            fapswitch 2.2
_symmetry_space_group_name_H-M    P1
_symmetry_Int_Tables_number       1
_space_group_crystal_system       triclinic
_cell_length_a                    17.628829
_cell_length_b                    24.427608
_cell_length_c                    14.993863
_cell_angle_alpha                 89.947069
_cell_angle_beta                  125.823404
_cell_angle_gamma                 90.064716
_cell_volume                      5235.33738501

loop_
_atom_site_label
_atom_site_type_symbol
_atom_type_description
_atom_site_fract_x
_atom_site_fract_y
_atom_site_fract_z
_atom_type_partial_charge
C1    C     C_R   0.853480 0.653248 0.910687 -0.005116
C2    C     C_R   0.187306 0.372347 0.092406 -0.019148
C3    C     C_R   0.188415 0.626308 0.092504 -0.028754
C4    C     C_R   0.853257 0.346797 0.910536 -0.050396
C5    C     C_R   0.353941 0.153358 0.910791 -0.005476
C6    C     C_R   0.688068 0.873259 0.092808 -0.022844
C7    C     C_R   0.688485 0.126190 0.092487 -0.029894
C8    C     C_R   0.354249 0.846509 0.910859 -0.011281
C9    C     C_3   0.399310 0.499380 0.452958 0.103283
C10   C     C_3   0.576252 0.499365 0.617403 0.122271
C11   C     C_3   0.898811 0.999643 0.454929 0.104327
C12   C     C_3   0.075536 0.999941 0.620995 0.130237
C13   C     C_R   0.833204 0.220504 0.950779 0.245250
C14   C     C_R   0.246275 0.735190 0.057383 0.236964
C15   C     C_R   0.246013 0.263380 0.058487 0.235456
C16   C     C_R   0.832186 0.779206 0.950229 0.242941
C17   C     C_R   0.333739 0.720249 0.951023 0.245047
C18   C     C_R   0.745734 0.235193 0.057191 0.237836
C19   C     C_R   0.746532 0.764402 0.058803 0.242074
C20   C     C_R   0.331399 0.278976 0.949756 0.240907
C21   C     C_R   0.279422 0.678569 0.949411 -0.223149
C22   C     C_R   0.801685 0.275502 0.061537 -0.195386
C23   C     C_R   0.802628 0.724305 0.063045 -0.212683
C24   C     C_R   0.276221 0.320069 0.947696 -0.215517
C25   C     C_R   0.779216 0.178689 0.949360 -0.218270
C26   C     C_R   0.302502 0.775368 0.061877 -0.197810
C27   C     C_R   0.302943 0.223732 0.063221 -0.206887
C28   C     C_R   0.777972 0.820789 0.948787 -0.226262
C29   C     C_R   0.236372 0.686127 0.002575 0.016831
C30   C     C_R   0.844297 0.268650 0.008073 -0.010248
C31   C     C_R   0.844297 0.731180 0.008448 0.010366
C32   C     C_R   0.234190 0.312144 0.001961 0.010071
C33   C     C_R   0.736179 0.186127 0.002558 0.012223
C34   C     C_R   0.345144 0.768413 0.008447 -0.009610
C35   C     C_R   0.344518 0.231016 0.008566 0.009628
C36   C     C_R   0.735789 0.813291 0.002994 0.024647
C37   C     C_R   0.852650 0.507031 0.434508 -0.107743
C38   C     C_R   0.026669 0.492946 0.471307 -0.115962
C39   C     C_R   0.857664 0.506787 0.345749 -0.107658
C40   C     C_R   0.021603 0.492834 0.558796 -0.129569
C41   C     C_R   0.353282 0.004092 0.435310 -0.162968
C42   C     C_R   0.527525 0.995828 0.470641 -0.118400
C43   C     C_R   0.357309 0.003861 0.345827 -0.092492
C44   C     C_R   0.523480 0.995872 0.558862 -0.153265
C45   C     C_R   0.944769 0.499341 0.365526 0.137834
C46   C     C_R   0.934948 0.499730 0.539783 0.145223
C47   C     C_R   0.444605 0.999462 0.364949 0.140212
C48   C     C_R   0.436739 0.999934 0.540557 0.080369
C49   C     C_R   0.949058 0.347880 0.092237 -0.107873
C50   C     C_R   0.093794 0.627825 0.907706 -0.038785
C51   C     C_R   0.091762 0.370491 0.907193 -0.120985
C52   C     C_R   0.949002 0.651966 0.092430 -0.139782
C53   C     C_R   0.449460 0.847850 0.092439 -0.110285
C54   C     C_R   0.593747 0.127849 0.907700 -0.044843
C55   C     C_R   0.593415 0.871706 0.907841 -0.042093
C56   C     C_R   0.449480 0.152044 0.092457 -0.139945
C57   C     C_R   0.983277 0.545465 0.252031 -0.036853
C58   C     C_R   0.949115 0.454035 0.695164 -0.073903
C59   C     C_R   0.948874 0.545566 0.694492 -0.082747
C60   C     C_R   0.985060 0.453556 0.253159 -0.018906
C61   C     C_R   0.482598 0.045500 0.251147 -0.036806
C62   C     C_R   0.450444 0.954273 0.695402 -0.041648
C63   C     C_R   0.450358 0.045765 0.695275 -0.037372
C64   C     C_R   0.484389 0.953597 0.252422 -0.010196
C65   C     C_R   0.731522 0.453933 0.727752 0.141906
C66   C     C_R   0.254813 0.545262 0.303534 0.171844
C67   C     C_R   0.254228 0.454407 0.303398 0.146611
C68   C     C_R   0.731113 0.545648 0.727977 0.167787
C69   C     C_R   0.230989 0.954181 0.730284 0.167015
C70   C     C_R   0.754645 0.045299 0.303690 0.171005
C71   C     C_R   0.754053 0.954461 0.303692 0.148513
C72   C     C_R   0.231092 0.045838 0.729990 0.167454
C73   C     C_R   0.888096 0.683603 0.003217 0.053986
C74   C     C_R   0.177675 0.354384 0.999684 0.073757
C75   C     C_R   0.180022 0.643497 0.000161 0.014169
C76   C     C_R   0.888063 0.316317 0.002948 0.091571
C77   C     C_R   0.388840 0.183757 0.003321 0.054395
C78   C     C_R   0.679430 0.855820 0.000482 0.016041
C79   C     C_R   0.680036 0.143406 0.000139 0.015751
C80   C     C_R   0.389079 0.816057 0.003322 0.069423
C81   C     C_R   0.954123 0.499262 0.277553 -0.074222
C82   C     C_R   0.934528 0.499752 0.633735 -0.064555
C83   C     C_R   0.453113 0.999324 0.276351 -0.079923
C84   C     C_R   0.437369 0.000027 0.635144 -0.142932
C85   C     C_R   0.675750 0.499619 0.697429 -0.008553
C86   C     C_R   0.302320 0.499710 0.362828 -0.025643
C87   C     C_R   0.175415 0.000015 0.701000 -0.034696
C88   C     C_R   0.802122 0.999800 0.363264 -0.024825
C89   C     C_3   0.506479 0.454611 0.596271 -0.125526
C90   C     C_3   0.469480 0.544030 0.474476 -0.119371
C91   C     C_3   0.469216 0.454581 0.474604 -0.115606
C92   C     C_3   0.506517 0.544098 0.596076 -0.129287
C93   C     C_3   0.005231 0.955527 0.599971 -0.126587
C94   C     C_3   0.969381 0.043991 0.476289 -0.119407
C95   C     C_3   0.968902 0.954579 0.478597 -0.114825
C96   C     C_3   0.005571 0.044999 0.597609 -0.127069
C97   C     C_3   0.435343 0.499356 0.574244 -0.122544
C98   C     C_3   0.539540 0.499248 0.496003 -0.104422
C99   C     C_3   0.933885 0.000600 0.575895 -0.125617
C100  C     C_3   0.039586 0.998926 0.499769 -0.108601
H1    H     H_    0.813347 0.669365 0.828732 0.170274
H2    H     H_    0.245029 0.364862 0.176762 0.164240
H3    H     H_    0.246292 0.633642 0.176749 0.162629
H4    H     H_    0.812578 0.330854 0.828451 0.155718
H5    H     H_    0.314065 0.169533 0.828886 0.171068
H6    H     H_    0.745663 0.865876 0.177285 0.169671
H7    H     H_    0.746424 0.133477 0.176722 0.161928
H8    H     H_    0.315412 0.830115 0.829205 0.171926
H9    H     H_    0.998186 0.331590 0.173449 0.131740
H10   H     H_    0.067793 0.637069 0.824261 0.138695
H11   H     H_    0.063789 0.360040 0.823577 0.105743
H12   H     H_    0.997785 0.667969 0.173929 0.190356
H13   H     H_    0.498646 0.831719 0.173783 0.135153
H14   H     H_    0.567610 0.137291 0.824292 0.138541
H15   H     H_    0.567161 0.862201 0.824421 0.137813
H16   H     H_    0.498422 0.167991 0.173978 0.190941
H17   H     H_    0.390463 0.499364 0.603820 0.166660
H18   H     H_    0.583821 0.499186 0.465547 0.178013
H19   H     H_    0.888404 0.001248 0.604636 0.165918
H20   H     H_    0.084297 0.998259 0.469901 0.175236
H21   H     H_    0.270194 0.640688 0.906539 0.162267
H22   H     H_    0.807520 0.313879 0.101496 0.190561
H23   H     H_    0.809267 0.686036 0.103838 0.156538
H24   H     H_    0.265675 0.357824 0.903798 0.163213
H25   H     H_    0.770194 0.140810 0.906576 0.162820
H26   H     H_    0.308511 0.813745 0.101925 0.190164
H27   H     H_    0.310327 0.185484 0.104448 0.155654
H28   H     H_    0.768154 0.858557 0.905243 0.160659
H29   H     H_    0.786040 0.512664 0.421883 0.142673
H30   H     H_    0.094038 0.487937 0.485415 0.133532
H31   H     H_    0.795008 0.512257 0.262983 0.146353
H32   H     H_    0.084941 0.487649 0.641314 0.129803
H33   H     H_    0.286577 0.007400 0.423279 0.149411
H34   H     H_    0.594907 0.992888 0.484095 0.136117
H35   H     H_    0.293787 0.006998 0.263052 0.146258
H36   H     H_    0.587627 0.992910 0.641348 0.135137
N1    N     N_R   0.892620 0.603790 0.941800 -0.049586
N2    N     N_R   0.107380 0.396210 0.058200 -0.046564
N3    N     N_R   0.107380 0.603790 0.058200 -0.053097
N4    N     N_R   0.892620 0.396210 0.941800 -0.049849
N5    N     N_R   0.392620 0.103790 0.941800 -0.051483
N6    N     N_R   0.607380 0.896210 0.058200 -0.053685
N7    N     N_R   0.607380 0.103790 0.058200 -0.053448
N8    N     N_R   0.392620 0.896210 0.941800 -0.048796
N9    N     N_R   0.952210 0.397600 0.057910 -0.056113
N10   N     N_R   0.047790 0.602400 0.942090 -0.036010
N11   N     N_R   0.047790 0.397600 0.942090 -0.056495
N12   N     N_R   0.952210 0.602400 0.057910 -0.057368
N13   N     N_R   0.452210 0.897600 0.057910 -0.062465
N14   N     N_R   0.547790 0.102400 0.942090 -0.038462
N15   N     N_R   0.547790 0.897600 0.942090 -0.037114
N16   N     N_R   0.452210 0.102400 0.057910 -0.058468
N17   N     N_R   0.026300 0.529110 0.206760 -0.045483
N18   N     N_R   0.973700 0.470890 0.793240 -0.087098
N19   N     N_R   0.973700 0.529110 0.793240 -0.046687
N20   N     N_R   0.026300 0.470890 0.206760 -0.084631
N21   N     N_R   0.526300 0.029110 0.206760 -0.046546
N22   N     N_R   0.473700 0.970890 0.793240 -0.057864
N23   N     N_R   0.473700 0.029110 0.793240 -0.058019
N24   N     N_R   0.526300 0.970890 0.206760 -0.085875
N25   N     N_R   0.818530 0.472270 0.792960 -0.082514
N26   N     N_R   0.181470 0.527730 0.207040 -0.076903
N27   N     N_R   0.181470 0.472270 0.207040 -0.076292
N28   N     N_R   0.818530 0.527730 0.792960 -0.068300
N29   N     N_R   0.318530 0.972270 0.792960 -0.073893
N30   N     N_R   0.681470 0.027730 0.207040 -0.077980
N31   N     N_R   0.681470 0.972270 0.207040 -0.078442
N32   N     N_R   0.318530 0.027730 0.792960 -0.074714
Ni1   Ni    Ni4+2 0.934150 0.565840 0.869060 0.301236
Ni2   Ni    Ni4+2 0.065850 0.434160 0.130940 0.237517
Ni3   Ni    Ni4+2 0.065850 0.565840 0.130940 0.285876
Ni4   Ni    Ni4+2 0.934150 0.434160 0.869060 0.226530
Ni5   Ni    Ni4+2 0.434150 0.065840 0.869060 0.296654
Ni6   Ni    Ni4+2 0.565850 0.934160 0.130940 0.234167
Ni7   Ni    Ni4+2 0.565850 0.065840 0.130940 0.280683
Ni8   Ni    Ni4+2 0.434150 0.934160 0.869060 0.297237
C101  C     C_2   0.991419 0.599570 0.300016 0.482581
H37   H     H_    0.933396 0.615554 0.298753 0.017827
O1    O     O_2   0.064974 0.624743 0.348736 -0.531521
C102  C     C_2   0.913070 0.398767 0.650542 0.574090
H38   H     H_    0.905736 0.369040 0.698794 0.026863
O2    O     O_2   0.889797 0.386021 0.559020 -0.507688
C103  C     C_2   0.913331 0.600406 0.646584 0.514116
H39   H     H_    0.896117 0.609942 0.565993 0.031230
O3    O     O_2   0.900328 0.635013 0.694870 -0.551135
C104  C     C_2   0.998571 0.399114 0.302731 0.502936
H40   H     H_    0.060037 0.375351 0.328783 0.049686
O4    O     O_2   0.942131 0.380908 0.317368 -0.520929
C105  C     C_2   0.490689 0.099607 0.299129 0.485443
H41   H     H_    0.432459 0.115692 0.297329 0.020580
O5    O     O_2   0.564403 0.124640 0.348466 -0.531996
C106  C     C_2   0.413833 0.899661 0.646877 0.516706
H42   H     H_    0.397350 0.890096 0.566646 0.066739
O6    O     O_2   0.399034 0.865362 0.694149 -0.554470
C107  C     C_2   0.414228 0.100452 0.646859 0.514072
H43   H     H_    0.397862 0.110056 0.566683 0.042362
O7    O     O_2   0.399800 0.134823 0.694236 -0.554705
C108  C     C_2   0.497937 0.899261 0.302409 0.489412
H44   H     H_    0.559519 0.875517 0.328917 0.054569
O8    O     O_2   0.441355 0.881115 0.316865 -0.549951
I1    I     I_    0.695630 0.382420 0.630113 -0.449830
I2    I     I_    0.257422 0.620751 0.375247 -0.338452
I3    I     I_    0.252481 0.379849 0.374908 -0.469378
I4    I     I_    0.692693 0.617867 0.631527 -0.406548
I5    I     I_    0.191067 0.881751 0.634282 -0.395265
I6    I     I_    0.757146 0.120944 0.374902 -0.334601
I7    I     I_    0.751304 0.880049 0.374900 -0.472512
I8    I     I_    0.192123 0.117752 0.632597 -0.401370
C109  C     C_2   0.524822 0.405916 0.667024 0.609010
H45   H     H_    0.503641 0.365418 0.630845 0.028045
O9    O     O_2   0.561858 0.411782 0.765186 -0.523132
C110  C     C_2   0.455536 0.592603 0.405172 0.573108
H46   H     H_    0.465417 0.633668 0.437675 0.042594
O10   O     O_2   0.433041 0.586134 0.311904 -0.550008
C111  C     C_2   0.454076 0.405730 0.405492 0.595060
H47   H     H_    0.462669 0.364763 0.438016 0.040321
O11   O     O_2   0.431874 0.411863 0.312266 -0.545960
C112  C     C_2   0.523835 0.592721 0.666471 0.603780
H48   H     H_    0.501123 0.633055 0.629802 0.030651
O12   O     O_2   0.561514 0.586934 0.764803 -0.526579
C113  C     C_2   0.022400 0.907479 0.671642 0.602246
H49   H     H_    0.999859 0.866920 0.636127 0.029197
O13   O     O_2   0.059808 0.913991 0.769739 -0.524436
C114  C     C_2   0.955879 0.091989 0.405966 0.573074
H50   H     H_    0.965453 0.133298 0.437307 0.044989
O14   O     O_2   0.934025 0.084775 0.313148 -0.549607
C115  C     C_2   0.954295 0.905258 0.410772 0.589520
H51   H     H_    0.961827 0.864506 0.443714 0.041255
O15   O     O_2   0.933615 0.910762 0.318089 -0.547537
C116  C     C_2   0.022434 0.094159 0.666595 0.604894
H52   H     H_    0.999604 0.134264 0.628822 0.031125
O16   O     O_2   0.059829 0.089071 0.765004 -0.526037
I9    I     I_    0.895747 0.208762 0.866945 -0.287914
I10   I     I_    0.171831 0.756046 0.124813 -0.269775
I11   I     I_    0.173612 0.242302 0.128423 -0.326260
I12   I     I_    0.893651 0.791210 0.865181 -0.263237
I13   I     I_    0.396325 0.708254 0.867305 -0.252455
I14   I     I_    0.671128 0.255843 0.124518 -0.247469
I15   I     I_    0.673462 0.743608 0.128074 -0.325279
I16   I     I_    0.392749 0.291591 0.864729 -0.256325

loop_
_geom_bond_atom_site_label_1
_geom_bond_atom_site_label_2
_ccdc_geom_bond_type
C16   C28   A    
C57   C101  S    
N3    N10   A    
C44   H36   S    
C64   C108  S    
C68   I4    S    
C11   C88   S    
C72   N32   A    
N1    N12   A    
C59   C82   A    
C63   N23   A    
C103  H39   S    
C70   C88   A    
C114  H50   S    
C9    C91   S    
C28   H28   S    
C7    N7    A    
N23   Ni5   S    
C15   C32   A    
C54   N14   A    
C5    H5    S    
N11   Ni4   S    
C16   C31   A    
C40   C46   A    
N30   Ni7   S    
C113  H49   S    
C39   H31   S    
C65   I1    S    
C38   H30   S    
C10   C85   S    
C13   I9    S    
N26   N27   A    
C61   N21   A    
C19   C36   A    
C103  O3    D    
C32   C74   S    
C31   C73   S    
N2    Ni2   S    
C16   I12   S    
C11   C95   S    
C96   C99   S    
C4    H4    S    
C50   H10   S    
N12   Ni3   S    
C66   N26   A    
C11   C99   S    
N13   Ni6   S    
C26   H26   S    
C10   C98   S    
N27   Ni2   S    
C25   H25   S    
C93   C95   S    
C59   C103  S    
C38   C45   A    
C91   C111  S    
C58   N18   A    
C34   C80   S    
C46   C82   S    
N25   Ni4   S    
C112  O12   D    
C26   C34   A    
N7    N14   A    
N26   Ni3   S    
C20   C24   A    
C10   C89   S    
C102  O2    D    
C101  O1    D    
C60   C104  S    
C62   N22   A    
N3    Ni3   S    
C108  H44   S    
C100  H20   S    
C94   C100  S    
C6    N6    A    
C3    C75   A    
C93   C99   S    
N1    Ni1   S    
C111  O11   D    
C69   C87   A    
C97   H17   S    
C39   C45   A    
C50   N10   A    
C71   I7    S    
C40   H32   S    
C10   C92   S    
C52   N12   A    
C24   H24   S    
C71   N31   A    
C61   C105  S    
C68   C85   A    
C41   C43   A    
C64   N24   A    
N28   Ni1   S    
C105  H41   S    
C62   C84   A    
C42   C44   A    
C8    H8    S    
C41   H33   S    
N25   N28   A    
C18   C33   A    
C53   H13   S    
C92   C97   S    
C22   H22   S    
C69   N29   A    
C68   N28   A    
C56   H16   S    
N32   Ni5   S    
C15   I11   S    
C4    C76   A    
N18   Ni4   S    
C2    N2    A    
C13   C30   A    
C53   C80   A    
C67   I3    S    
C72   I8    S    
C52   C73   A    
C61   C83   A    
C53   N13   A    
C55   C78   A    
C59   N19   A    
C95   C100  S    
C33   C79   S    
C62   C106  S    
C27   C35   A    
C20   I16   S    
C21   C29   A    
C35   C77   S    
C17   C21   A    
C56   C77   A    
C92   C112  S    
C51   C74   A    
C89   C97   S    
N29   Ni8   S    
C56   N16   A    
C106  O6    D    
N6    N15   A    
C9    C90   S    
C19   C23   A    
C111  H47   S    
C24   C32   A    
C64   C83   A    
N8    N13   A    
C43   H35   S    
C43   C47   A    
C19   I15   S    
C9    C86   S    
C4    N4    A    
C30   C76   S    
C60   C81   A    
N19   Ni1   S    
C15   C27   A    
C115  H51   S    
C51   N11   A    
N2    N11   A    
C116  O16   D    
C58   C102  S    
N17   Ni3   S    
C25   C33   A    
C109  H45   S    
C6    H6    S    
C49   C76   A    
C49   N9    A    
N8    Ni8   S    
C94   C114  S    
C89   C109  S    
C52   H12   S    
C14   C26   A    
N17   N20   A    
C94   C96   S    
C71   C88   A    
C90   C110  S    
N18   N19   A    
N21   Ni7   S    
N31   Ni6   S    
C11   C94   S    
N22   Ni8   S    
N29   N32   A    
C115  O15   D    
C110  O10   D    
N21   N24   A    
C47   C83   S    
N5    Ni5   S    
C41   C48   A    
N30   N31   A    
C7    H7    S    
C12   C93   S    
C89   C91   S    
C17   C34   A    
C14   C29   A    
C104  O4    D    
C1    H1    S    
C14   I10   S    
C72   C87   A    
C1    N1    A    
C102  H38   S    
C7    C79   A    
C54   C79   A    
C3    H3    S    
C55   N15   A    
C57   N17   A    
N9    Ni2   S    
C109  O9    D    
C67   C86   A    
C9    C97   S    
N15   Ni8   S    
C22   C30   A    
C12   C87   S    
C18   C22   A    
N24   Ni6   S    
C20   C35   A    
C45   C81   S    
C5    N5    A    
C108  O8    D    
C13   C25   A    
C114  O14   D    
N4    N9    A    
C66   C86   A    
C96   C116  S    
C23   H23   S    
N16   Ni7   S    
C65   C85   A    
C29   C75   S    
C70   I6    S    
C69   I5    S    
C51   H11   S    
C63   C84   A    
C42   H34   S    
C66   I2    S    
C1    C73   A    
C106  H42   S    
C58   C82   A    
C37   C46   A    
C49   H9    S    
C37   C39   A    
C44   C48   A    
C36   C78   S    
C50   C75   A    
C38   C40   A    
C112  H48   S    
N22   N23   A    
C55   H15   S    
N7    Ni7   S    
C54   H14   S    
C98   H18   S    
N20   Ni2   S    
C90   C92   S    
N6    Ni6   S    
C37   H29   S    
C63   C107  S    
C60   N20   A    
C91   C98   S    
C21   H21   S    
C116  H52   S    
C57   C81   A    
C95   C115  S    
C27   H27   S    
C12   C100  S    
C70   N30   A    
C6    C78   A    
N4    Ni4   S    
C99   H19   S    
C107  H43   S    
C8    N8    A    
C67   N27   A    
C48   C84   S    
C42   C47   A    
C3    N3    A    
C110  H46   S    
C28   C36   A    
C113  O13   D    
C101  H37   S    
N14   Ni5   S    
N10   Ni1   S    
C65   N25   A    
C8    C80   A    
C2    H2    S    
C12   C96   S    
C93   C113  S    
C2    C74   A    
C105  O5    D    
C104  H40   S    
C5    C77   A    
C90   C98   S    
C18   I14   S    
N5    N16   A    
C23   C31   A    
C107  O7    D    
C17   I13   S    
