data_mof_unit_36070.cif
_audit_creation_date              2012-12-11T18:11:23-0500
_audit_creation_method            fapswitch 2.2
_symmetry_space_group_name_H-M    P1
_symmetry_Int_Tables_number       1
_space_group_crystal_system       triclinic
_cell_length_a                    8.162479
_cell_length_b                    12.728756
_cell_length_c                    18.720139
_cell_angle_alpha                 99.701925
_cell_angle_beta                  90.783193
_cell_angle_gamma                 98.855878
_cell_volume                      1892.74857219

loop_
_atom_site_label
_atom_site_type_symbol
_atom_type_description
_atom_site_fract_x
_atom_site_fract_y
_atom_site_fract_z
_atom_type_partial_charge
Ba1   Ba    Ba6+2 0.852780 0.548340 0.465070 1.635724
Ba2   Ba    Ba6+2 0.337060 0.451750 0.534940 1.639534
C1    C     C_3   0.587127 0.898786 0.252774 -0.415448
C2    C     C_R   0.899907 0.387275 0.095740 -0.089361
C3    C     C_R   0.763296 0.410310 0.954069 -0.101742
C4    C     C_3   0.132950 0.761756 0.265469 0.364220
C5    C     C_R   0.929003 0.452922 0.977720 0.017919
C6    C     C_R   0.705631 0.410722 0.883937 -0.097288
C7    C     C_R   0.809901 0.453921 0.833771 -0.037010
C8    C     C_R   0.973086 0.504923 0.857032 -0.000084
C9    C     C_R   0.032702 0.505206 0.929468 0.023990
C10   C     C_R   0.756140 0.447152 0.760840 -0.011437
C11   C     C_R   0.865672 0.487245 0.711550 -0.298766
C12   C     C_3   0.637440 0.819284 0.297861 0.342682
C13   C     C_R   0.022887 0.544304 0.733745 0.039341
C14   C     C_R   0.076476 0.555542 0.807900 -0.038121
C15   C     C_R   0.155522 0.498304 0.071468 0.023588
C16   C     C_3   0.115615 0.786810 0.189361 -0.364776
C17   C     C_R   0.215986 0.497152 0.143561 -0.000703
C18   C     C_R   0.113246 0.445465 0.192422 -0.035545
C19   C     C_R   0.959746 0.385842 0.165558 -0.023417
C20   C     C_R   0.229573 0.615756 0.834768 -0.018800
C21   C     C_R   0.288547 0.615730 0.904950 -0.089455
C22   C     C_R   0.195812 0.556871 0.952716 0.010871
C23   C     C_3   0.461408 0.274412 0.314679 0.310330
C24   C     C_R   0.258983 0.550988 0.023309 0.017933
C25   C     C_R   0.424767 0.593429 0.046887 -0.102692
C26   C     C_R   0.379738 0.547103 0.166599 -0.038272
C27   C     C_R   0.483260 0.591486 0.116637 -0.096755
C28   C     C_3   0.236200 0.787306 0.621636 0.231288
C29   C     C_R   0.435138 0.551128 0.239010 -0.005333
C30   C     C_R   0.327014 0.508962 0.288041 -0.298418
C31   C     C_R   0.168156 0.454585 0.266231 0.038293
C32   C     C_R   0.765034 0.182619 0.529586 -0.270889
C33   C     C_R   0.429046 0.807709 0.469714 -0.282890
C34   C     C_3   0.443422 0.239037 0.232835 -0.395055
C35   C     C_R   0.401895 0.984343 0.445682 -0.105104
C36   C     C_R   0.337775 0.875979 0.441227 -0.009663
C37   C     C_R   0.578403 0.848471 0.509239 0.066915
C38   C     C_R   0.642931 0.960668 0.517096 -0.053744
C39   C     C_R   0.554060 0.028515 0.483347 -0.059001
C40   C     C_3   0.287544 0.908789 0.643392 -0.287771
C41   C     C_R   0.617892 0.139443 0.489522 0.042769
C42   C     C_R   0.856868 0.116933 0.560224 -0.018795
C43   C     C_R   0.794207 0.007191 0.556056 -0.097369
C44   C     C_3   0.962872 0.213040 0.381009 0.279313
C45   C     C_3   0.057550 0.247806 0.736005 0.373779
C46   C     C_3   0.949332 0.091058 0.364560 -0.354221
C47   C     C_3   0.730312 0.708230 0.682642 0.308946
C48   C     C_3   0.746633 0.745427 0.764413 -0.396810
C49   C     C_2   0.168117 0.953906 0.695817 0.661521
C50   C     C_3   0.075964 0.227331 0.813257 -0.316655
C51   C     C_3   0.560865 0.181012 0.704141 0.366067
C52   C     C_3   0.628557 0.112760 0.753384 -0.402365
C53   C     C_R   0.992263 0.446851 0.048252 0.012010
H1    H     H_    0.728990 0.863047 0.341318 0.078951
H2    H     H_    0.632257 0.636156 0.670667 0.069514
H3    H     H_    0.533709 0.963237 0.287993 0.102740
H4    H     H_    0.848107 0.815351 0.778032 0.133233
H5    H     H_    0.775124 0.679377 0.791860 0.058430
H6    H     H_    0.628419 0.769683 0.784798 0.125656
H7    H     H_    0.525010 0.785468 0.324175 -0.050523
H8    H     H_    0.492985 0.856063 0.210146 0.114860
H9    H     H_    0.340903 0.294339 0.334859 0.016877
H10   H     H_    0.558023 0.347356 0.326598 0.061182
H11   H     H_    0.345015 0.167352 0.219023 0.127943
H12   H     H_    0.414762 0.925351 0.668805 0.097380
H13   H     H_    0.409263 0.305276 0.206893 0.056728
H14   H     H_    0.562678 0.218254 0.211306 0.119554
H15   H     H_    0.696544 0.935761 0.226022 0.131735
H16   H     H_    0.156084 0.722269 0.149260 0.072873
H17   H     H_    0.138006 0.324744 0.731436 0.090933
H18   H     H_    0.926632 0.255224 0.724954 -0.087357
H19   H     H_    0.208569 0.228343 0.827765 0.166153
H20   H     H_    0.028330 0.290495 0.851727 0.051366
H21   H     H_    0.004590 0.147555 0.818445 0.134657
H22   H     H_    0.665771 0.216186 0.673970 -0.059428
H23   H     H_    0.289206 0.947851 0.594741 0.031285
H24   H     H_    0.471042 0.128247 0.663418 0.073458
H25   H     H_    0.712080 0.165619 0.796522 0.106416
H26   H     H_    0.698832 0.054223 0.721353 0.081587
H27   H     H_    0.049987 0.684962 0.268316 0.094065
H28   H     H_    0.525876 0.067983 0.779638 0.177285
H29   H     H_    0.824657 0.478685 0.655381 0.071979
H30   H     H_    0.577830 0.375736 0.869710 0.109127
H31   H     H_    0.882416 0.337640 0.198204 0.095085
H32   H     H_    0.307533 0.663010 0.801799 0.102974
H33   H     H_    0.611491 0.625573 0.130554 0.110926
H34   H     H_    0.843309 0.235189 0.399055 0.001422
H35   H     H_    0.369501 0.515010 0.343797 0.074770
H36   H     H_    0.673069 0.376883 0.988942 0.073533
H37   H     H_    0.780668 0.338761 0.080225 0.058503
H38   H     H_    0.407678 0.664414 0.920403 0.060388
H39   H     H_    0.263305 0.751611 0.275357 -0.074317
H40   H     H_    0.514703 0.627476 0.012149 0.072819
H41   H     H_    0.328401 0.033202 0.421035 0.100545
H42   H     H_    0.867028 0.959450 0.581779 0.091492
H43   H     H_    0.813596 0.267506 0.533296 0.062425
H44   H     H_    0.378338 0.722987 0.464803 0.071481
H45   H     H_    0.059300 0.244177 0.424794 0.082740
H46   H     H_    0.984297 0.791851 0.176296 0.151037
H47   H     H_    0.193699 0.864978 0.185371 0.111919
H48   H     H_    0.340915 0.751504 0.596538 0.016890
H49   H     H_    0.129208 0.770944 0.582208 0.060312
H50   H     H_    0.038884 0.947811 0.679154 -0.029082
H51   H     H_    0.852498 0.057639 0.321303 0.114989
H52   H     H_    0.915547 0.056085 0.413571 0.087426
H53   H     H_    0.069967 0.068434 0.346247 0.141428
H54   H     H_    0.850131 0.687381 0.662952 0.002443
O1    O     O_2   0.873090 0.425890 0.325140 -0.464671
O2    O     O_2   0.200635 0.123379 0.555614 -0.487823
O3    O     O_3   0.105572 0.161622 0.688235 -0.591003
O4    O     O_3   0.122420 0.434370 0.414380 -0.497148
O5    O     O_3   0.578370 0.633800 0.536380 -0.486299
O6    O     O_2   0.341510 0.231850 0.465510 -0.470006
O7    O     O_3   0.506759 0.189940 0.346077 -0.649409
O8    O     O_2   0.414231 0.454281 0.756705 -0.499605
O9    O     O_3   0.477749 0.257496 0.746175 -0.585898
O10   O     O_3   0.659500 0.627100 0.368810 -0.473504
O11   O     O_2   0.777279 0.545645 0.243713 -0.494454
O12   O     O_3   0.689124 0.792741 0.650564 -0.644745
O13   O     O_3   0.001876 0.253633 0.317507 -0.640358
O14   O     O_3   0.711726 0.741337 0.252728 -0.598117
O15   O     O_2   0.848200 0.768190 0.534530 -0.478258
O16   O     O_3   0.081160 0.685950 0.404810 -0.485317
O17   O     O_2   0.998990 0.878543 0.449699 -0.487891
O18   O     O_2   0.213927 0.994406 0.758033 -0.588040
O19   O     O_3   0.088414 0.846716 0.315700 -0.598723
O20   O     O_2   0.316610 0.574140 0.674900 -0.462979
O21   O     O_3   0.067290 0.565720 0.585630 -0.496540
O22   O     O_3   0.530210 0.372990 0.631200 -0.465116
O23   O     O_3   0.193696 0.745070 0.684135 -0.639162
O24   O     O_3   0.611340 0.366290 0.463630 -0.476761
O25   O     O_3   0.108550 0.314140 0.595200 -0.482690
P1    P     P_3+3 0.041040 0.394770 0.336330 0.970719
P2    P     P_3+3 0.672880 0.754030 0.556100 0.967692
P3    P     P_3+3 0.127165 0.823394 0.403423 0.949689
P4    P     P_3+3 0.148670 0.605320 0.663680 0.975023
P5    P     P_3+3 0.066379 0.176848 0.598906 0.948174
P6    P     P_3+3 0.645734 0.613823 0.274894 0.950736
P7    P     P_3+3 0.523247 0.230047 0.440381 0.934719
P8    P     P_3+3 0.544855 0.385581 0.725067 0.953678

loop_
_geom_bond_atom_site_label_1
_geom_bond_atom_site_label_2
_ccdc_geom_bond_type
C12   H1    S    
O6    P7    D    
O17   P3    D    
C4    H27   S    
C25   C27   A    
C25   H40   S    
C17   C18   A    
C5    C53   A    
C50   H20   S    
C46   H51   S    
O2    P5    D    
C44   H34   S    
C46   H53   S    
C51   C52   S    
C34   H14   S    
C5    C9    A    
C11   H29   S    
C24   C25   A    
Ba2   O25   S    
C48   H4    S    
C26   C27   A    
C51   H24   S    
Ba1   O16   S    
C6    H30   S    
C50   H19   S    
Ba1   O10   S    
Ba2   O4    S    
C34   H11   S    
C46   H52   S    
O23   P4    S    
C45   O3    S    
C12   H7    S    
C9    C22   A    
Ba2   O20   S    
C47   H2    S    
Ba1   Ba2   S    
C16   H47   S    
C27   H33   S    
C15   C17   A    
C30   H35   S    
O20   P4    D    
C6    C7    A    
C4    H39   S    
C28   H48   S    
C21   C22   A    
O11   P6    D    
Ba1   P2    S    
C7    C8    A    
C15   C53   A    
C40   C49   S    
C13   P4    S    
C39   C41   A    
O3    P5    S    
O1    P1    D    
Ba1   O4    S    
Ba1   O24   S    
C52   H28   S    
C52   H25   S    
C37   P2    S    
C38   C43   A    
C4    C16   S    
C44   C46   S    
Ba2   O24   S    
O15   P2    D    
Ba2   P4    S    
C1    H15   S    
C32   C42   A    
C45   H18   S    
Ba1   O21   S    
C23   O7    S    
O25   P5    S    
C3    C5    A    
Ba2   O21   S    
C51   O9    S    
O16   P3    S    
O14   P6    S    
C21   H38   S    
C35   H41   S    
C23   H9    S    
C33   C37   A    
O19   P3    S    
C35   C36   A    
Ba1   O1    S    
Ba2   O6    S    
C31   P1    S    
C29   C30   A    
C49   H50   S    
C47   O12   S    
C33   C36   A    
Ba2   O22   S    
C23   H10   S    
O10   P6    S    
C20   H32   S    
C10   C11   A    
C17   C26   A    
C33   H44   S    
C3    H36   S    
C1    C12   S    
C18   C31   A    
O22   P8    S    
C38   C39   A    
C40   H23   S    
C42   P5    S    
C11   C13   A    
C2    C53   A    
C50   H21   S    
C51   H22   S    
C41   P7    S    
Ba1   O5    S    
C15   C24   A    
O21   P4    S    
C37   C38   A    
C42   C43   A    
C47   H54   S    
C16   H16   S    
C44   H45   S    
C19   H31   S    
C14   C20   A    
C12   O14   S    
C26   C29   A    
C44   O13   S    
C32   C41   A    
C22   C24   A    
O13   P1    S    
O9    P8    S    
C3    C6    A    
C34   H13   S    
C45   C50   S    
C1    H8    S    
O24   P7    S    
C48   H5    S    
C30   C31   A    
O8    P8    D    
Ba1   O15   S    
C49   O18   D    
C8    C14   A    
C2    C19   A    
Ba2   O5    S    
C40   H12   S    
C28   O23   S    
C32   H43   S    
C36   P3    S    
C10   P8    S    
O12   P2    S    
C35   C39   A    
C7    C10   A    
C45   H17   S    
C8    C9    A    
C23   C34   S    
C4    O19   S    
O7    P7    S    
C1    H3    S    
C18   C19   A    
C47   C48   S    
O4    P1    S    
C28   H49   S    
C48   H6    S    
O5    P2    S    
C20   C21   A    
C28   C40   S    
C43   H42   S    
C29   P6    S    
Ba1   P1    S    
C16   H46   S    
C52   H26   S    
C13   C14   A    
C2    H37   S    
