data_mof_unit_68229.cif
_audit_creation_date              2013-03-05T16:10:11-0500
_audit_creation_method            fapswitch 2.2
_symmetry_space_group_name_H-M    P1
_symmetry_Int_Tables_number       1
_space_group_crystal_system       triclinic
_cell_length_a                    14.724473
_cell_length_b                    7.654139
_cell_length_c                    13.667833
_cell_angle_alpha                 90.0
_cell_angle_beta                  101.178823
_cell_angle_gamma                 90.000097
_cell_volume                      1511.18166345

loop_
_atom_site_label
_atom_site_type_symbol
_atom_site_description
_atom_site_fract_x
_atom_site_fract_y
_atom_site_fract_z
_atom_type_partial_charge
O1    O     O_R   0.648180 0.355050 0.151550 -0.544721
O2    O     O_R   0.351820 0.644950 0.848450 -0.557060
O3    O     O_R   0.851820 0.855050 0.348450 -0.544688
O4    O     O_R   0.148180 0.144950 0.651550 -0.557058
O5    O     O_R   0.835240 0.681980 0.154280 -0.578577
O6    O     O_R   0.164760 0.318020 0.845720 -0.602722
O7    O     O_R   0.664760 0.181980 0.345720 -0.578587
O8    O     O_R   0.335240 0.818020 0.654280 -0.602719
C1    C     C_R   0.859286 0.515365 0.129394 1.034814
C2    C     C_R   0.139395 0.484622 0.869432 1.046461
C3    C     C_R   0.640718 0.015363 0.370609 1.034853
C4    C     C_R   0.360605 0.984622 0.630568 1.046460
O9    O     O_R   0.647870 0.684600 0.139630 -0.589011
O10   O     O_R   0.352130 0.315400 0.860370 -0.582956
O11   O     O_R   0.852130 0.184600 0.360370 -0.589038
O12   O     O_R   0.147870 0.815400 0.639630 -0.582957
O13   O     O_R   0.663110 0.857440 0.333700 -0.580824
O14   O     O_R   0.336890 0.142560 0.666300 -0.557794
O15   O     O_R   0.836890 0.357440 0.166300 -0.580844
O16   O     O_R   0.163110 0.642560 0.833700 -0.557800
C5    C     C_R   0.613621 0.516807 0.117254 0.917887
C6    C     C_R   0.386833 0.482861 0.882082 0.927892
C7    C     C_R   0.886379 0.016807 0.382746 0.917905
C8    C     C_R   0.113166 0.982861 0.617918 0.927889
O17   O     O_3   0.755220 0.522230 0.313690 -0.320109
O18   O     O_3   0.244780 0.477770 0.686310 -0.308495
O19   O     O_3   0.744780 0.022230 0.186310 -0.320101
O20   O     O_3   0.255220 0.977770 0.813690 -0.308498
V1    V     V_3+5 0.749030 0.796100 0.238190 1.152761
V2    V     V_3+5 0.250970 0.203900 0.761810 1.169218
V3    V     V_3+5 0.750970 0.296100 0.261810 1.152732
V4    V     V_3+5 0.249030 0.703900 0.738190 1.169217
C9    C     C_1   0.966192 0.005514 0.466028 -0.241313
C10   C     C_1   0.031922 0.992517 0.536107 -0.255977
C11   C     C_1   0.533808 0.505514 0.033972 -0.241346
C12   C     C_1   0.468078 0.492517 0.963893 -0.255967
C13   C     C_R   0.555209 0.983422 0.714821 0.305140
C14   C     C_R   0.449284 0.076233 0.291410 0.317376
C15   C     C_R   0.944791 0.483417 0.785179 0.305136
C16   C     C_R   0.050717 0.576264 0.208582 0.317355
C17   C     C_R   0.643799 0.929493 0.765158 -0.013031
C18   C     C_R   0.358695 0.061584 0.236862 -0.014448
C19   C     C_R   0.856200 0.429491 0.734842 -0.013021
C20   C     C_R   0.141301 0.561587 0.263136 -0.014393
C21   C     C_R   0.715429 0.915327 0.709808 0.147078
C22   C     C_R   0.286502 0.032693 0.289570 0.124027
C23   C     C_R   0.784571 0.415326 0.790193 0.147070
C24   C     C_R   0.213495 0.532683 0.210430 0.124008
C25   C     C_R   0.693815 0.941339 0.602937 0.035342
C26   C     C_R   0.307800 0.028182 0.397213 0.054355
C27   C     C_R   0.806186 0.441337 0.897064 0.035334
C28   C     C_R   0.192200 0.528176 0.102787 0.054361
C29   C     C_R   0.598979 0.976208 0.548930 -0.058258
C30   C     C_R   0.403482 0.019979 0.453079 -0.054310
C31   C     C_R   0.901022 0.476208 0.951070 -0.058236
C32   C     C_R   0.096519 0.519979 0.046919 -0.054299
C33   C     C_R   0.527944 0.985470 0.607842 0.009081
C34   C     C_R   0.475447 0.035092 0.395911 -0.020993
C35   C     C_R   0.972056 0.485468 0.892158 0.009077
C36   C     C_R   0.024553 0.535106 0.104085 -0.021038
C37   C     C_R   0.571967 0.008279 0.441070 -0.193471
C38   C     C_R   0.430624 0.997530 0.561455 -0.182893
C39   C     C_R   0.928034 0.508284 0.058930 -0.193470
C40   C     C_R   0.069376 0.497528 0.938544 -0.182892
C41   C     C_3   0.648147 0.864569 0.874067 -0.248479
C42   C     C_3   0.737809 0.857194 0.954381 -0.913843
H1    H     H_    0.778292 0.740882 0.953134 0.241199
H2    H     H_    0.788827 0.959779 0.954340 0.265682
H3    H     H_    0.718611 0.860948 0.028155 0.302526
H4    H     H_    0.601786 0.944677 0.910460 0.211196
H5    H     H_    0.613008 0.737784 0.870247 0.174853
C43   C     C_3   0.349258 0.095357 0.122985 -0.257517
C44   C     C_3   0.255412 0.120454 0.053017 -0.922662
H6    H     H_    0.210943 0.006806 0.033776 0.255084
H7    H     H_    0.213754 0.216222 0.082619 0.272351
H8    H     H_    0.268890 0.164433 0.980556 0.292442
H9    H     H_    0.386974 0.216342 0.112871 0.190031
H10   H     H_    0.391644 0.999710 0.091260 0.217844
C45   C     C_3   0.851851 0.364573 0.625933 -0.248476
C46   C     C_3   0.762189 0.357196 0.545620 -0.913845
H11   H     H_    0.721705 0.240886 0.546867 0.241199
H12   H     H_    0.711172 0.459784 0.545659 0.265683
H13   H     H_    0.781387 0.360947 0.471845 0.302525
H14   H     H_    0.898211 0.444685 0.589541 0.211198
H15   H     H_    0.886991 0.237789 0.629751 0.174853
C47   C     C_3   0.150734 0.595359 0.377012 -0.257492
C48   C     C_3   0.244580 0.620461 0.446980 -0.922715
H16   H     H_    0.289049 0.506816 0.466221 0.255094
H17   H     H_    0.286236 0.716229 0.417375 0.272355
H18   H     H_    0.231102 0.664441 0.519440 0.292447
H19   H     H_    0.113017 0.716344 0.387125 0.190098
H20   H     H_    0.108347 0.499709 0.408734 0.217813
O21   O     O_3   0.494019 0.038217 0.772956 -0.750740
H21   H     H_    0.523170 0.137429 0.814023 0.309076
O22   O     O_3   0.512334 0.140097 0.238825 -0.743521
H22   H     H_    0.508640 0.269156 0.244924 0.317379
O23   O     O_3   0.005980 0.538211 0.727044 -0.750746
H23   H     H_    0.976832 0.637434 0.685986 0.309078
O24   O     O_3   0.987676 0.640211 0.261151 -0.743543
H24   H     H_    0.991359 0.769257 0.254985 0.317395
C49   C     C_3   0.191112 0.973977 0.232984 -0.257859
C50   C     C_3   0.113216 0.108617 0.214654 -0.940225
H25   H     H_    0.073581 0.111370 0.275813 0.251910
H26   H     H_    0.141102 0.238156 0.207401 0.268306
H27   H     H_    0.063761 0.076680 0.144717 0.256666
H28   H     H_    0.193975 0.901517 0.165431 0.193705
H29   H     H_    0.167328 0.868654 0.272770 0.173317
C51   C     C_3   0.813536 0.860677 0.763383 -0.261656
C52   C     C_3   0.875887 0.006654 0.814034 -0.932419
H30   H     H_    0.917049 0.064227 0.762545 0.245786
H31   H     H_    0.835494 0.109624 0.840952 0.273546
H32   H     H_    0.925926 0.952710 0.878327 0.258526
H33   H     H_    0.808837 0.753578 0.813707 0.201358
H34   H     H_    0.855972 0.796340 0.717413 0.170759
C53   C     C_3   0.308884 0.473971 0.267019 -0.257877
C54   C     C_3   0.386777 0.608617 0.285350 -0.940172
H35   H     H_    0.426424 0.611351 0.224201 0.251904
H36   H     H_    0.358884 0.738158 0.292582 0.268299
H37   H     H_    0.436222 0.576705 0.355300 0.256673
H38   H     H_    0.306021 0.401511 0.334571 0.193709
H39   H     H_    0.332672 0.368651 0.227233 0.173312
C55   C     C_3   0.686463 0.360677 0.736619 -0.261652
C56   C     C_3   0.624114 0.506654 0.685966 -0.932411
H40   H     H_    0.582949 0.564227 0.737454 0.245785
H41   H     H_    0.664508 0.609625 0.659051 0.273545
H42   H     H_    0.574076 0.452711 0.621672 0.258527
H43   H     H_    0.691161 0.253577 0.686295 0.201357
H44   H     H_    0.644026 0.296342 0.782589 0.170760
C57   C     C_3   0.776592 0.930864 0.552147 -0.388867
C58   C     C_3   0.797062 0.746809 0.526600 -0.854026
H45   H     H_    0.794529 0.670413 0.592203 0.252627
H46   H     H_    0.744737 0.696270 0.464878 0.308127
H47   H     H_    0.867880 0.731294 0.511934 0.264389
H48   H     H_    0.773634 0.016517 0.489766 0.164366
H49   H     H_    0.839168 0.982048 0.600223 0.204085
C59   C     C_3   0.224338 0.034042 0.447284 -0.382126
C60   C     C_3   0.198106 0.217945 0.462699 -0.858508
H50   H     H_    0.246957 0.276425 0.524927 0.298939
H51   H     H_    0.197278 0.282594 0.391402 0.272194
H52   H     H_    0.127061 0.230513 0.476312 0.257581
H53   H     H_    0.161172 0.977763 0.405127 0.204476
H54   H     H_    0.229842 0.952658 0.511650 0.157618
C61   C     C_3   0.723410 0.430860 0.947855 -0.388858
C62   C     C_3   0.702940 0.246805 0.973401 -0.854007
H55   H     H_    0.705470 0.170410 0.907796 0.252624
H56   H     H_    0.755265 0.196265 0.035122 0.308127
H57   H     H_    0.632121 0.231289 0.988068 0.264389
H58   H     H_    0.726369 0.516509 0.010238 0.164378
H59   H     H_    0.660833 0.482046 0.899780 0.204081
C63   C     C_3   0.275662 0.534037 0.052718 -0.382129
C64   C     C_3   0.301893 0.717940 0.037303 -0.858514
H60   H     H_    0.253044 0.776418 0.975073 0.298938
H61   H     H_    0.302717 0.782590 0.108599 0.272194
H62   H     H_    0.372939 0.730509 0.023692 0.257584
H63   H     H_    0.338829 0.477763 0.094877 0.204475
H64   H     H_    0.270159 0.452652 0.988351 0.157622

loop_
_geom_bond_atom_site_label_1
_geom_bond_atom_site_label_2
_geom_bond_distance
_ccdc_geom_bond_type
C49   H29   1.068686 S    
C42   H2    1.086753 S    
C48   H16   1.089857 S    
O1    C5    1.385316 A    
O21   H21   0.991235 S    
C16   C36   1.440209 A    
C31   C35   1.440109 A    
O19   V1    1.866893 S    
O13   V1    2.040944 S    
C44   H6    1.089861 S    
O3    C7    1.385316 A    
O22   H22   0.993728 S    
C17   C41   1.558797 S    
O15   V3    2.040942 S    
C16   O24   1.369694 S    
O23   H23   0.991224 S    
C56   H40   1.105531 S    
C51   C52   1.524499 S    
O7    C3    1.383527 A    
C60   H51   1.090868 S    
C35   C40   1.453156 A    
C49   C50   1.526085 S    
C36   C39   1.450086 A    
C53   H39   1.068688 S    
O9    V1    1.995921 S    
C61   C62   1.496074 S    
C14   C18   1.400726 A    
C47   H19   1.102196 S    
C46   H13   1.099090 S    
C30   C34   1.438001 A    
C45   H14   1.105003 S    
O4    C8    1.387240 A    
C56   H41   1.093221 S    
C42   H3    1.099089 S    
C19   C45   1.558794 S    
C53   C54   1.526079 S    
C57   H49   1.095209 S    
O1    V3    1.970039 S    
C54   H35   1.108576 S    
C50   H27   1.110794 S    
O2    V4    1.970036 S    
C18   C22   1.412370 A    
C64   H62   1.101669 S    
C51   H34   1.086246 S    
C55   H43   1.080894 S    
O3    V1    1.970036 S    
C59   H54   1.068134 S    
C43   H9    1.102189 S    
C14   C34   1.440231 A    
C29   C37   1.471195 A    
C1    O15   1.374346 A    
C11   C12   1.226631 T    
C2    O16   1.374031 A    
C7    C9    1.471586 S    
C31   C39   1.471196 A    
C14   O22   1.369721 S    
O2    C6    1.387240 A    
C43   H10   1.103829 S    
C64   H60   1.097233 S    
C32   C40   1.467590 A    
O14   V2    2.040943 S    
C21   C25   1.447173 A    
C16   C20   1.400712 A    
C21   C51   1.545260 S    
C34   C37   1.450098 A    
O11   C7    1.391942 A    
C42   H1    1.073367 S    
O12   C8    1.390434 A    
C63   H64   1.068139 S    
C55   H44   1.086250 S    
C44   H7    1.083275 S    
O10   V2    1.995920 S    
C62   H57   1.105755 S    
C20   C47   1.557175 S    
C60   H52   1.101668 S    
O5    V1    2.062561 S    
C61   H58   1.069691 S    
C22   C49   1.533543 S    
O7    V3    2.062560 S    
C13   O21   1.377185 S    
O8    V4    2.062558 S    
C33   C38   1.453157 A    
C45   C46   1.545708 S    
C46   H12   1.086753 S    
C52   H32   1.111088 S    
C29   C33   1.440108 A    
C47   C48   1.532486 S    
C59   C60   1.485441 S    
C23   C55   1.545261 S    
C23   C27   1.447173 A    
C30   C38   1.467597 A    
C41   H5    1.096214 S    
C25   C57   1.517234 S    
C8    C10   1.472478 S    
C32   C36   1.437987 A    
C51   H33   1.080894 S    
C58   H46   1.096767 S    
O5    C1    1.383521 A    
C59   H53   1.083901 S    
C4    C38   1.530569 S    
O24   H24   0.993701 S    
C24   C28   1.444016 A    
O8    C4    1.384770 A    
C15   C35   1.439361 A    
C18   C43   1.557181 S    
C9    C10   1.226630 T    
O9    C5    1.391942 A    
C26   C30   1.467912 A    
C50   H26   1.085036 S    
C24   C53   1.533544 S    
C62   H56   1.096768 S    
O6    V2    2.062562 S    
C53   H38   1.084869 S    
C63   H63   1.083901 S    
C48   H17   1.083278 S    
C44   H8    1.099895 S    
C46   H11   1.073368 S    
C58   H47   1.105755 S    
C56   H42   1.111089 S    
C45   H15   1.096215 S    
C57   C58   1.496075 S    
O16   V4    2.040945 S    
C49   H28   1.084871 S    
C3    O13   1.374342 A    
C1    C39   1.527482 S    
O17   V3    1.866893 S    
C2    C40   1.530561 S    
C43   C44   1.532486 S    
C3    C37   1.527474 S    
O6    C2    1.384766 A    
C15   C19   1.413262 A    
O11   V3    1.995922 S    
C5    C11   1.471585 S    
C27   C61   1.517231 S    
O12   V4    1.995923 S    
C6    C12   1.472478 S    
C60   H50   1.097235 S    
C22   C26   1.444015 A    
C54   H37   1.110800 S    
C62   H55   1.077159 S    
O10   C6    1.390433 A    
C52   H31   1.093220 S    
C58   H45   1.077158 S    
C47   H20   1.103830 S    
C52   H30   1.105532 S    
C28   C32   1.467910 A    
C25   C29   1.471869 A    
O20   V2    1.866894 S    
C54   H36   1.085043 S    
C27   C31   1.471866 A    
C64   H61   1.090871 S    
C13   C17   1.413265 A    
C50   H25   1.108568 S    
O4    V2    1.970038 S    
C15   O23   1.377170 S    
C57   H48   1.069693 S    
C20   C24   1.412376 A    
C61   H59   1.095209 S    
C28   C63   1.518788 S    
C41   C42   1.545708 S    
C48   H18   1.099895 S    
C4    O14   1.374032 A    
C17   C21   1.416283 A    
C63   C64   1.485440 S    
C26   C59   1.518791 S    
C55   C56   1.524498 S    
C19   C23   1.416284 A    
O18   V4    1.866893 S    
C13   C33   1.439365 A    
C41   H4    1.105003 S    
