data_mof_unit_8881.cif
_audit_creation_date              2012-10-26T19:24:24-0400
_audit_creation_method            fapswitch 2.2
_symmetry_space_group_name_H-M    P1
_symmetry_Int_Tables_number       1
_space_group_crystal_system       triclinic
_cell_length_a                    27.789403
_cell_length_b                    10.846643
_cell_length_c                    9.674182
_cell_angle_alpha                 90.735909
_cell_angle_beta                  89.613621
_cell_angle_gamma                 96.708613
_cell_volume                      2895.76385127

loop_
_atom_site_label
_atom_site_type_symbol
_atom_type_description
_atom_site_fract_x
_atom_site_fract_y
_atom_site_fract_z
_atom_type_partial_charge
C1    C     C_R   0.503612 0.264146 0.499549 0.536779
C2    C     C_R   0.969327 0.380875 0.520541 0.024354
C3    C     C_R   0.979652 0.610361 0.509248 0.018710
C4    C     C_R   0.407562 0.499170 0.500507 0.541449
C5    C     C_R   0.949268 0.495589 0.512521 0.014159
C6    C     C_R   0.936986 0.268503 0.502139 0.086043
C7    C     C_R   0.887015 0.272016 0.505881 -0.058598
C8    C     C_R   0.867269 0.384322 0.508238 -0.011968
C9    C     C_R   0.898274 0.496063 0.503026 -0.037962
C10   C     C_R   0.878199 0.608335 0.485706 0.026487
C11   C     C_R   0.827667 0.607369 0.483886 0.386963
C12   C     C_R   0.277713 0.494090 0.380933 0.017292
C13   C     C_R   0.816881 0.387278 0.506651 0.384575
C14   C     C_R   0.721589 0.509423 0.623839 0.038385
C15   C     C_R   0.671256 0.509060 0.623258 -0.143534
C16   C     C_R   0.498167 0.737351 0.502321 0.556570
C17   C     C_R   0.670473 0.489006 0.373721 -0.143782
C18   C     C_R   0.720787 0.488929 0.371530 0.041149
C19   C     C_R   0.746628 0.499061 0.497303 0.285733
C20   C     C_R   0.020468 0.384569 0.538330 0.021963
C21   C     C_R   0.050681 0.499997 0.533103 0.012812
C22   C     C_R   0.030266 0.613552 0.531889 0.010625
C23   C     C_R   0.253304 0.498372 0.509166 0.304201
C24   C     C_R   0.042654 0.278170 0.571177 -0.149298
C25   C     C_R   0.111961 0.727540 0.538076 0.117721
C26   C     C_R   0.958789 0.717539 0.471006 -0.149042
C27   C     C_R   0.908929 0.717793 0.464831 -0.116672
C28   C     C_R   0.592386 0.499648 0.499705 0.547692
C29   C     C_R   0.061473 0.725525 0.558411 -0.008519
C30   C     C_R   0.543168 0.137165 0.737075 -0.083224
C31   C     C_R   0.544005 0.081918 0.865911 -0.113834
C32   C     C_R   0.521556 0.962043 0.883441 -0.111842
C33   C     C_R   0.502693 0.893206 0.769396 -0.089541
C34   C     C_R   0.101862 0.501525 0.533297 -0.062521
C35   C     C_R   0.506431 0.943276 0.634129 0.032959
C36   C     C_R   0.519902 0.072113 0.623330 0.027931
C37   C     C_R   0.508734 0.131728 0.500150 -0.003095
C38   C     C_R   0.495937 0.061479 0.381095 -0.161150
C39   C     C_R   0.492241 0.933542 0.384437 -0.166778
C40   C     C_R   0.172798 0.390249 0.533438 0.410334
C41   C     C_R   0.497179 0.872354 0.509311 -0.007994
C42   C     C_R   0.572378 0.673659 0.132691 0.094615
C43   C     C_R   0.605831 0.745827 0.049242 -0.143739
C44   C     C_R   0.603149 0.741228 0.908154 0.040959
C45   C     C_R   0.122472 0.389225 0.542902 0.026555
C46   C     C_R   0.566749 0.662738 0.847930 -0.069658
C47   C     C_R   0.533364 0.581306 0.923475 0.069702
C48   C     C_R   0.534473 0.583357 0.073110 0.157736
C49   C     C_R   0.468261 0.419885 0.073627 0.113822
C50   C     C_R   0.468277 0.419974 0.925573 0.123224
C51   C     C_R   0.183018 0.610451 0.511073 0.426594
C52   C     C_R   0.279502 0.502428 0.633078 0.140825
C53   C     C_R   0.329759 0.502387 0.629405 -0.146754
C54   C     C_R   0.328163 0.494555 0.379034 -0.139785
C55   C     C_3   0.745440 0.477780 0.233445 -0.365881
C56   C     C_R   0.092589 0.279158 0.567844 -0.115603
C57   C     C_3   0.043726 0.836881 0.630993 -0.413291
C58   C     C_3   0.251363 0.488777 0.245093 -0.369553
C59   C     C_3   0.431701 0.326269 0.145065 -0.341071
C60   C     C_3   0.431756 0.326089 0.853012 -0.331670
C61   C     C_3   0.747148 0.521155 0.761094 -0.369506
C62   C     C_R   0.132436 0.614718 0.523924 0.042299
C63   C     C_R   0.354482 0.498706 0.502728 -0.023198
C64   C     C_R   0.645409 0.499159 0.498880 -0.025814
Cu1   Cu    Cu3+1 0.500000 0.499990 0.640660 0.893555
Cu2   Cu    Cu3+1 0.500000 0.500010 0.359340 0.943371
H1    H     H_    0.346766 0.491480 0.280449 0.131725
H2    H     H_    0.484337 0.882308 0.288797 0.138083
H3    H     H_    0.633765 0.810430 0.097075 0.119500
H4    H     H_    0.566154 0.670883 0.739537 0.216417
H5    H     H_    0.107677 0.193289 0.587058 0.155697
H6    H     H_    0.652354 0.517016 0.720771 0.130439
H7    H     H_    0.863516 0.185235 0.496518 0.188286
H8    H     H_    0.022325 0.193342 0.604117 0.117224
H9    H     H_    0.349285 0.505651 0.726187 0.127642
H10   H     H_    0.261998 0.430494 0.820635 0.229745
H11   H     H_    0.269164 0.587251 0.816000 0.229461
H12   H     H_    0.980742 0.802414 0.443299 0.127822
H13   H     H_    0.129215 0.903085 0.467786 0.236929
H14   H     H_    0.142617 0.884356 0.637250 0.238667
H15   H     H_    0.730709 0.389522 0.181748 0.131678
H16   H     H_    0.738341 0.556503 0.167236 0.125941
H17   H     H_    0.785221 0.478455 0.241914 0.158102
H18   H     H_    0.066636 0.864483 0.722264 0.135024
H19   H     H_    0.045221 0.916848 0.559932 0.116492
H20   H     H_    0.006769 0.815856 0.674761 0.145568
H21   H     H_    0.264805 0.571194 0.182940 0.137755
H22   H     H_    0.258296 0.403618 0.186985 0.130414
H23   H     H_    0.650932 0.480858 0.276811 0.134193
H24   H     H_    0.211623 0.487182 0.257942 0.154901
H25   H     H_    0.394335 0.343871 0.118725 0.092398
H26   H     H_    0.437473 0.230605 0.112700 0.089888
H27   H     H_    0.432741 0.325477 0.256928 0.202391
H28   H     H_    0.614812 0.693729 0.301709 0.213736
H29   H     H_    0.574943 0.797216 0.289895 0.214435
H30   H     H_    0.660377 0.877447 0.884436 0.240044
H31   H     H_    0.656808 0.762482 0.766105 0.232228
H32   H     H_    0.431723 0.327569 0.741128 0.206222
H33   H     H_    0.438562 0.230441 0.879514 0.106949
H34   H     H_    0.894634 0.803877 0.441491 0.170216
H35   H     H_    0.394389 0.341255 0.884167 0.087425
H36   H     H_    0.740133 0.609241 0.813059 0.126216
H37   H     H_    0.733058 0.442283 0.827724 0.129989
H38   H     H_    0.786914 0.521320 0.751294 0.156869
H39   H     H_    0.955390 0.094288 0.537885 0.224624
H40   H     H_    0.983259 0.166588 0.393025 0.246012
H41   H     H_    0.488351 0.105280 0.284904 0.133015
H42   H     H_    0.561298 0.230458 0.727458 0.151780
H43   H     H_    0.560608 0.133668 0.953102 0.114727
H44   H     H_    0.519355 0.921399 0.985294 0.112103
H45   H     H_    0.483330 0.803977 0.792301 0.151117
N1    N     N_R   0.201721 0.499443 0.515317 -0.389096
N2    N     N_R   0.798233 0.497985 0.496710 -0.401989
N3    N     N_R   0.500460 0.501210 0.147910 -0.226720
N4    N     N_R   0.500480 0.501290 0.852040 -0.253569
N5    N     N_3   0.254692 0.506955 0.762943 -0.598991
N6    N     N_3   0.142630 0.843874 0.538734 -0.540647
N7    N     N_3   0.578956 0.703101 0.275222 -0.527384
N8    N     N_3   0.636113 0.819798 0.823240 -0.616865
N9    N     N_3   0.952108 0.153081 0.454616 -0.652175
O1    O     O_R   0.500000 0.319640 0.618810 -0.525535
O2    O     O_R   0.569730 0.499970 0.618800 -0.532869
O3    O     O_R   0.569740 0.499990 0.381230 -0.464641
O4    O     O_2   0.192798 0.283016 0.541753 -0.490791
O5    O     O_2   0.786724 0.280623 0.514586 -0.491794
O6    O     O_2   0.213538 0.715558 0.495266 -0.441804
O7    O     O_2   0.808042 0.714559 0.469730 -0.494188
O8    O     O_R   0.500000 0.319660 0.381240 -0.520711
O9    O     O_R   0.430260 0.500010 0.618770 -0.517000
O10   O     O_R   0.430270 0.500030 0.381200 -0.516227
O11   O     O_R   0.500000 0.680340 0.618760 -0.537136
O12   O     O_R   0.500000 0.680360 0.381190 -0.463221

loop_
_geom_bond_atom_site_label_1
_geom_bond_atom_site_label_2
_ccdc_geom_bond_type
C10   C27   A    
C51   N1    A    
C22   C29   A    
C53   C63   A    
C39   H2    S    
H30   N8    S    
C35   C36   A    
C1    O8    A    
C60   H33   S    
C58   H21   S    
C28   O3    A    
C7    C8    A    
C7    H7    S    
C2    C6    A    
C47   N4    A    
C23   N1    S    
C4    C63   S    
C26   C27   A    
C26   H12   S    
C32   H44   S    
C36   C37   A    
C61   H37   S    
C18   C19   A    
C60   H32   S    
C17   C64   A    
C30   C31   A    
C31   C32   A    
C28   O2    A    
C54   C63   A    
C19   N2    S    
C34   C62   A    
C57   H20   S    
C50   N4    A    
C38   H41   S    
C16   O11   A    
C33   C35   A    
C46   C47   A    
C20   C24   A    
C45   C56   A    
C57   H19   S    
C8    C9    A    
C15   C64   A    
H39   N9    S    
C33   H45   S    
Cu1   O1    S    
C55   H15   S    
H11   N5    S    
C9    C10   A    
C1    C37   S    
C59   H26   S    
C12   C58   S    
C49   N3    A    
C43   H3    S    
C12   C54   A    
C21   C22   A    
Cu1   N4    S    
C53   H9    S    
C51   C62   A    
C11   N2    A    
C6    N9    S    
Cu1   O11   S    
C44   C46   A    
Cu2   O12   S    
C52   N5    S    
H29   N7    S    
C25   C29   A    
C40   C45   A    
C40   O4    S    
C27   H34   S    
C2    C20   A    
C61   H38   S    
C17   H23   S    
C40   N1    A    
C42   N7    S    
C42   C48   A    
C54   H1    S    
C44   N8    S    
C14   C61   S    
C58   H22   S    
H31   N8    S    
C11   O7    S    
C43   C44   A    
C5    C9    A    
C37   C38   A    
C15   H6    S    
Cu1   O9    S    
C47   C48   A    
C12   C23   A    
C56   H5    S    
C17   C18   A    
C31   H43   S    
C57   H18   S    
C34   C45   A    
C59   H25   S    
Cu1   O2    S    
C55   H16   S    
C58   H24   S    
C6    C7    A    
C35   C41   A    
C18   C55   S    
C28   C64   S    
C29   C57   S    
Cu1   Cu2   S    
C2    C5    A    
C42   C43   A    
C55   H17   S    
C60   H35   S    
C52   C53   A    
C48   N3    A    
H14   N6    S    
Cu2   N3    S    
C30   H42   S    
Cu2   O3    S    
C51   O6    S    
C14   C19   A    
C3    C26   A    
C3    C5    A    
C25   N6    S    
C4    O10   A    
C4    O9    A    
C21   C34   A    
C24   C56   A    
C49   C59   S    
C30   C36   A    
C50   C60   S    
C32   C33   A    
C61   H36   S    
C13   O5    S    
H28   N7    S    
C24   H8    S    
C23   C52   A    
C38   C39   A    
H13   N6    S    
H10   N5    S    
Cu2   O8    S    
H40   N9    S    
C25   C62   A    
C16   O12   A    
C1    O1    A    
C46   H4    S    
C10   C11   A    
C8    C13   A    
C20   C21   A    
C39   C41   A    
C49   C50   A    
C14   C15   A    
C3    C22   A    
C59   H27   S    
C16   C41   S    
C13   N2    A    
Cu2   O10   S    
