data_mof_unit_26391.cif
_audit_creation_date              2012-12-10T19:43:23-0500
_audit_creation_method            fapswitch 2.2
_symmetry_space_group_name_H-M    P1
_symmetry_Int_Tables_number       1
_space_group_crystal_system       triclinic
_cell_length_a                    10.883131
_cell_length_b                    10.860796
_cell_length_c                    9.597795
_cell_angle_alpha                 89.269664
_cell_angle_beta                  91.741066
_cell_angle_gamma                 91.295044
_cell_volume                      1133.55830821

loop_
_atom_site_label
_atom_site_type_symbol
_atom_type_description
_atom_site_fract_x
_atom_site_fract_y
_atom_site_fract_z
_atom_type_partial_charge
C1    C     C_R   0.505334 0.262128 0.501922 0.809250
C2    C     C_R   0.145151 0.751215 0.012022 0.340767
C3    C     C_R   0.929721 0.544927 0.389255 -0.236864
C4    C     C_R   0.871355 0.494943 0.505104 -0.092667
C5    C     C_R   0.942405 0.445458 0.616962 -0.013595
C6    C     C_R   0.069674 0.446309 0.608506 -0.193511
C7    C     C_R   0.128251 0.499490 0.493957 -0.109843
C8    C     C_R   0.056826 0.549281 0.382333 0.029882
C9    C     C_R   0.880445 0.467806 0.862061 -0.041694
C10   C     C_R   0.847427 0.416261 0.990048 -0.119943
C11   C     C_R   0.828937 0.289085 0.003342 -0.102846
C12   C     C_R   0.262350 0.501890 0.497667 0.792247
C13   C     C_R   0.841212 0.213530 0.887902 -0.127902
C14   C     C_R   0.870980 0.265253 0.758706 -0.160738
C15   C     C_R   0.890556 0.392873 0.745259 0.140214
C16   C     C_R   0.556187 0.109655 0.761863 -0.307761
C17   C     C_R   0.542341 0.045308 0.888559 0.446783
C18   C     C_R   0.487634 0.928883 0.887004 -0.054727
C19   C     C_R   0.449203 0.876060 0.762231 -0.221351
C20   C     C_R   0.475027 0.933549 0.633025 0.087928
C21   C     C_R   0.512796 0.058477 0.633540 0.063631
C22   C     C_R   0.502626 0.126980 0.506617 -0.158482
C23   C     C_R   0.484307 0.736511 0.499677 0.773132
C24   C     C_R   0.466151 0.067210 0.383498 -0.152642
C25   C     C_R   0.443552 0.940588 0.380395 -0.000813
C26   C     C_R   0.462888 0.870730 0.503771 -0.202353
C27   C     C_R   0.655464 0.668723 0.146247 -0.175452
C28   C     C_R   0.731923 0.750256 0.075378 -0.204086
C29   C     C_R   0.733426 0.748539 0.932108 -0.223425
C30   C     C_R   0.658231 0.665454 0.858917 -0.159570
C31   C     C_R   0.576274 0.582783 0.926517 0.193561
C32   C     C_R   0.575476 0.583605 0.076005 0.192632
C33   C     C_R   0.431863 0.417691 0.072694 -0.032004
C34   C     C_R   0.737462 0.496516 0.502272 0.783105
C35   C     C_R   0.431124 0.418268 0.924823 0.024187
C36   C     C_R   0.112764 0.810205 0.134343 -0.244681
C37   C     C_R   0.096919 0.743370 0.256995 -0.263604
C38   C     C_R   0.106584 0.615064 0.259682 -0.034393
C39   C     C_R   0.133409 0.552346 0.136035 -0.052019
C40   C     C_R   0.156953 0.621547 0.012813 0.406326
Cu1   Cu    Cu3+1 0.499990 0.499990 0.640660 0.937078
Cu2   Cu    Cu3+1 0.500010 0.500010 0.359340 0.926584
H1    H     H_    0.806108 0.249019 0.103354 0.144227
H2    H     H_    0.827971 0.114822 0.898609 0.147872
H3    H     H_    0.882386 0.205790 0.670504 0.124060
H4    H     H_    0.450794 0.120733 0.288767 0.222069
H5    H     H_    0.604825 0.196959 0.766174 0.176062
H6    H     H_    0.476397 0.876979 0.982417 0.193423
H7    H     H_    0.396658 0.790807 0.769654 0.208936
H8    H     H_    0.377018 0.349396 0.127022 0.161823
H9    H     H_    0.100519 0.908861 0.135158 0.184512
H10   H     H_    0.665985 0.675014 0.255939 0.206955
H11   H     H_    0.792205 0.813710 0.132505 0.163922
H12   H     H_    0.794834 0.810645 0.877027 0.160314
H13   H     H_    0.670909 0.668327 0.749916 0.209427
H14   H     H_    0.374231 0.351419 0.868695 0.175511
H15   H     H_    0.070546 0.791458 0.349340 0.174977
H16   H     H_    0.876018 0.585178 0.304046 0.154547
H17   H     H_    0.123489 0.405117 0.693143 0.215541
H18   H     H_    0.901465 0.565499 0.854569 0.132055
H19   H     H_    0.839813 0.474425 0.079822 0.130875
N1    N     N_R   0.501190 0.501210 0.147910 -0.218276
N2    N     N_R   0.501230 0.501290 0.852040 -0.217794
O1    O     O_R   0.499990 0.319640 0.618810 -0.589264
O2    O     O_R   0.500000 0.319660 0.381240 -0.585321
O3    O     O_R   0.319640 0.500000 0.618780 -0.569550
O4    O     O_R   0.319650 0.500020 0.381210 -0.590930
O5    O     O_R   0.500000 0.680340 0.618760 -0.602519
O6    O     O_R   0.500010 0.680360 0.381190 -0.617994
O7    O     O_R   0.680350 0.499980 0.618790 -0.600719
O8    O     O_R   0.680360 0.500000 0.381220 -0.600262
O9    O     O_3   0.163800 0.817892 0.890622 -0.768973
H20   H     H_    0.153314 0.906696 0.908698 0.346694
O10   O     O_3   0.577278 0.095345 0.015315 -0.735876
H21   H     H_    0.596194 0.184169 0.001133 0.312460
C41   C     C_2   0.383872 0.888274 0.252542 0.347155
H22   H     H_    0.363870 0.790914 0.242170 0.116786
O11   O     O_2   0.347945 0.956283 0.158321 -0.565311
C42   C     C_2   0.131149 0.414913 0.135759 0.394452
H23   H     H_    0.123351 0.363170 0.232553 0.064857
O12   O     O_2   0.136507 0.357117 0.027915 -0.520749
O13   O     O_3   0.188624 0.560075 0.894487 -0.709669
H24   H     H_    0.204120 0.619573 0.817799 0.363354

loop_
_geom_bond_atom_site_label_1
_geom_bond_atom_site_label_2
_ccdc_geom_bond_type
C16   C21   A    
Cu1   Cu2   S    
C23   O6    A    
C19   C20   A    
C7    C8    A    
C37   C38   A    
C28   C29   A    
C41   O11   D    
C5    C6    A    
C16   C17   A    
C29   H12   S    
C18   C19   A    
C23   C26   S    
C33   H8    S    
C33   N1    A    
Cu2   O2    S    
C1    O2    A    
C11   H1    S    
C14   H3    S    
C9    C10   A    
Cu2   N1    S    
C27   C32   A    
C1    C22   S    
C21   C22   A    
C8    C38   S    
C2    O9    S    
C16   H5    S    
Cu1   O5    S    
C7    C12   S    
C12   O4    A    
C4    C34   S    
O10   H21   S    
C31   N2    A    
C38   C39   A    
C24   C25   A    
C3    C8    A    
C39   C40   A    
C42   O12   D    
C4    C5    A    
C25   C26   A    
C12   O3    A    
Cu2   O6    S    
C39   C42   S    
C23   O5    A    
C29   C30   A    
C40   O13   S    
C19   H7    S    
C31   C32   A    
C17   C18   A    
C17   O10   S    
C41   H22   S    
C6    C7    A    
C36   H9    S    
Cu2   O4    S    
C22   C24   A    
C10   H19   S    
Cu1   N2    S    
C3    C4    A    
C1    O1    A    
C27   H10   S    
C2    C36   A    
C34   O7    A    
C36   C37   A    
C35   H14   S    
C6    H17   S    
O9    H20   S    
C18   H6    S    
C28   H11   S    
Cu1   O3    S    
C30   H13   S    
C25   C41   S    
C24   H4    S    
C9    H18   S    
C9    C15   A    
C32   N1    A    
C11   C13   A    
C30   C31   A    
C20   C26   A    
Cu2   O8    S    
C33   C35   A    
C5    C15   S    
C10   C11   A    
C42   H23   S    
C3    H16   S    
C2    C40   A    
C20   C21   A    
O13   H24   S    
C27   C28   A    
C14   C15   A    
C35   N2    A    
Cu1   O1    S    
C13   C14   A    
C34   O8    A    
C13   H2    S    
C37   H15   S    
Cu1   O7    S    
