data_mof_unit_24963.cif
_audit_creation_date              2012-12-10T17:33:03-0500
_audit_creation_method            fapswitch 2.2
_symmetry_space_group_name_H-M    P1
_symmetry_Int_Tables_number       1
_space_group_crystal_system       triclinic
_cell_length_a                    12.365187
_cell_length_b                    13.234187
_cell_length_c                    14.271729
_cell_angle_alpha                 93.142786
_cell_angle_beta                  107.554213
_cell_angle_gamma                 117.030835
_cell_volume                      1932.17618116

loop_
_atom_site_label
_atom_site_type_symbol
_atom_type_description
_atom_site_fract_x
_atom_site_fract_y
_atom_site_fract_z
_atom_type_partial_charge
C1    C     C_R   0.650900 0.714218 0.508745 0.783400
C2    C     C_R   0.877580 0.541611 0.923567 0.088013
C3    C     C_R   0.834067 0.567848 0.997958 0.157511
C4    C     C_R   0.992658 0.532064 0.952860 0.066893
C5    C     C_R   0.054112 0.535823 0.055733 0.055956
C6    C     C_R   0.009078 0.564366 0.127928 -0.192948
C7    C     C_R   0.901861 0.581058 0.099299 -0.183245
C8    C     C_R   0.049492 0.520833 0.883102 -0.223580
C9    C     C_R   0.157935 0.505913 0.911896 -0.231353
C10   C     C_R   0.212386 0.499556 0.010496 0.167164
C11   C     C_R   0.160117 0.512991 0.083106 0.091564
C12   C     C_R   0.619392 0.518190 0.686749 0.797839
C13   C     C_R   0.319119 0.480078 0.037420 -0.199541
C14   C     C_R   0.374377 0.473090 0.135794 -0.199937
C15   C     C_R   0.214280 0.500798 0.180409 -0.240370
C16   C     C_R   0.135457 0.967978 0.357689 0.602556
C17   C     C_R   0.248210 0.162166 0.462108 -0.144044
C18   C     C_R   0.732607 0.921470 0.576411 -0.179912
C19   C     C_R   0.823692 0.038414 0.595925 -0.147141
C20   C     C_R   0.923664 0.073061 0.558659 -0.198389
C21   C     C_R   0.931395 0.990773 0.496929 0.116016
C22   C     C_R   0.828957 0.873639 0.467093 0.089219
C23   C     C_R   0.345212 0.285195 0.484926 0.830007
C24   C     C_R   0.036903 0.021026 0.463269 0.002118
C25   C     C_R   0.031449 0.938203 0.391595 0.031773
C26   C     C_R   0.921421 0.827748 0.353584 -0.186854
C27   C     C_R   0.821270 0.796149 0.390070 -0.224996
C28   C     C_R   0.148879 0.131000 0.500074 -0.259998
C29   C     C_R   0.242947 0.079965 0.392370 -0.262682
C30   C     C_R   0.736096 0.837787 0.514455 -0.104367
C31   C     C_R   0.249004 0.670762 0.670111 -0.302432
C32   C     C_R   0.651878 0.341631 0.364483 0.039616
C33   C     C_R   0.723478 0.295797 0.340343 -0.280702
C34   C     C_R   0.382240 0.484079 0.313476 0.790584
C35   C     C_R   0.857792 0.344670 0.395132 0.101200
C36   C     C_R   0.924471 0.451020 0.470599 -0.046767
C37   C     C_R   0.842877 0.489952 0.495997 0.261611
C38   C     C_R   0.065236 0.518797 0.525160 -0.034777
C39   C     C_R   0.115264 0.608920 0.610936 0.181959
C40   C     C_R   0.032748 0.639933 0.636093 -0.299188
C41   C     C_R   0.901138 0.584822 0.577959 -0.179223
C42   C     C_R   0.160930 0.506909 0.497299 0.003505
C43   C     C_R   0.335075 0.646625 0.643128 0.068673
C44   C     C_R   0.690818 0.534467 0.794182 -0.051193
C45   C     C_R   0.322026 0.483662 0.207748 -0.047488
C46   C     C_R   0.722376 0.579997 0.970097 -0.192798
C47   C     C_R   0.651654 0.564288 0.868758 -0.194320
C48   C     C_R   0.801875 0.522116 0.821943 -0.257852
Cu1   Cu    Cu3+1 0.416420 0.526630 0.522910 0.931725
Cu2   Cu    Cu3+1 0.583580 0.473370 0.477090 0.921875
H1    H     H_    0.870591 0.602689 0.156960 0.142979
H2    H     H_    0.360339 0.471007 0.982486 0.131836
H3    H     H_    0.319229 0.103630 0.361771 0.174357
H4    H     H_    0.912683 0.764811 0.295846 0.185300
H5    H     H_    0.161324 0.195342 0.558029 0.162289
H6    H     H_    0.661000 0.896280 0.611954 0.155340
H7    H     H_    0.991218 0.165223 0.577579 0.125552
H8    H     H_    0.819346 0.102407 0.643018 0.146928
H9    H     H_    0.736435 0.711056 0.354958 0.172473
H10   H     H_    0.437865 0.692512 0.689653 0.119929
H11   H     H_    0.173151 0.502798 0.236440 0.145973
H12   H     H_    0.071101 0.710430 0.700285 0.158692
H13   H     H_    0.286807 0.737695 0.736949 0.141187
H14   H     H_    0.135568 0.453554 0.426637 0.149943
H15   H     H_    0.547673 0.299165 0.323405 0.139731
H16   H     H_    0.671609 0.216849 0.281705 0.148862
H17   H     H_    0.847679 0.618759 0.601217 0.208811
H18   H     H_    0.458278 0.460285 0.155589 0.151863
H19   H     H_    0.198501 0.497959 0.856112 0.145902
H20   H     H_    0.689470 0.601201 0.026746 0.130899
H21   H     H_    0.566018 0.574504 0.848863 0.148772
H22   H     H_    0.825471 0.493969 0.762533 0.157620
H23   H     H_    0.056755 0.578020 0.207986 0.153601
H24   H     H_    0.014954 0.526630 0.805862 0.153608
N1    N     N_R   0.290690 0.566960 0.557640 -0.177508
N2    N     N_R   0.709100 0.433710 0.442970 -0.204716
O1    O     O_R   0.545970 0.684450 0.528810 -0.572554
O2    O     O_R   0.687130 0.639470 0.490120 -0.602004
O3    O     O_R   0.519670 0.535100 0.660030 -0.587440
O4    O     O_R   0.660830 0.490120 0.621340 -0.598832
O5    O     O_R   0.312870 0.360530 0.509880 -0.589488
O6    O     O_R   0.454030 0.315550 0.471190 -0.580345
O7    O     O_R   0.339170 0.509880 0.378660 -0.587542
O8    O     O_R   0.480330 0.464900 0.339970 -0.597680
F1    F     F_    0.131422 0.889952 0.288880 -0.681450
C49   C     C_3   0.914886 0.268408 0.377809 -0.407250
C50   C     C_3   0.934678 0.271344 0.276410 -0.354615
C51   C     C_3   0.015710 0.215108 0.267000 -0.813554
H25   H     H_    0.115580 0.265742 0.324892 0.258063
H26   H     H_    0.969341 0.124075 0.276357 0.260815
H27   H     H_    0.023262 0.214364 0.191407 0.241789
H28   H     H_    0.838117 0.223667 0.213578 0.220668
H29   H     H_    0.983463 0.362328 0.267545 0.208606
H30   H     H_    0.003755 0.288127 0.442155 0.192874
H31   H     H_    0.845447 0.176883 0.375572 0.205032

loop_
_geom_bond_atom_site_label_1
_geom_bond_atom_site_label_2
_ccdc_geom_bond_type
C50   C51   S    
C23   O6    A    
C17   C29   A    
C50   H29   S    
C35   C36   A    
C4    C8    A    
Cu2   O8    S    
C41   H17   S    
C42   N1    A    
C17   C23   S    
C31   C43   A    
C36   C37   A    
C9    H19   S    
C5    C11   A    
C3    C7    A    
C5    C6    A    
C35   C49   S    
C12   O3    A    
C26   H4    S    
C40   H12   S    
C18   C19   A    
Cu1   O5    S    
C49   H30   S    
C11   C15   A    
C19   C20   A    
Cu1   O1    S    
C8    C9    A    
Cu1   N1    S    
C18   C30   A    
C13   C14   A    
C23   O5    A    
C9    C10   A    
C44   C47   A    
C18   H6    S    
C21   C22   A    
C1    O2    A    
C34   O8    A    
C48   H22   S    
Cu2   O2    S    
C28   H5    S    
C33   H16   S    
C14   C45   A    
C19   H8    S    
C43   N1    A    
C31   H13   S    
C24   C25   A    
C49   H31   S    
C39   C40   A    
C49   C50   S    
C2    C48   A    
C16   C29   A    
Cu1   O3    S    
C2    C4    A    
Cu2   N2    S    
C13   H2    S    
C51   H27   S    
C8    H24   S    
C15   H11   S    
C34   C45   S    
C20   C21   A    
C47   H21   S    
C43   H10   S    
C40   C41   A    
C37   N2    A    
C51   H26   S    
C22   C27   A    
C26   C27   A    
C16   F1    S    
C34   O7    A    
C15   C45   A    
C42   H14   S    
Cu2   O6    S    
C6    H23   S    
C16   C25   A    
C46   C47   A    
C22   C30   A    
C17   C28   A    
C24   C28   A    
C4    C5    A    
C10   C13   A    
Cu2   O4    S    
C32   N2    A    
C38   C42   A    
C6    C7    A    
C3    C46   A    
C32   C33   A    
Cu1   O7    S    
C36   C38   A    
C2    C3    A    
C25   C26   A    
C7    H1    S    
C12   C44   S    
C27   H9    S    
C38   C39   A    
C29   H3    S    
C12   O4    A    
C1    C30   S    
C33   C35   A    
C31   C39   A    
C37   C41   A    
C46   H20   S    
C10   C11   A    
C51   H25   S    
Cu1   Cu2   S    
C21   C24   A    
C14   H18   S    
C1    O1    A    
C20   H7    S    
C50   H28   S    
C44   C48   A    
C32   H15   S    
