data_mof_unit_36230.cif
_audit_creation_date              2013-03-05T16:10:20-0500
_audit_creation_method            fapswitch 2.2
_symmetry_space_group_name_H-M    P1
_symmetry_Int_Tables_number       1
_space_group_crystal_system       triclinic
_cell_length_a                    8.384727
_cell_length_b                    15.307369
_cell_length_c                    18.793356
_cell_angle_alpha                 102.677879
_cell_angle_beta                  91.017028
_cell_angle_gamma                 99.618229
_cell_volume                      2316.48703968

loop_
_atom_site_label
_atom_site_type_symbol
_atom_site_description
_atom_site_fract_x
_atom_site_fract_y
_atom_site_fract_z
_atom_type_partial_charge
P1    P     P_3+3 0.039430 0.410940 0.333230 0.468727
O1    O     O_2   0.871960 0.437280 0.322960 -0.371020
O2    O     O_3   0.121410 0.444460 0.412450 -0.420094
O3    O     O_3   0.661450 0.607570 0.372550 -0.345484
O4    O     O_2   0.764446 0.531795 0.245205 -0.375428
O5    O     O_3   0.997758 0.292058 0.308279 -0.558397
O6    O     O_3   0.713668 0.695927 0.256491 -0.516273
H1    H     H_    0.731354 0.770386 0.363562 0.146172
C1    C     C_3   0.714602 0.856877 0.289232 -0.694409
H2    H     H_    0.848884 0.874703 0.290420 0.256623
P2    P     P_3+3 0.676770 0.715000 0.563590 0.556135
P3    P     P_3+3 0.130412 0.772861 0.410712 0.480857
O7    O     O_2   0.852310 0.726980 0.542430 -0.278516
O8    O     O_3   0.084010 0.657370 0.410280 -0.316028
O9    O     O_2   0.000841 0.817859 0.455448 -0.393424
O10   O     O_3   0.690767 0.763352 0.660996 -0.582730
O11   O     O_3   0.083116 0.780769 0.321659 -0.501611
C2    C     C_3   0.204720 0.751608 0.276896 0.379147
H3    H     H_    0.236332 0.687007 0.286251 0.081414
H4    H     H_    0.313175 0.806075 0.287110 0.030217
C3    C     C_3   0.145110 0.734969 0.197375 -0.865423
H5    H     H_    0.038952 0.678802 0.185164 0.279810
H6    H     H_    0.109464 0.797559 0.186170 0.270857
C4    C     C_3   0.303885 0.766688 0.687723 0.455845
H7    H     H_    0.402984 0.729064 0.671530 0.075117
C5    C     C_3   0.331360 0.831020 0.764286 -0.994897
H8    H     H_    0.331913 0.793791 0.808478 0.221421
H9    H     H_    0.444449 0.881255 0.768112 0.269840
H10   H     H_    0.236785 0.873575 0.775530 0.312812
Ba1   Ba    Ba6+2 0.853520 0.540910 0.466490 1.618949
C6    C     C_3   0.945103 0.256058 0.367471 0.438192
H11   H     H_    0.835532 0.282541 0.387450 0.086327
H12   H     H_    0.041551 0.273164 0.412027 0.121224
C7    C     C_3   0.904185 0.152986 0.341034 -0.925695
H13   H     H_    0.804474 0.134373 0.297841 0.267507
H14   H     H_    0.865803 0.120330 0.386262 0.207878
H15   H     H_    0.012297 0.126053 0.318590 0.291132
C8    C     C_3   0.735940 0.719004 0.716037 0.172906
C9    C     C_3   0.630524 0.742778 0.782973 -0.878904
H16   H     H_    0.633702 0.816893 0.793777 0.224457
H17   H     H_    0.506068 0.707734 0.769633 0.205674
P4    P     P_3+3 0.150290 0.589140 0.666780 0.564002
O12   O     O_2   0.317750 0.562750 0.677090 -0.405566
O13   O     O_3   0.068300 0.555620 0.587560 -0.262614
O14   O     O_3   0.528270 0.392500 0.627460 -0.304730
O15   O     O_3   0.155578 0.707906 0.684277 -0.544549
P5    P     P_3+3 0.061441 0.224934 0.581090 0.430510
O16   O     O_3   0.609290 0.386840 0.459690 -0.392817
O17   O     O_3   0.105700 0.342700 0.589730 -0.390924
O18   O     O_2   0.195306 0.183256 0.537464 -0.403660
O19   O     O_3   0.092531 0.202170 0.667333 -0.531773
Ba2   Ba    Ba6+2 0.336320 0.459170 0.533520 1.625437
P6    P     P_3+3 0.639794 0.591040 0.277385 0.475783
C10   C     C_3   0.667375 0.765364 0.310155 0.402869
H18   H     H_    0.534937 0.752112 0.316656 -0.046169
H19   H     H_    0.670335 0.910537 0.329935 0.137737
O20   O     O_3   0.580430 0.613240 0.540320 -0.377493
C11   C     C_3   0.464415 0.307237 0.307510 0.443273
H20   H     H_    0.342541 0.321579 0.322895 0.080861
H21   H     H_    0.557080 0.369537 0.326603 0.088544
C12   C     C_3   0.468283 0.280602 0.224133 -0.752355
H22   H     H_    0.455791 0.340238 0.201265 0.135631
H23   H     H_    0.587693 0.261689 0.209347 0.191237
P7    P     P_3+3 0.516236 0.271420 0.432876 0.427654
O21   O     O_2   0.337390 0.273050 0.457610 -0.367453
O22   O     O_3   0.500364 0.236168 0.337435 -0.566345
H24   H     H_    0.242969 0.715972 0.161260 0.203638
C13   C     C_3   0.036539 0.268050 0.720678 0.367366
H25   H     H_    0.117506 0.335098 0.727558 0.132698
H26   H     H_    0.913043 0.275621 0.704758 0.004972
C14   C     C_3   0.027323 0.237957 0.793332 -0.728803
H27   H     H_    0.938124 0.271562 0.827231 0.136975
H28   H     H_    0.983286 0.163352 0.782756 0.232451
P8    P     P_3+3 0.558605 0.376213 0.715587 0.509016
C15   C     C_3   0.541868 0.205277 0.660974 0.242534
H29   H     H_    0.671556 0.227045 0.653256 0.044852
O23   O     O_2   0.436584 0.427948 0.760961 -0.339816
O24   O     O_3   0.487668 0.263770 0.720025 -0.515054
H30   H     H_    0.470713 0.203317 0.610130 0.135548
H31   H     H_    0.577987 0.065477 0.633917 0.180858
C16   C     C_3   0.521513 0.110568 0.676455 -0.722785
H32   H     H_    0.584373 0.114202 0.729929 0.238053
C17   C     C_R   0.989801 0.451670 0.045594 0.043932
C18   C     C_R   0.896995 0.405317 0.092606 -0.194670
C19   C     C_R   0.774449 0.405183 0.945042 -0.201777
C20   C     C_R   0.931375 0.450036 0.973143 0.046834
C21   C     C_R   0.722056 0.399394 0.873440 -0.117370
C22   C     C_R   0.822247 0.438785 0.825963 -0.013002
C23   C     C_R   0.976736 0.489504 0.853007 0.048504
C24   C     C_R   0.031881 0.494855 0.926967 0.074202
C25   C     C_R   0.772455 0.427569 0.751989 0.175913
C26   C     C_R   0.882578 0.462849 0.704727 -0.431079
C27   C     C_R   0.026139 0.525417 0.731431 0.241670
C28   C     C_R   0.074888 0.536097 0.806807 0.011350
C29   C     C_R   0.148543 0.497927 0.071285 0.041096
C30   C     C_R   0.208718 0.497997 0.143346 0.017867
C31   C     C_R   0.107795 0.454927 0.190614 -0.039732
C32   C     C_R   0.955062 0.406468 0.162666 -0.051898
H33   H     H_    0.848934 0.446741 0.646951 0.197733
H34   H     H_    0.602389 0.361267 0.855589 0.186409
H35   H     H_    0.878592 0.366797 0.193940 0.158287
C33   C     C_R   0.219795 0.591747 0.837695 -0.071803
C34   C     C_R   0.275476 0.595672 0.908808 -0.149769
C35   C     C_R   0.187354 0.544554 0.953945 0.072536
C36   C     C_R   0.248636 0.542910 0.025135 0.049801
C37   C     C_R   0.409879 0.581917 0.050833 -0.179586
C38   C     C_R   0.370774 0.539711 0.167585 -0.045359
C39   C     C_R   0.469197 0.579882 0.119950 -0.173478
C40   C     C_R   0.431269 0.536551 0.237666 0.165390
C41   C     C_R   0.330144 0.491438 0.281348 -0.432244
C42   C     C_R   0.166075 0.457791 0.262968 0.239293
H36   H     H_    0.292484 0.633199 0.807202 0.116968
H37   H     H_    0.595004 0.608727 0.134631 0.191243
H38   H     H_    0.383325 0.478313 0.329134 0.148089
H39   H     H_    0.687546 0.372682 0.976702 0.131286
H40   H     H_    0.778296 0.365554 0.076868 0.119137
H41   H     H_    0.387665 0.641471 0.927474 0.130315
H42   H     H_    0.496438 0.612031 0.017578 0.156644
C43   C     C_R   0.859929 0.171041 0.534534 0.198348
C44   C     C_R   0.798715 0.076668 0.522669 -0.029488
C45   C     C_R   0.656130 0.893099 0.522469 0.022180
C46   C     C_R   0.803596 0.937557 0.562688 -0.117636
C47   C     C_R   0.884938 0.018866 0.548703 -0.239214
C48   C     C_R   0.586185 0.798712 0.517393 0.125105
H43   H     H_    0.004736 0.045354 0.574040 0.189324
C49   C     C_R   0.431353 0.767884 0.481480 -0.453902
C50   C     C_R   0.614361 0.192819 0.474219 0.215952
C51   C     C_R   0.551107 0.098639 0.463178 -0.032284
C52   C     C_R   0.641199 0.040902 0.490288 -0.008521
C53   C     C_R   0.399454 0.060816 0.427086 -0.092646
C54   C     C_R   0.333348 0.969978 0.421688 -0.227406
C55   C     C_R   0.415913 0.912847 0.452079 0.003939
C56   C     C_R   0.572811 0.947792 0.486531 0.040136
C57   C     C_R   0.343677 0.822575 0.450229 0.055272
C58   C     C_R   0.764473 0.227865 0.512233 -0.555402
H44   H     H_    0.214570 0.946009 0.394453 0.179326
H45   H     H_    0.327909 0.101096 0.403688 0.183977
H46   H     H_    0.811076 0.300032 0.521648 0.173864
C59   C     C_2   0.902292 0.760477 0.748957 1.055120
O25   O     O_2   0.959687 0.837637 0.745622 -0.589513
O26   O     O_R   0.976518 0.717669 0.795768 -0.831756
H47   H     H_    0.065406 0.760254 0.829498 0.321019
C60   C     C_2   0.722072 0.620092 0.685310 0.995830
O27   O     O_2   0.803067 0.594094 0.634871 -0.570326
O28   O     O_R   0.609522 0.556714 0.706880 -0.716607
H48   H     H_    0.558407 0.576308 0.754097 0.342977
C61   C     C_2   0.682382 0.726711 0.856375 0.566841
H49   H     H_    0.705300 0.783754 0.903343 0.056765
O29   O     O_2   0.697959 0.651554 0.864433 -0.578792
C62   C     C_2   0.336547 0.203024 0.188506 0.709209
H50   H     H_    0.328683 0.180088 0.129483 -0.011734
O30   O     O_2   0.238456 0.165362 0.224242 -0.559822
C63   C     C_2   0.643093 0.854526 0.214943 0.733369
H51   H     H_    0.512785 0.841874 0.204561 -0.035304
O31   O     O_2   0.730977 0.866989 0.165724 -0.568545
C64   C     C_2   0.187646 0.261996 0.836114 1.204026
O32   O     O_2   0.248400 0.341788 0.859703 -0.659354
O33   O     O_R   0.264271 0.193135 0.850944 -0.737159
H52   H     H_    0.371345 0.217837 0.880158 0.307382
C65   C     C_2   0.346006 0.070695 0.676313 0.970469
H53   H     H_    0.269094 0.059008 0.627010 -0.030813
O34   O     O_2   0.289740 0.049303 0.730721 -0.516020
C66   C     C_2   0.835204 0.934941 0.639381 1.158199
O35   O     O_2   0.974840 0.949204 0.664384 -0.596758
O36   O     O_R   0.708792 0.936927 0.686703 -0.762496
H54   H     H_    0.747684 0.947903 0.739802 0.331269
C67   C     C_2   0.356043 0.676413 0.480116 1.129030
O37   O     O_2   0.276633 0.658888 0.530234 -0.599808
O38   O     O_R   0.379578 0.609036 0.421793 -0.803878
H55   H     H_    0.361275 0.548773 0.435517 0.345770
C68   C     C_2   0.291598 0.827770 0.636400 1.021721
O39   O     O_2   0.406767 0.886079 0.631971 -0.689262
O40   O     O_R   0.147122 0.822101 0.596954 -0.689160
H56   H     H_    0.152747 0.873985 0.571190 0.323952

loop_
_geom_bond_atom_site_label_1
_geom_bond_atom_site_label_2
_geom_bond_distance
_ccdc_geom_bond_type
C39   H37   1.079061 S    
C58   H46   1.082514 S    
C21   C22   1.399598 A    
C27   C28   1.433857 A    
O3    P6    1.752170 S    
C2    C3    1.520521 S    
C59   O26   1.400197 S    
O38   H55   0.999769 S    
C33   H36   1.070172 S    
C61   H49   1.085403 S    
C68   O39   1.218011 D    
C51   C52   1.420693 A    
C16   H32   1.112518 S    
P5    O17   1.749171 S    
O40   H56   1.012183 S    
C68   O40   1.389002 S    
C5    H8    1.105914 S    
O36   H54   1.013376 S    
Ba1   O16   2.831334 S    
C64   O32   1.222391 D    
C61   O29   1.220457 D    
C4    C5    1.543900 S    
P1    O1    1.544440 D    
C8    C9    1.562734 S    
C31   C42   1.425772 A    
O2    Ba2   2.822904 S    
O12   Ba2   2.835113 S    
C47   H43   1.078096 S    
C11   H21   1.110937 S    
C60   O27   1.210664 D    
P4    C27   1.933165 S    
Ba1   O20   2.946154 S    
C31   C32   1.397778 A    
C7    H13   1.110791 S    
P4    O15   1.767866 S    
P2    C48   1.939803 S    
C23   C28   1.428586 A    
C12   H23   1.111262 S    
C4    C68   1.496558 S    
C41   C42   1.394755 A    
P1    Ba1   3.412902 S    
C45   C48   1.447370 A    
C29   C36   1.423222 A    
C33   C34   1.393172 A    
C13   H25   1.112096 S    
O26   H47   1.010817 S    
C11   O22   1.400977 S    
C66   O35   1.220362 D    
P2    Ba1   3.450947 S    
C55   C56   1.420775 A    
P8    O23   1.551240 D    
P3    O11   1.747649 S    
C38   C39   1.399592 A    
C6    H12   1.110262 S    
C63   O31   1.220535 D    
C34   C35   1.413576 A    
C12   C62   1.504989 S    
C41   H38   1.067994 S    
C7    H14   1.103803 S    
C44   C47   1.391449 A    
P7    C50   1.856503 S    
C11   C12   1.532445 S    
P5    C43   1.861679 S    
O5    C6    1.393295 S    
C1    C63   1.500331 S    
C18   H40   1.075446 S    
C16   C65   1.495691 S    
P3    C57   1.891622 S    
C3    H5    1.111113 S    
C37   H42   1.077296 S    
C38   C40   1.416573 A    
Ba1   O13   2.822240 S    
C34   H41   1.076750 S    
P4    O13   1.569367 S    
O8    Ba1   2.788667 S    
C49   C57   1.411509 A    
C35   C36   1.431543 A    
O28   H48   1.000347 S    
P5    O18   1.543183 D    
C19   C21   1.387534 A    
C44   C52   1.413506 A    
O7    Ba1   2.894014 S    
C19   H39   1.075486 S    
C4    H7    1.098485 S    
C67   O38   1.372428 S    
C54   H44   1.079725 S    
C20   C24   1.424091 A    
H1    C10   1.111000 S    
C25   C26   1.416393 A    
C14   H28   1.112143 S    
C2    H3    1.114135 S    
P5    O19   1.754884 S    
O14   Ba2   2.826215 S    
C11   H20   1.110687 S    
C19   C20   1.412761 A    
C43   C58   1.397705 A    
C46   C66   1.471228 S    
P1    O5    1.749484 S    
O14   P8    1.748523 S    
P1    O2    1.569339 S    
C65   O34   1.219752 D    
P8    C25   1.884267 S    
O2    Ba1   2.964374 S    
C15   H29   1.104642 S    
P4    Ba2   3.413474 S    
P2    O10   1.811421 S    
C17   C18   1.415853 A    
C22   C25   1.409676 A    
C43   C44   1.416624 A    
O17   Ba2   2.789407 S    
C17   C29   1.420658 A    
C30   C31   1.427289 A    
O11   C2    1.401529 S    
C6    C7    1.524086 S    
C1    H19   1.110735 S    
P7    O22   1.751800 S    
C45   C46   1.422372 A    
C8    C60   1.481360 S    
C52   C56   1.430550 A    
C13   H26   1.104300 S    
C30   C38   1.421969 A    
P3    O8    1.743705 S    
C49   C67   1.431125 S    
P3    O9    1.545928 D    
C3    H6    1.110687 S    
O33   H52   1.014086 S    
C62   O30   1.221051 D    
P4    O12   1.544823 D    
O6    P6    1.751772 S    
C50   C51   1.418446 A    
C32   H35   1.079469 S    
C67   O37   1.214879 D    
C48   C49   1.409959 A    
C21   H34   1.079975 S    
C1    H2    1.111946 S    
C8    C59   1.494113 S    
O4    P6    1.542404 D    
C60   O28   1.369809 S    
Ba1   Ba2   4.662977 S    
C10   H18   1.108878 S    
C66   O36   1.395596 S    
C6    H11   1.104208 S    
C15   C16   1.523074 S    
C50   C58   1.398787 A    
H31   C16   1.104606 S    
C51   C53   1.401131 A    
C59   O25   1.214155 D    
C7    H15   1.109840 S    
C9    H17   1.088204 S    
C36   C37   1.413537 A    
C5    H9    1.106910 S    
O1    Ba1   2.834583 S    
C4    O15   1.399228 S    
C65   H53   1.083464 S    
C64   O33   1.396581 S    
C53   C54   1.389069 A    
C46   C47   1.396293 A    
C18   C32   1.391097 A    
C14   H27   1.109712 S    
C40   C41   1.395581 A    
P1    C42   1.896435 S    
P2    O7    1.523389 D    
O13   Ba2   2.965300 S    
C37   C39   1.391262 A    
C13   C14   1.533120 S    
C14   C64   1.501792 S    
P7    O21   1.580372 D    
C26   C27   1.414367 A    
C2    H4    1.108653 S    
O19   C13   1.404847 S    
C12   H22   1.109757 S    
C15   O24   1.399116 S    
O3    Ba1   2.826745 S    
O16   P7    1.766018 S    
Ba2   O20   2.830748 S    
C9    H16   1.103464 S    
O16   Ba2   2.945296 S    
C17   C20   1.432413 A    
C22   C23   1.416464 A    
C28   C33   1.396748 A    
C5    H10   1.102696 S    
C55   C57   1.405704 A    
P8    O24   1.745269 S    
C9    C61   1.521780 S    
C29   C30   1.436507 A    
C62   H50   1.084792 S    
P6    C40   1.871615 S    
C1    C10   1.528296 S    
C24   C35   1.418106 A    
O6    C10   1.406690 S    
C45   C56   1.439454 A    
C23   C24   1.437706 A    
P2    O20   1.593145 S    
C53   H45   1.080110 S    
C15   H30   1.109550 S    
C3    H24   1.109669 S    
Ba2   O21   2.894319 S    
C54   C55   1.406336 A    
C26   H33   1.080621 S    
O10   C8    1.433375 S    
C63   H51   1.083728 S    
