data_mof_unit_61816.cif
_audit_creation_date              2012-12-10T17:34:41-0500
_audit_creation_method            fapswitch 2.2
_symmetry_space_group_name_H-M    P1
_symmetry_Int_Tables_number       1
_space_group_crystal_system       triclinic
_cell_length_a                    15.424076
_cell_length_b                    15.46308
_cell_length_c                    19.475379
_cell_angle_alpha                 77.172849
_cell_angle_beta                  98.77243
_cell_angle_gamma                 111.092585
_cell_volume                      4212.10477918

loop_
_atom_site_label
_atom_site_type_symbol
_atom_type_description
_atom_site_fract_x
_atom_site_fract_y
_atom_site_fract_z
_atom_type_partial_charge
Br1   Br    Br    0.454898 0.279773 0.954732 -0.436856
Br2   Br    Br    0.601037 0.779669 0.629625 -0.525187
C1    C     C_R   0.747367 0.541850 0.529087 0.825377
C2    C     C_2   0.545587 0.514275 0.021339 0.153891
C3    C     C_2   0.467975 0.476862 0.980840 -0.227037
C4    C     C_R   0.252109 0.457199 0.473459 0.779767
C5    C     C_R   0.481015 0.478735 0.764016 -0.113567
C6    C     C_R   0.970863 0.556319 0.636347 -0.138714
C7    C     C_R   0.846014 0.554774 0.544769 -0.015397
C8    C     C_R   0.102709 0.405242 0.400923 -0.219219
C9    C     C_R   0.007658 0.388618 0.387250 -0.145738
C10   C     C_R   0.959013 0.411931 0.431025 0.154978
C11   C     C_R   0.008126 0.457421 0.488646 0.031843
C12   C     C_R   0.539071 0.512956 0.096275 0.122581
C13   C     C_R   0.100684 0.457832 0.509300 0.020857
C14   C     C_R   0.969020 0.499481 0.528213 0.068533
C15   C     C_R   0.012655 0.520125 0.595517 0.099918
C16   C     C_R   0.454093 0.248945 0.529423 0.805158
C17   C     C_R   0.096281 0.503070 0.620727 0.124027
C18   C     C_R   0.139531 0.473336 0.577668 -0.195370
C19   C     C_R   0.890306 0.525904 0.501518 -0.207775
C20   C     C_R   0.886651 0.570318 0.612047 -0.174962
C21   C     C_R   0.150322 0.438496 0.462240 -0.058293
C22   C     C_R   0.431605 0.012050 0.635210 -0.142327
C23   C     C_R   0.591944 0.591637 0.127053 -0.130229
C24   C     C_R   0.439546 0.148569 0.544426 -0.012137
C25   C     C_R   0.585165 0.900942 0.388909 -0.189328
C26   C     C_R   0.578298 0.989633 0.364496 -0.124144
C27   C     C_R   0.544730 0.030297 0.406602 -0.136592
C28   C     C_R   0.545985 0.751071 0.472834 0.844917
C29   C     C_R   0.523062 0.985361 0.476693 0.048337
C30   C     C_R   0.540077 0.898855 0.504241 0.014844
C31   C     C_R   0.486031 0.023926 0.520493 0.082540
C32   C     C_R   0.468434 0.976189 0.590946 0.099814
C33   C     C_R   0.494847 0.897514 0.618815 -0.239301
C34   C     C_R   0.583358 0.591706 0.197260 -0.183345
C35   C     C_R   0.535212 0.862059 0.577661 0.260491
C36   C     C_R   0.469061 0.110191 0.497852 -0.221546
C37   C     C_R   0.418474 0.098390 0.612345 -0.162857
C38   C     C_R   0.562157 0.852946 0.457292 -0.052385
C39   C     C_R   0.486666 0.485486 0.688548 0.866077
C40   C     C_R   0.512825 0.511967 0.311534 0.802027
C41   C     C_R   0.521387 0.513167 0.237390 -0.006498
C42   C     C_R   0.469343 0.434092 0.206797 -0.178673
C43   C     C_R   0.478634 0.433676 0.137036 -0.157990
C44   C     C_R   0.477253 0.557496 0.857250 -0.155688
C45   C     C_R   0.482359 0.559218 0.786572 -0.172440
C46   C     C_R   0.471486 0.393987 0.813239 0.110794
C47   C     C_R   0.466394 0.392731 0.885090 0.294934
C48   C     C_R   0.470523 0.475231 0.906546 0.090065
H1    H     H_    0.422226 0.372009 0.237002 0.167175
H2    H     H_    0.489330 0.866708 0.674406 0.181469
H3    H     H_    0.418183 0.976008 0.689013 0.156294
H4    H     H_    0.485149 0.153130 0.446649 0.134630
H5    H     H_    0.603781 0.867698 0.352668 0.163555
H6    H     H_    0.537082 0.097097 0.382478 0.140156
H7    H     H_    0.594778 0.025238 0.311167 0.159212
H8    H     H_    0.400264 0.446493 0.002344 0.160159
H9    H     H_    0.638525 0.653756 0.096546 0.164315
H10   H     H_    0.479517 0.620763 0.873802 0.175306
H11   H     H_    0.624460 0.653424 0.219893 0.164967
H12   H     H_    0.851596 0.590831 0.646593 0.156864
H13   H     H_    0.438826 0.371068 0.115082 0.164735
H14   H     H_    0.000643 0.570898 0.688214 0.182673
H15   H     H_    0.860989 0.522184 0.447926 0.169156
H16   H     H_    0.138501 0.389091 0.364326 0.178483
H17   H     H_    0.971062 0.355090 0.342916 0.177845
H18   H     H_    0.202322 0.458805 0.600178 0.191877
H19   H     H_    0.397025 0.128783 0.649042 0.163304
H20   H     H_    0.488408 0.624199 0.749369 0.207053
I1    I     I_    0.165915 0.523833 0.722073 -0.347713
I2    I     I_    0.811141 0.346001 0.417218 -0.397434
I3    I     I_    0.457115 0.266242 0.779873 -0.249717
I4    I     I_    0.679542 0.574199 0.980274 -0.292284
O1    O     O_3   0.500000 0.500000 0.500000 -0.495198
O2    O     O_R   0.533750 0.444440 0.667550 -0.619571
O3    O     O_R   0.573150 0.573190 0.344350 -0.644917
O4    O     O_R   0.446010 0.535260 0.643730 -0.620620
O5    O     O_R   0.447090 0.447110 0.344370 -0.646424
O6    O     O_R   0.412670 0.287020 0.475980 -0.640421
O7    O     O_R   0.592640 0.718300 0.442410 -0.646244
O8    O     O_R   0.691640 0.476740 0.569450 -0.619694
O9    O     O_R   0.303050 0.517940 0.512160 -0.643001
O10   O     O_R   0.716100 0.590510 0.475920 -0.632262
O11   O     O_R   0.289200 0.414810 0.442470 -0.641931
O12   O     O_R   0.514260 0.299330 0.569480 -0.617510
O13   O     O_R   0.480430 0.695350 0.512130 -0.607309
Zn1   Zn    Zn3+2 0.413740 0.413730 0.441720 0.978618
Zn2   Zn    Zn3+2 0.558890 0.431320 0.575310 1.035878
Zn3   Zn    Zn3+2 0.433530 0.561080 0.541290 1.011010
Zn4   Zn    Zn3+2 0.593840 0.593870 0.441680 0.999343

loop_
_geom_bond_atom_site_label_1
_geom_bond_atom_site_label_2
_ccdc_geom_bond_type
C14   C19   A    
C17   I1    S    
C17   C18   A    
C16   C24   S    
C26   H7    S    
O4    Zn3   S    
C16   O12   A    
O8    Zn2   S    
C3    H8    S    
C26   C27   A    
C33   C35   A    
C25   H5    S    
C7    C20   A    
C22   C37   A    
C32   C33   A    
O1    Zn3   S    
C14   C15   A    
C6    C20   A    
C29   C31   A    
O10   Zn4   S    
C2    I4    S    
O1    Zn4   S    
O2    Zn2   S    
C19   H15   S    
C13   C21   A    
C10   I2    S    
C40   O5    A    
O5    Zn1   S    
C9    H17   S    
C12   C43   A    
C8    H16   S    
C13   C18   A    
C39   O4    A    
C24   C36   A    
C22   H3    S    
C43   H13   S    
C22   C32   A    
C5    C45   A    
C41   C42   A    
C45   H20   S    
C1    C7    S    
C20   H12   S    
C29   C30   A    
C36   H4    S    
C25   C38   A    
C1    O8    A    
C31   C32   A    
C37   H19   S    
C28   C38   S    
C30   C35   A    
C4    O11   A    
C6    H14   S    
C42   H1    S    
C16   O6    A    
C46   C47   A    
C11   C13   A    
C3    C48   S    
C11   C14   A    
C40   C41   S    
C34   H11   S    
C33   H2    S    
C30   C38   A    
C42   C43   A    
O11   Zn1   S    
O9    Zn3   S    
C44   C45   A    
O3    Zn4   S    
C4    O9    A    
C44   H10   S    
C46   I3    S    
C18   H18   S    
C31   C36   A    
C2    C3    D    
O12   Zn2   S    
C9    C10   A    
C27   H6    S    
C8    C21   A    
C44   C48   A    
C6    C15   A    
C5    C46   A    
C28   O7    A    
C27   C29   A    
C39   O2    A    
Br2   C35   S    
C7    C19   A    
C4    C21   S    
C15   C17   A    
C5    C39   S    
C12   C23   A    
C2    C12   S    
C24   C37   A    
C8    C9    A    
O1    Zn2   S    
C23   C34   A    
O7    Zn4   S    
O1    Zn1   S    
C10   C11   A    
C40   O3    A    
O6    Zn1   S    
C47   C48   A    
O13   Zn3   S    
C1    O10   A    
C34   C41   A    
C23   H9    S    
C28   O13   A    
Br1   C47   S    
C25   C26   A    
