data_mof_unit_20293.cif
_audit_creation_date              2012-10-26T21:17:39-0400
_audit_creation_method            fapswitch 2.2
_symmetry_space_group_name_H-M    P1
_symmetry_Int_Tables_number       1
_space_group_crystal_system       triclinic
_cell_length_a                    10.909751
_cell_length_b                    9.095534
_cell_length_c                    7.78065
_cell_angle_alpha                 90.000397
_cell_angle_beta                  90.003361
_cell_angle_gamma                 89.99877
_cell_volume                      772.073984745

loop_
_atom_site_label
_atom_site_type_symbol
_atom_type_description
_atom_site_fract_x
_atom_site_fract_y
_atom_site_fract_z
_atom_type_partial_charge
C1    C     C_R   0.499999 0.220007 0.499986 0.556077
C2    C     C_R   0.064841 0.521110 0.676673 0.004847
C3    C     C_R   0.128768 0.537359 0.516930 -0.004484
C4    C     C_R   0.871239 0.537376 0.516956 -0.004492
C5    C     C_R   0.063556 0.575615 0.369220 -0.161299
C6    C     C_R   0.936430 0.575630 0.369235 -0.161303
C7    C     C_1   0.500000 0.065356 0.500015 -0.034241
C8    C     C_1   0.500000 0.934626 0.500022 -0.027859
C9    C     C_1   0.207829 0.613162 0.901968 0.227313
C10   C     C_1   0.792166 0.613125 0.902024 0.227271
C11   C     C_R   0.500001 0.779999 0.499991 0.551753
C12   C     C_R   0.261844 0.512247 0.502791 0.537478
C13   C     C_R   0.738158 0.512249 0.502803 0.537472
C14   C     C_R   0.123780 0.502318 0.838962 0.019356
C15   C     C_R   0.876290 0.502354 0.839025 0.019308
C16   C     C_R   0.063544 0.423017 0.966747 -0.151186
C17   C     C_R   0.936564 0.423084 0.966822 -0.151223
C18   C     C_R   0.935187 0.521121 0.676696 0.004852
Cu1   Cu    Cu3+1 0.500000 0.500000 0.669080 1.061386
Cu2   Cu    Cu3+1 0.500000 0.500000 0.330920 1.049997
H1    H     H_    0.111429 0.602807 0.251866 0.145449
H2    H     H_    0.888541 0.602858 0.251901 0.145439
H3    H     H_    0.111495 0.389702 0.082206 0.133279
H4    H     H_    0.888661 0.389847 0.082342 0.133265
N1    N     N_1   0.500000 0.500000 0.076820 -0.063507
N2    N     N_1   0.500000 0.500000 0.923180 -0.062871
N3    N     N_1   0.273832 0.702834 0.952749 -0.268160
N4    N     N_1   0.726096 0.702752 0.952787 -0.268102
O1    O     O_R   0.500000 0.288390 0.642760 -0.497106
O2    O     O_R   0.500000 0.711610 0.642760 -0.480671
O3    O     O_R   0.500000 0.288370 0.357190 -0.497450
O4    O     O_R   0.500000 0.711630 0.357190 -0.487224
O5    O     O_R   0.319650 0.500000 0.642810 -0.508201
O6    O     O_R   0.680350 0.500000 0.642810 -0.508182
O7    O     O_R   0.319630 0.500000 0.357240 -0.508501
O8    O     O_R   0.680370 0.500000 0.357240 -0.508481

loop_
_geom_bond_atom_site_label_1
_geom_bond_atom_site_label_2
_ccdc_geom_bond_type
C15   C18   A    
C9    C14   S    
C2    C18   A    
Cu1   Cu2   S    
C4    C18   A    
C1    O1    A    
C2    C3    A    
N1    N2    T    
C7    C8    T    
Cu1   O1    S    
C12   O7    A    
Cu2   O7    S    
C8    C11   S    
C11   O4    A    
C16   H3    S    
C10   C15   S    
Cu1   O5    S    
C5    C6    A    
C2    C14   A    
C14   C16   A    
C17   H4    S    
Cu2   N1    S    
C6    H2    S    
C1    O3    A    
C5    H1    S    
C9    N3    T    
C13   O8    A    
C4    C6    A    
Cu2   O4    S    
C10   N4    T    
C4    C13   S    
C15   C17   A    
Cu1   N2    S    
C13   O6    A    
C3    C12   S    
C12   O5    A    
C1    C7    S    
Cu1   O2    S    
Cu2   O3    S    
C11   O2    A    
C16   C17   A    
C3    C5    A    
Cu1   O6    S    
Cu2   O8    S    
