data_mof_unit_9616.cif
_audit_creation_date              2012-12-10T20:28:44-0500
_audit_creation_method            fapswitch 2.2
_symmetry_space_group_name_H-M    P1
_symmetry_Int_Tables_number       1
_space_group_crystal_system       triclinic
_cell_length_a                    10.662152
_cell_length_b                    10.693656
_cell_length_c                    9.883877
_cell_angle_alpha                 89.106405
_cell_angle_beta                  88.796653
_cell_angle_gamma                 91.437012
_cell_volume                      1126.1843889

loop_
_atom_site_label
_atom_site_type_symbol
_atom_type_description
_atom_site_fract_x
_atom_site_fract_y
_atom_site_fract_z
_atom_type_partial_charge
C1    C     C_R   0.506256 0.260086 0.500403 0.890384
C2    C     C_R   0.548031 0.939511 0.373144 0.629578
C3    C     C_R   0.531089 0.872107 0.495991 -0.250745
C4    C     C_R   0.261132 0.516704 0.501717 0.903848
C5    C     C_R   0.543484 0.934669 0.617673 0.075003
C6    C     C_3   0.468257 0.922564 0.746752 -0.421456
C7    C     C_3   0.470996 0.064506 0.748599 -0.121028
C8    C     C_R   0.453803 0.398475 0.073957 0.114846
C9    C     C_R   0.561308 0.591564 0.069078 -0.194826
C10   C     C_R   0.562804 0.590672 0.925197 0.620430
C11   C     C_R   0.453409 0.398858 0.931331 0.055419
C12   C     C_R   0.058400 0.518270 0.628632 -0.068872
C13   C     C_3   0.324332 0.342820 0.925893 -0.480035
C14   C     C_3   0.322480 0.343790 0.080015 0.137920
C15   C     C_R   0.506041 0.740254 0.498686 0.928155
C16   C     C_R   0.740057 0.490160 0.499154 0.902216
C17   C     C_R   0.099269 0.560027 0.755002 -0.257160
C18   C     C_R   0.027858 0.531925 0.872048 0.574307
C19   C     C_R   0.926937 0.445325 0.867107 0.055682
C20   C     C_R   0.884731 0.406429 0.740216 0.099638
C21   C     C_R   0.938574 0.464137 0.620808 0.025536
C22   C     C_R   0.127701 0.538694 0.507251 -0.228164
C23   C     C_R   0.064975 0.557527 0.386689 0.651218
C24   C     C_R   0.938400 0.531269 0.382482 -0.281427
C25   C     C_R   0.874593 0.483293 0.498137 -0.199891
C26   C     C_R   0.545417 0.062632 0.619076 0.108399
C27   C     C_R   0.532631 0.129839 0.498989 -0.223695
C28   C     C_R   0.549208 0.069025 0.375189 -0.304216
F1    F     F_    0.124000 0.611557 0.277238 -0.622348
F2    F     F_    0.629558 0.680325 0.855027 -0.653880
F3    F     F_    0.057477 0.588324 0.989263 -0.660536
F4    F     F_    0.552100 0.882357 0.251488 -0.659876
H1    H     H_    0.521135 0.878890 0.829780 0.269400
H2    H     H_    0.635525 0.081863 0.855884 0.231093
H3    H     H_    0.503331 0.083126 0.949968 0.207594
H4    H     H_    0.141196 0.394204 0.112045 0.226677
H5    H     H_    0.244355 0.516491 0.091837 0.286237
H6    H     H_    0.390954 0.167664 0.118011 0.181941
H7    H     H_    0.310953 0.228476 0.247764 0.220646
H8    H     H_    0.912694 0.427793 0.074272 0.226491
H9    H     H_    0.776179 0.433162 0.993637 0.183456
H10   H     H_    0.711348 0.327425 0.777356 0.232395
H11   H     H_    0.783354 0.274439 0.635202 0.176706
H12   H     H_    0.377430 0.106101 0.737573 0.170971
H13   H     H_    0.609571 0.666251 0.120962 0.229323
H14   H     H_    0.257838 0.406817 0.878054 0.198413
H15   H     H_    0.322268 0.247679 0.884331 0.206058
H16   H     H_    0.181470 0.620874 0.762485 0.190584
H17   H     H_    0.889860 0.553604 0.290310 0.206087
H18   H     H_    0.553086 0.120152 0.279733 0.189676
H19   H     H_    0.372675 0.881621 0.732040 0.186138
N1    N     N_R   0.499160 0.499140 0.142800 -0.141867
N2    N     N_R   0.499160 0.499180 0.857150 -0.161840
N3    N     N_3   0.544417 0.116199 0.859162 -0.436411
N4    N     N_3   0.230558 0.427891 0.136725 -0.336977
N5    N     N_3   0.311848 0.218776 0.142692 -0.416942
N6    N     N_3   0.866119 0.396719 0.988680 -0.436108
N7    N     N_3   0.797326 0.301839 0.734887 -0.424839
O1    O     O_R   0.500020 0.316790 0.614690 -0.615552
O2    O     O_R   0.500000 0.316760 0.385350 -0.636956
O3    O     O_R   0.316770 0.500020 0.614690 -0.640689
O4    O     O_R   0.316760 0.499980 0.385350 -0.551745
O5    O     O_R   0.500000 0.683240 0.614650 -0.577805
O6    O     O_R   0.499980 0.683210 0.385310 -0.553837
O7    O     O_R   0.683240 0.500020 0.614650 -0.592195
O8    O     O_R   0.683230 0.499980 0.385310 -0.629049
Zn1   Zn    Zn3+2 0.500010 0.500020 0.653130 0.985700
Zn2   Zn    Zn3+2 0.499990 0.499980 0.346870 1.002802

loop_
_geom_bond_atom_site_label_1
_geom_bond_atom_site_label_2
_ccdc_geom_bond_type
C12   C17   A    
O8    Zn2   S    
C15   O6    A    
C6    H1    S    
C9    H13   S    
C6    C7    S    
C16   O7    A    
C12   C22   A    
C6    H19   S    
C4    C22   S    
C9    C10   A    
C8    N1    A    
C14   N5    S    
H7    N5    S    
C11   N2    A    
C17   H16   S    
O4    Zn2   S    
C23   C24   A    
H5    N4    S    
C14   N4    S    
C2    C28   A    
H10   N7    S    
C2    C3    A    
H9    N6    S    
H4    N4    S    
C7    H12   S    
C24   C25   A    
H3    N3    S    
C11   C13   S    
O7    Zn1   S    
C26   C27   A    
C13   H14   S    
C9    N1    A    
C7    C26   S    
H11   N7    S    
C8    C11   A    
C28   H18   S    
C23   F1    S    
C27   C28   A    
C18   F3    S    
H2    N3    S    
C1    O1    A    
C17   C18   A    
C5    C6    S    
N2    Zn1   S    
O5    Zn1   S    
C10   F2    S    
C16   O8    A    
C20   N7    S    
C5    C26   A    
C12   C21   A    
O6    Zn2   S    
C4    O4    A    
C16   C25   S    
H6    N5    S    
C20   C21   A    
O2    Zn2   S    
C2    F4    S    
C18   C19   A    
C1    O2    A    
C24   H17   S    
C1    C27   S    
C10   N2    A    
C15   O5    A    
C22   C23   A    
O3    Zn1   S    
C3    C15   S    
C21   C25   A    
H8    N6    S    
C8    C14   S    
C7    N3    S    
O1    Zn1   S    
C13   C14   S    
C13   H15   S    
C4    O3    A    
C19   N6    S    
C19   C20   A    
C3    C5    A    
N1    Zn2   S    
