data_mof_unit_64213.cif
_audit_creation_date              2012-12-11T16:11:47-0500
_audit_creation_method            fapswitch 2.2
_symmetry_space_group_name_H-M    P1
_symmetry_Int_Tables_number       1
_space_group_crystal_system       triclinic
_cell_length_a                    6.960418
_cell_length_b                    14.272416
_cell_length_c                    15.918967
_cell_angle_alpha                 89.871199
_cell_angle_beta                  90.161373
_cell_angle_gamma                 90.601903
_cell_volume                      1581.324296

loop_
_atom_site_label
_atom_site_type_symbol
_atom_type_description
_atom_site_fract_x
_atom_site_fract_y
_atom_site_fract_z
_atom_type_partial_charge
O1    O     O_R   0.638960 0.835150 0.161940 -0.553509
O2    O     O_R   0.361040 0.164850 0.838060 -0.553510
O3    O     O_R   0.309170 0.846340 0.337470 -0.522257
O4    O     O_R   0.690830 0.153660 0.662530 -0.522254
O5    O     O_R   0.138810 0.664830 0.338070 -0.528478
O6    O     O_R   0.861190 0.335170 0.661930 -0.528477
C1    C     C_R   0.478553 0.868177 0.366246 0.846355
C2    C     C_R   0.521447 0.131822 0.633754 0.846351
O7    O     O_R   0.309250 0.846350 0.162570 -0.532729
O8    O     O_R   0.690750 0.153650 0.837430 -0.532729
O9    O     O_R   0.138880 0.664840 0.161920 -0.530523
O10   O     O_R   0.861120 0.335160 0.838080 -0.530524
C3    C     C_R   0.478626 0.868688 0.133948 0.828411
C4    C     C_R   0.521374 0.131312 0.866052 0.828414
O11   O     O_R   0.638880 0.835150 0.338090 -0.555080
O12   O     O_R   0.361120 0.164850 0.661910 -0.555089
O13   O     O_3   0.472380 0.690440 0.250000 -0.349981
O14   O     O_3   0.527620 0.309560 0.750000 -0.349979
V1    V     V_3+5 0.197550 0.761040 0.250010 1.668612
V2    V     V_3+5 0.802450 0.238960 0.749990 1.668605
O15   O     O_R   0.809160 0.653640 0.162540 -0.510626
O16   O     O_R   0.190840 0.346360 0.837460 -0.510625
C5    C     C_R   0.976950 0.631867 0.133410 0.872081
C6    C     C_R   0.023050 0.368133 0.866589 0.872075
O17   O     O_R   0.809090 0.653640 0.337440 -0.523295
O18   O     O_R   0.190910 0.346360 0.662560 -0.523295
C7    C     C_R   0.977396 0.632564 0.367167 0.834264
C8    C     C_R   0.022604 0.367436 0.632833 0.834263
V3    V     V_3+5 0.697540 0.738950 0.250000 1.681425
V4    V     V_3+5 0.302460 0.261050 0.750000 1.681416
O19   O     O_3   0.972580 0.809550 0.250010 -0.399538
O20   O     O_3   0.027420 0.190450 0.749990 -0.399539
C9    C     C_3   0.171937 0.540333 0.488124 0.430840
C10   C     C_3   0.828063 0.459667 0.511876 0.430839
C11   C     C_3   0.054950 0.541635 0.569680 0.314587
C12   C     C_3   0.945050 0.458365 0.430320 0.314585
C13   C     C_3   0.012594 0.436363 0.561534 -0.237148
C14   C     C_3   0.987406 0.563637 0.438466 -0.237147
C15   C     C_3   0.130379 0.433575 0.478767 -0.288069
C16   C     C_3   0.869621 0.566425 0.521233 -0.288070
H1    H     H_    0.230641 0.377994 0.459025 0.228360
H2    H     H_    0.769359 0.622006 0.540975 0.228360
C17   C     C_3   0.824694 0.466786 0.980061 0.309346
C18   C     C_3   0.175306 0.533214 0.019939 0.309350
C19   C     C_3   0.921660 0.457620 0.067337 0.276661
C20   C     C_3   0.078340 0.542380 0.932663 0.276666
C21   C     C_3   0.985676 0.561929 0.063064 -0.357810
C22   C     C_3   0.014324 0.438071 0.936936 -0.357810
C23   C     C_3   0.890062 0.570388 0.975966 0.259247
C24   C     C_3   0.109938 0.429612 0.024034 0.259236
C25   C     C_3   0.674958 0.970029 0.482104 0.249716
C26   C     C_3   0.325041 0.029970 0.517897 0.249702
C27   C     C_3   0.612093 0.073382 0.476846 0.275585
C28   C     C_3   0.387906 0.926618 0.523154 0.275598
C29   C     C_3   0.510560 0.062721 0.563187 -0.339292
C30   C     C_3   0.489440 0.937279 0.436813 -0.339287
C31   C     C_3   0.574612 0.959522 0.567487 0.281202
C32   C     C_3   0.425387 0.040477 0.432513 0.281205
C33   C     C_3   0.680813 0.975908 0.023640 -0.320778
C34   C     C_3   0.319188 0.024092 0.976360 -0.320704
C35   C     C_3   0.591098 0.960918 0.935173 0.359609
C36   C     C_3   0.408903 0.039082 0.064827 0.359698
H3    H     H_    0.829354 0.957848 0.042933 0.191206
H4    H     H_    0.170646 0.042151 0.957067 0.191204
C37   C     C_3   0.509124 0.061053 0.936176 -0.222623
C38   C     C_3   0.490876 0.938947 0.063824 -0.222608
C39   C     C_3   0.595291 0.075436 0.024096 0.343728
C40   C     C_3   0.404709 0.924564 0.975904 0.343704
O21   O     O_3   0.116055 0.584005 0.644267 -0.562512
H5    H     H_    0.110760 0.652309 0.633540 0.377633
O22   O     O_3   0.883945 0.415994 0.355733 -0.562512
H6    H     H_    0.889238 0.347692 0.366460 0.377636
Cl1   Cl    Cl    0.709460 0.906872 0.849240 -0.510125
Cl2   Cl    Cl    0.290542 0.093128 0.150760 -0.510108
O23   O     O_3   0.694849 0.156475 0.048712 -0.569627
H7    H     H_    0.738778 0.144109 0.106926 0.359752
O24   O     O_3   0.305142 0.843528 0.951288 -0.569630
H8    H     H_    0.261464 0.855848 0.893026 0.359783
Cl3   Cl    Cl    0.395800 0.600022 0.475877 -0.549115
Cl4   Cl    Cl    0.604200 0.399978 0.524123 -0.549113
Cl5   Cl    Cl    0.817796 0.399733 0.155609 -0.436951
Cl6   Cl    Cl    0.182204 0.600267 0.844391 -0.436980
Cl7   Cl    Cl    0.596549 0.417773 0.952312 -0.459002
Cl8   Cl    Cl    0.403451 0.582227 0.047688 -0.459012
O25   O     O_3   0.775787 0.645462 0.950897 -0.542065
H9    H     H_    0.729793 0.629327 0.893694 0.376547
O26   O     O_3   0.224213 0.354538 0.049103 -0.542066
H10   H     H_    0.270208 0.370673 0.106306 0.376553
Cl9   Cl    Cl    0.760862 0.168855 0.444255 -0.545269
Cl10  Cl    Cl    0.239138 0.831144 0.555745 -0.545266
O27   O     O_3   0.859237 0.936836 0.465616 -0.569524
H11   H     H_    0.893927 0.962376 0.409665 0.347156
O28   O     O_3   0.140761 0.063162 0.534383 -0.569536
H12   H     H_    0.106089 0.037642 0.590340 0.347154
O29   O     O_3   0.655966 0.917347 0.638273 -0.561361
H13   H     H_    0.684121 0.852192 0.621165 0.364898
O30   O     O_3   0.344034 0.082653 0.361727 -0.561359
H14   H     H_    0.315878 0.147808 0.378835 0.364899

loop_
_geom_bond_atom_site_label_1
_geom_bond_atom_site_label_2
_ccdc_geom_bond_type
C38   C40   S    
O26   H10   S    
O28   H12   S    
C10   C13   S    
C17   Cl7   S    
C27   C29   S    
O29   H13   S    
O4    C2    A    
V1    O19   S    
O30   H14   S    
C21   C23   S    
O24   H8    S    
C20   C23   S    
O9    V1    S    
C9    C15   S    
C36   C39   S    
C10   C16   S    
C8    C13   S    
C11   C13   S    
C26   C29   S    
C28   Cl10  S    
O3    C1    A    
C33   C38   S    
C9    C11   S    
C7    C14   S    
O12   V4    S    
O13   V3    S    
C34   C36   S    
C25   C30   S    
O7    C3    A    
C33   C39   S    
O5    C7    A    
O7    V1    S    
O6    C8    A    
C18   C20   S    
C37   C39   S    
O3    V1    S    
C25   C31   S    
V4    O20   S    
C17   C22   S    
C10   C12   S    
C12   O22   S    
C25   O27   S    
C22   C24   S    
C2    O12   A    
C20   Cl6   S    
C32   O30   S    
C1    C30   S    
C2    C29   S    
C26   C28   S    
O11   V3    S    
C20   C22   S    
C3    C38   S    
C19   C21   S    
O17   V3    S    
C28   C30   S    
C33   C35   S    
C5    C21   S    
C36   C38   S    
C6    C22   S    
C23   O25   S    
C15   H1    S    
O8    C4    A    
O8    V2    S    
O27   H11   S    
C9    Cl3   S    
C1    O11   A    
C35   Cl1   S    
O25   H9    S    
O15   V3    S    
C25   C27   S    
O23   H7    S    
O10   V2    S    
O1    V3    S    
C17   C23   S    
C26   O28   S    
C17   C19   S    
C11   O21   S    
C26   C32   S    
C24   O26   S    
O14   V4    S    
C34   C37   S    
O18   V4    S    
C29   C31   S    
C27   Cl9   S    
O16   C6    A    
O1    C3    A    
C12   C14   S    
V2    O20   S    
C18   C24   S    
C40   O24   S    
O16   V4    S    
O18   C8    A    
C12   C15   S    
C19   Cl5   S    
C10   Cl4   S    
C16   H2    S    
C18   Cl8   S    
C27   C32   S    
C18   C21   S    
O5    V1    S    
O17   C7    A    
O6    V2    S    
O10   C6    A    
C33   H3    S    
C9    C14   S    
C34   H4    S    
O2    V4    S    
O15   C5    A    
C11   C16   S    
O22   H6    S    
V3    O19   S    
C14   C16   S    
C35   C40   S    
C19   C24   S    
O9    C5    A    
O13   V1    S    
C4    C37   S    
C30   C32   S    
O14   V2    S    
O21   H5    S    
O2    C4    A    
O4    V2    S    
C35   C37   S    
C39   O23   S    
C34   C40   S    
C13   C15   S    
C31   O29   S    
C36   Cl2   S    
C28   C31   S    
