data_mof_unit_67920.cif
_audit_creation_date              2013-03-05T16:14:16-0500
_audit_creation_method            fapswitch 2.2
_symmetry_space_group_name_H-M    P1
_symmetry_Int_Tables_number       1
_space_group_crystal_system       triclinic
_cell_length_a                    10.877756
_cell_length_b                    10.572371
_cell_length_c                    10.200609
_cell_angle_alpha                 91.153702
_cell_angle_beta                  91.712967
_cell_angle_gamma                 89.781023
_cell_volume                      1172.33946277

loop_
_atom_site_label
_atom_site_type_symbol
_atom_site_description
_atom_site_fract_x
_atom_site_fract_y
_atom_site_fract_z
_atom_type_partial_charge
O1    O     O_R   0.499990 0.316750 0.614620 -0.589421
O2    O     O_R   0.500010 0.683250 0.385380 -0.589409
O3    O     O_R   0.499990 0.316780 0.385290 -0.554086
O4    O     O_R   0.500010 0.683220 0.614710 -0.554092
C1    C     C_R   0.500776 0.261479 0.498821 0.913973
C2    C     C_R   0.499219 0.738520 0.501178 0.913983
O5    O     O_R   0.316760 0.500000 0.614660 -0.526923
O6    O     O_R   0.683240 0.500000 0.385340 -0.526909
O7    O     O_R   0.316760 0.500020 0.385330 -0.618346
O8    O     O_R   0.683240 0.499980 0.614670 -0.618361
C3    C     C_R   0.260067 0.510021 0.497718 0.934210
C4    C     C_R   0.739933 0.489975 0.502281 0.934223
Zn1   Zn    Zn3+2 0.500000 0.499980 0.653120 1.106408
Zn2   Zn    Zn3+2 0.500000 0.500020 0.346880 1.106429
C5    C     C_R   0.069302 0.799978 0.180352 0.258683
C6    C     C_R   0.930650 0.200032 0.819669 0.258683
C7    C     C_R   0.027901 0.712767 0.270966 0.236830
C8    C     C_R   0.972065 0.287233 0.729054 0.236831
C9    C     C_R   0.070119 0.586033 0.265209 -0.090981
C10   C     C_R   0.929858 0.413970 0.734800 -0.090927
C11   C     C_R   0.126587 0.541753 0.151565 0.206018
C12   C     C_R   0.873387 0.458266 0.848439 0.206108
C13   C     C_R   0.165359 0.628272 0.057669 0.138832
C14   C     C_R   0.834604 0.371757 0.942347 0.138721
C15   C     C_R   0.146355 0.759641 0.079902 0.175572
C16   C     C_R   0.853595 0.240383 0.920115 0.175556
C17   C     C_R   0.935172 0.454815 0.390012 0.375799
C18   C     C_R   0.064828 0.545173 0.609988 0.375895
C19   C     C_R   0.875173 0.474976 0.507226 -0.232873
C20   C     C_R   0.124825 0.525013 0.492774 -0.232887
C21   C     C_R   0.946456 0.498812 0.622705 0.033141
C22   C     C_R   0.053539 0.501180 0.377296 0.033153
C23   C     C_R   0.391250 0.066729 0.471535 -0.127374
C24   C     C_R   0.608742 0.933271 0.528462 -0.127369
H1    H     H_    0.307329 0.119145 0.450624 0.218409
H2    H     H_    0.692662 0.880855 0.549376 0.218416
C25   C     C_R   0.389337 0.937006 0.475645 0.299004
C26   C     C_R   0.610656 0.062994 0.524350 0.299005
C27   C     C_R   0.498204 0.871450 0.503478 -0.127607
C28   C     C_R   0.501789 0.128550 0.496519 -0.127608
C29   C     C_R   0.547323 0.599156 0.074861 0.284334
C30   C     C_R   0.452664 0.400851 0.925138 0.284247
C31   C     C_R   0.543365 0.601329 0.934020 0.296607
C32   C     C_R   0.456646 0.398669 0.065979 0.296549
N1    N     N_R   0.499970 0.499970 0.857200 -0.175043
N2    N     N_R   0.500030 0.500030 0.142800 -0.175035
Br1   Br    Br    0.224370 0.887339 0.978087 -0.152273
Br2   Br    Br    0.775548 0.112683 0.021905 -0.152311
Br3   Br    Br    0.575920 0.763703 0.859708 -0.226755
Br4   Br    Br    0.424089 0.236297 0.140285 -0.226776
Br5   Br    Br    0.027621 0.976706 0.199877 -0.142936
Br6   Br    Br    0.972310 0.023296 0.800145 -0.142943
Br7   Br    Br    0.915344 0.770135 0.402545 -0.326778
Br8   Br    Br    0.084632 0.229850 0.597488 -0.326739
Br9   Br    Br    0.145766 0.362366 0.125335 -0.300608
Br10  Br    Br    0.854235 0.637663 0.874626 -0.300556
N3    N     N_R   0.219431 0.582032 0.939363 0.222067
O9    O     O_R   0.299676 0.648878 0.880103 -0.339460
O10   O     O_R   0.173972 0.482909 0.878304 -0.348059
N4    N     N_R   0.780540 0.418006 0.060662 0.222008
O11   O     O_R   0.700366 0.351122 0.120000 -0.339337
O12   O     O_R   0.825883 0.517209 0.121624 -0.348077
Br11  Br    Br    0.902371 0.295532 0.305900 -0.195838
Br12  Br    Br    0.097659 0.704453 0.694109 -0.195802
Br13  Br    Br    0.237369 0.853990 0.448249 -0.396599
Br14  Br    Br    0.762626 0.146011 0.551745 -0.396581
Br15  Br    Br    0.635885 0.733137 0.166764 -0.227999
Br16  Br    Br    0.364038 0.266912 0.833232 -0.228017

loop_
_geom_bond_atom_site_label_1
_geom_bond_atom_site_label_2
_geom_bond_distance
_ccdc_geom_bond_type
C25   C27   1.394604 A    
C30   Br16  1.927811 S    
O7    Zn2   2.042934 S    
C30   N1    1.377633 A    
C18   Br12  1.904644 S    
C5    Br5   1.928788 S    
C4    C19   1.478505 S    
C20   C22   1.409708 A    
C31   N1    1.390377 A    
C15   Br1   1.933757 S    
C8    C10   1.415391 A    
C12   Br10  1.921437 S    
C16   Br2   1.933785 S    
C14   N4    1.434563 S    
O3    C1    1.307559 A    
C18   C20   1.391500 A    
Zn2   N2    2.081752 S    
C6    C8    1.403446 A    
C24   C26   1.373216 A    
C3    C20   1.478509 S    
O5    C3    1.332328 A    
C29   C31   1.436672 A    
C14   C16   1.418165 A    
N3    O9    1.296245 A    
O2    C2    1.307501 A    
C29   N2    1.377643 A    
C30   C32   1.436669 A    
O3    Zn2   1.984222 S    
C13   N3    1.434494 S    
C9    C22   1.483051 S    
O8    C4    1.320111 A    
C12   C14   1.412261 A    
N4    O12   1.299745 A    
C26   C28   1.394600 A    
C10   C12   1.399600 A    
C24   H2    1.084056 S    
O7    C3    1.320109 A    
C11   C13   1.412205 A    
C6    C16   1.401914 A    
O2    Zn2   1.968818 S    
O1    C1    1.307504 A    
N3    O10   1.299979 A    
O4    C2    1.307562 A    
C17   C19   1.391502 A    
C8    Br8   1.930870 S    
C29   Br15  1.927781 S    
C31   Br3   1.928746 S    
C24   C27   1.385246 A    
C23   C28   1.385252 A    
C7    Br7   1.930851 S    
O5    Zn1   2.019943 S    
C13   C15   1.418124 A    
O1    Zn1   1.968818 S    
Zn1   N1    2.081752 S    
C5    C15   1.401896 A    
C19   C21   1.409705 A    
C1    C28   1.405109 S    
C32   Br4   1.928710 S    
C6    Br6   1.928812 S    
C11   Br9   1.921427 S    
C26   Br14  1.885399 S    
C2    C27   1.405108 S    
C7    C9    1.415399 A    
O6    Zn2   2.019941 S    
C17   Br11  1.904585 S    
C23   H1    1.084057 S    
C17   C22   1.390082 A    
C5    C7    1.403457 A    
C10   C21   1.483075 S    
C18   C21   1.390107 A    
C23   C25   1.373220 A    
O6    C4    1.332326 A    
O4    Zn1   1.984223 S    
C32   N2    1.390363 A    
N4    O11   1.296334 A    
C9    C11   1.399576 A    
O8    Zn1   2.042932 S    
C25   Br13  1.885375 S    
