data_mof_unit_8542.cif
_audit_creation_date              2012-12-11T18:04:36-0500
_audit_creation_method            fapswitch 2.2
_symmetry_space_group_name_H-M    P1
_symmetry_Int_Tables_number       1
_space_group_crystal_system       triclinic
_cell_length_a                    8.268813
_cell_length_b                    12.694828
_cell_length_c                    22.820599
_cell_angle_alpha                 96.548154
_cell_angle_beta                  89.429586
_cell_angle_gamma                 98.5636
_cell_volume                      2353.28431795

loop_
_atom_site_label
_atom_site_type_symbol
_atom_type_description
_atom_site_fract_x
_atom_site_fract_y
_atom_site_fract_z
_atom_type_partial_charge
Ba1   Ba    Ba6+2 0.856210 0.551220 0.472190 1.666852
Ba2   Ba    Ba6+2 0.333620 0.448870 0.527810 1.669813
C1    C     C_3   0.648695 0.934990 0.323043 -0.374387
C2    C     C_3   0.688435 0.831414 0.343412 0.294570
C3    C     C_3   0.476567 0.281473 0.348748 0.285083
C4    C     C_3   0.470778 0.248300 0.282544 -0.349122
C5    C     C_3   0.961786 0.141139 0.683808 0.288329
C6    C     C_3   0.997855 0.109652 0.744027 -0.296422
C7    C     C_3   0.490998 0.174320 0.685589 0.388074
C8    C     C_3   0.484467 0.099606 0.733377 -0.383067
C9    C     C_R   0.354404 0.507523 0.330190 -0.218348
C10   C     C_R   0.095183 0.582032 0.941619 -0.027796
C11   C     C_R   0.049853 0.577515 0.881354 0.591784
C12   C     C_3   0.111326 0.799438 0.309929 0.233202
C13   C     C_R   0.992566 0.385488 0.874209 0.588581
C14   C     C_R   0.033934 0.387520 0.934419 -0.021104
C15   C     C_R   0.085625 0.486358 0.968287 -0.051720
C16   C     C_R   0.148620 0.680098 0.976105 -0.071735
C17   C     C_R   0.191696 0.683070 0.035567 -0.072726
C18   C     C_R   0.182101 0.588116 0.062797 -0.020403
C19   C     C_R   0.128224 0.489412 0.029031 -0.051472
C20   C     C_R   0.024626 0.292519 0.961558 -0.075271
C21   C     C_R   0.064967 0.295576 0.021184 -0.071399
C22   C     C_R   0.117215 0.393679 0.055717 -0.031631
C23   C     C_3   0.059312 0.841832 0.253459 -0.304248
C24   C     C_R   0.159754 0.398043 0.116111 0.592869
C25   C     C_R   0.225439 0.589734 0.122905 0.583632
C26   C     C_2   0.800908 0.418160 0.767446 -0.090828
C27   C     C_3   0.764988 0.391065 0.702124 -0.068238
C28   C     C_1   0.008454 0.519903 0.684986 0.041265
C29   C     C_2   0.055724 0.527836 0.741365 -0.080971
C30   C     C_2   0.946327 0.475402 0.786404 0.219859
C31   C     C_R   0.422261 0.541267 0.229809 -0.116497
C32   C     C_R   0.467963 0.546018 0.289354 0.051830
C33   C     C_R   0.194127 0.466475 0.313329 0.034248
C34   C     C_3   0.227194 0.780059 0.598812 0.286441
C35   C     C_R   0.147604 0.459968 0.253448 -0.087130
C36   C     C_R   0.261187 0.498365 0.210981 0.210188
C37   C     C_2   0.871095 0.461496 0.664077 -0.265155
C38   C     C_R   0.758843 0.180661 0.525603 -0.273275
C39   C     C_R   0.428572 0.811557 0.479158 -0.273688
C40   C     C_R   0.404023 0.990389 0.459666 -0.107661
C41   C     C_R   0.339543 0.882728 0.457190 0.060355
C42   C     C_R   0.576206 0.848450 0.508875 0.037497
C43   C     C_R   0.639746 0.959676 0.515466 -0.058909
C44   C     C_R   0.552830 0.030916 0.489192 -0.073200
C45   C     C_3   0.237106 0.900606 0.613552 -0.348985
C46   C     C_R   0.615523 0.141141 0.493975 0.055183
C47   C     C_R   0.849065 0.111685 0.549237 -0.036183
C48   C     C_R   0.787928 0.002118 0.546025 -0.085917
C49   C     C_3   0.969976 0.221834 0.406339 0.274043
C50   C     C_3   0.989971 0.104395 0.396237 -0.303324
C51   C     C_3   0.713899 0.686961 0.646119 0.295352
C52   C     C_3   0.735860 0.715200 0.712429 -0.358834
H1    H     H_    0.810557 0.847010 0.364545 0.071305
H2    H     H_    0.311268 0.927434 0.654150 0.112706
H3    H     H_    0.294901 0.942836 0.577141 0.076210
H4    H     H_    0.112385 0.921754 0.620876 0.133449
H5    H     H_    0.839891 0.228751 0.412779 -0.001788
H6    H     H_    0.041554 0.258104 0.446401 0.069228
H7    H     H_    0.938117 0.068294 0.352791 0.153102
H8    H     H_    0.927455 0.060361 0.431193 0.073221
H9    H     H_    0.121635 0.097053 0.396062 0.139273
H10   H     H_    0.828105 0.662619 0.627308 0.010591
H11   H     H_    0.612384 0.619336 0.637791 0.086609
H12   H     H_    0.652897 0.997674 0.361309 0.081891
H13   H     H_    0.842313 0.779269 0.721973 0.128461
H14   H     H_    0.756996 0.643666 0.733277 0.075778
H15   H     H_    0.624146 0.743677 0.731772 0.133310
H16   H     H_    0.597979 0.808698 0.377350 0.078143
H17   H     H_    0.524466 0.922780 0.303548 0.119543
H18   H     H_    0.353125 0.296992 0.363391 0.024414
H19   H     H_    0.566938 0.355574 0.357853 0.039675
H20   H     H_    0.383277 0.173356 0.272220 0.172196
H21   H     H_    0.430630 0.312029 0.259230 0.070174
H22   H     H_    0.594061 0.234524 0.266569 0.127109
H23   H     H_    0.737024 0.963590 0.289401 0.144344
H24   H     H_    0.061657 0.779991 0.215021 0.082352
H25   H     H_    0.927950 0.222956 0.689572 0.022275
H26   H     H_    0.857777 0.082349 0.664371 -0.029055
H27   H     H_    0.100100 0.167183 0.765609 0.170213
H28   H     H_    0.887411 0.110077 0.772077 0.111703
H29   H     H_    0.032152 0.027766 0.739252 0.097301
H30   H     H_    0.620070 0.188288 0.670564 -0.125782
H31   H     H_    0.415857 0.133671 0.647225 0.082441
H32   H     H_    0.556147 0.140734 0.772520 0.126990
H33   H     H_    0.537989 0.026773 0.716719 0.073718
H34   H     H_    0.019504 0.730265 0.318414 0.102240
H35   H     H_    0.355964 0.075436 0.746546 0.128316
H36   H     H_    0.055446 0.220478 0.040144 0.129269
H37   H     H_    0.985301 0.215105 0.936757 0.121225
H38   H     H_    0.232370 0.760388 0.060262 0.122682
H39   H     H_    0.510039 0.573723 0.198582 0.102143
H40   H     H_    0.157525 0.755195 0.957179 0.123933
H41   H     H_    0.175540 0.570438 0.754935 0.116439
H42   H     H_    0.717886 0.379609 0.798393 0.100051
H43   H     H_    0.023965 0.425804 0.239980 0.109545
H44   H     H_    0.390176 0.512781 0.376053 0.073546
H45   H     H_    0.844658 0.448747 0.617107 0.074004
H46   H     H_    0.334012 0.041412 0.439442 0.108459
H47   H     H_    0.859121 0.951831 0.566617 0.103685
H48   H     H_    0.806909 0.265165 0.528064 0.054158
H49   H     H_    0.378312 0.727328 0.475678 0.085032
H50   H     H_    0.931947 0.857696 0.257719 0.153697
H51   H     H_    0.351498 0.760319 0.590376 0.004485
H52   H     H_    0.148531 0.754721 0.559017 0.058087
N1    N     N_R   0.997907 0.479874 0.848178 -0.423355
N2    N     N_R   0.213363 0.495402 0.149217 -0.424660
O1    O     O_2   0.890290 0.440320 0.360790 -0.466013
O2    O     O_3   0.678201 0.777093 0.621621 -0.641755
O3    O     O_3   0.116789 0.881499 0.357331 -0.628561
O4    O     O_2   0.299410 0.559720 0.639240 -0.454370
O5    O     O_3   0.058870 0.558650 0.568170 -0.502764
O6    O     O_3   0.517310 0.362160 0.604450 -0.466830
O7    O     O_3   0.162587 0.731168 0.647403 -0.629852
O8    O     O_3   0.614910 0.369290 0.471050 -0.481066
O9    O     O_3   0.099190 0.306290 0.575790 -0.464743
O10   O     O_2   0.183829 0.116559 0.538986 -0.483423
O11   O     O_3   0.101913 0.139346 0.648794 -0.583860
O12   O     O_3   0.130840 0.441440 0.431840 -0.497406
O13   O     O_3   0.574800 0.630800 0.528960 -0.491076
O14   O     O_2   0.344900 0.234690 0.472540 -0.469142
O15   O     O_3   0.522856 0.198091 0.376844 -0.645338
O16   O     O_2   0.467544 0.476929 0.707492 -0.485891
O17   O     O_3   0.427676 0.268168 0.708039 -0.562506
O18   O     O_2   0.054508 0.660680 0.858797 -0.595802
O19   O     O_2   0.952668 0.299108 0.844789 -0.624030
O20   O     O_2   0.151146 0.314902 0.138968 -0.574105
O21   O     O_2   0.273428 0.675449 0.151843 -0.628375
O22   O     O_3   0.672400 0.637930 0.395560 -0.485023
O23   O     O_2   0.810935 0.573127 0.293353 -0.514408
O24   O     O_3   0.022583 0.268495 0.355657 -0.613479
O25   O     O_3   0.686309 0.752105 0.294627 -0.602033
O26   O     O_2   0.844800 0.765340 0.527490 -0.470793
O27   O     O_3   0.090520 0.693800 0.424220 -0.456766
O28   O     O_2   0.008665 0.885765 0.465176 -0.506759
P1    P     P_3+3 0.057140 0.408270 0.369700 1.006894
P2    P     P_3+3 0.667360 0.749400 0.544670 0.966259
P3    P     P_3+3 0.135688 0.834043 0.426263 0.987868
P4    P     P_3+3 0.132580 0.591820 0.630310 0.989745
P5    P     P_3+3 0.055822 0.167177 0.578069 0.960112
P6    P     P_3+3 0.661796 0.623698 0.318293 0.986653
P7    P     P_3+3 0.527358 0.234965 0.453112 0.936220
P8    P     P_3+3 0.544729 0.378447 0.681114 0.979155
C53   C     C_2   0.273869 0.761996 0.300578 0.364793
H53   H     H_    0.337500 0.765661 0.258933 0.061216
O29   O     O_2   0.335913 0.725710 0.340256 -0.647509
C54   C     C_2   0.166348 0.943366 0.241060 0.559754
H54   H     H_    0.295140 0.943155 0.231645 -0.018014
O30   O     O_2   0.108870 0.026531 0.241025 -0.560461

loop_
_geom_bond_atom_site_label_1
_geom_bond_atom_site_label_2
_ccdc_geom_bond_type
C51   O2    S    
C6    H29   S    
O4    P4    D    
O9    P5    S    
C17   C18   A    
C11   N1    Am   
O10   P5    D    
C2    H16   S    
C53   H53   S    
O3    P3    S    
C5    C6    S    
C51   C52   S    
O27   P3    S    
C12   C53   S    
Ba2   O4    S    
O25   P6    S    
C5    H26   S    
C9    H44   S    
C6    H28   S    
C43   C48   A    
C26   C27   S    
C33   C35   A    
C22   C24   A    
C16   C17   A    
C3    H18   S    
C50   H7    S    
C28   C29   D    
C51   H10   S    
C52   H14   S    
O17   P8    S    
C38   C47   A    
C34   C45   S    
O1    P1    D    
Ba1   Ba2   S    
C40   C44   A    
C13   N1    Am   
C17   H38   S    
C7    H31   S    
Ba2   O8    S    
C32   P6    S    
C8    H35   S    
C14   C15   A    
C30   N1    S    
C47   P5    S    
C10   C15   A    
C42   P2    S    
C21   C22   A    
C41   P3    S    
Ba1   O8    S    
C16   H40   S    
C51   H11   S    
C7    C8    S    
Ba1   O1    S    
C13   O19   D    
C3    H19   S    
C39   C41   A    
Ba1   O5    S    
O14   P7    D    
O28   P3    D    
C35   H43   S    
C53   O29   D    
Ba2   O9    S    
C4    H20   S    
Ba2   O14   S    
C12   O3    S    
C44   C46   A    
C8    H33   S    
O5    P4    S    
C28   P4    S    
C34   H52   S    
C6    H27   S    
C5    O11   S    
C4    H21   S    
C54   H54   S    
Ba1   O22   S    
C24   N2    Am   
Ba2   O12   S    
C52   H13   S    
O24   P1    S    
C43   C44   A    
C27   P8    S    
C15   C19   A    
C1    C2    S    
C23   H24   S    
C46   P7    S    
Ba1   O12   S    
O6    P8    S    
O13   P2    S    
C1    H17   S    
C35   C36   A    
C40   H46   S    
C45   H3    S    
O8    P7    S    
C37   H45   S    
C29   C30   S    
C26   C30   D    
C20   H37   S    
C27   C37   S    
C31   C32   A    
C21   H36   S    
C24   O20   D    
C10   C11   A    
C45   H2    S    
O23   P6    D    
C48   H47   S    
C11   O18   D    
O2    P2    S    
C2    H1    S    
C25   O21   D    
C39   C42   A    
C1    H12   S    
C49   H5    S    
C40   C41   A    
O15   P7    S    
Ba1   O26   S    
C1    H23   S    
Ba1   P1    S    
C42   C43   A    
C5    H25   S    
Ba2   O13   S    
C38   C46   A    
C8    H32   S    
C14   C20   A    
C34   H51   S    
C9    C32   A    
C54   O30   D    
C50   H9    S    
C31   H39   S    
O26   P2    D    
C49   O24   S    
C23   H50   S    
C4    H22   S    
O12   P1    S    
C18   C25   A    
C3    O15   S    
C31   C36   A    
C26   H42   S    
Ba2   P4    S    
C9    C33   A    
C12   H34   S    
C49   C50   S    
C50   H8    S    
C33   P1    S    
C45   H4    S    
Ba2   O6    S    
C3    C4    S    
C52   H15   S    
C25   N2    Am   
C29   H41   S    
Ba2   O5    S    
C28   C37   D    
C23   C54   S    
C12   C23   S    
C36   N2    S    
O22   P6    S    
Ba1   O13   S    
C7    H30   S    
C38   H48   S    
C7    O17   S    
C39   H49   S    
O7    P4    S    
O11   P5    S    
C18   C19   A    
C47   C48   A    
C19   C22   A    
C10   C16   A    
C20   C21   A    
O16   P8    D    
C49   H6    S    
Ba1   O27   S    
C34   O7    S    
Ba1   P2    S    
C13   C14   A    
C2    O25   S    
