data_mof_unit_38675.cif
_audit_creation_date              2012-12-11T14:58:38-0500
_audit_creation_method            fapswitch 2.2
_symmetry_space_group_name_H-M    P1
_symmetry_Int_Tables_number       1
_space_group_crystal_system       triclinic
_cell_length_a                    10.982097
_cell_length_b                    11.006556
_cell_length_c                    18.617314
_cell_angle_alpha                 90.38754
_cell_angle_beta                  90.699884
_cell_angle_gamma                 59.691611
_cell_volume                      1942.64695748

loop_
_atom_site_label
_atom_site_type_symbol
_atom_type_description
_atom_site_fract_x
_atom_site_fract_y
_atom_site_fract_z
_atom_type_partial_charge
C1    C     C_R   0.358509 0.772242 0.397494 0.564291
C2    C     C_R   0.271804 0.463765 0.190816 -0.122648
C3    C     C_R   0.276589 0.482981 0.265049 -0.013901
C4    C     C_R   0.418738 0.382117 0.383040 0.541616
C5    C     C_R   0.875503 0.824779 0.333659 -0.063092
C6    C     C_R   0.946121 0.840679 0.275947 -0.065491
C7    C     C_R   0.083427 0.735441 0.260036 -0.074993
C8    C     C_R   0.145926 0.604527 0.295610 0.093076
C9    C     C_R   0.399445 0.382377 0.304472 -0.023092
C10   C     C_R   0.918672 0.201293 0.307658 0.183068
C11   C     C_R   0.955313 0.182828 0.234708 -0.176756
C12   C     C_R   0.608259 0.115699 0.167054 -0.008261
C13   C     C_R   0.955370 0.293240 0.196282 -0.014098
C14   C     C_R   0.936969 0.410700 0.234241 0.247151
C15   C     C_R   0.881809 0.435249 0.302574 -0.160170
C16   C     C_R   0.782051 0.376749 0.404279 0.580013
C17   C     C_R   0.864348 0.334366 0.338239 0.000228
C18   C     C_R   0.420982 0.694882 0.274296 -0.127275
C19   C     C_R   0.412121 0.722069 0.201288 -0.175458
C20   C     C_R   0.346243 0.861244 0.178512 0.021058
C21   C     C_R   0.295277 0.972458 0.228059 -0.132411
C22   C     C_R   0.300299 0.945398 0.300946 -0.113167
C23   C     C_R   0.374545 0.342844 0.157059 0.000895
C24   C     C_R   0.358402 0.806753 0.323410 0.060625
C25   C     C_R   0.476786 0.245891 0.714806 -0.118421
C26   C     C_R   0.448881 0.225886 0.782937 -0.149018
C27   C     C_R   0.334444 0.333865 0.820490 0.044910
C28   C     C_R   0.339073 0.779556 0.601139 0.587020
C29   C     C_R   0.260505 0.470321 0.791274 0.252604
C30   C     C_R   0.289469 0.488998 0.720244 -0.122748
C31   C     C_R   0.389794 0.373170 0.680581 -0.026617
C32   C     C_R   0.706241 0.500331 0.738655 0.248601
C33   C     C_R   0.731331 0.478709 0.812161 -0.114522
C34   C     C_R   0.515248 0.279305 0.266616 -0.164797
C35   C     C_R   0.791820 0.342739 0.840789 -0.013241
C36   C     C_R   0.802612 0.233044 0.797745 -0.146832
C37   C     C_R   0.767678 0.256548 0.724890 -0.172535
C38   C     C_R   0.725432 0.388482 0.694238 0.022740
C39   C     C_R   0.172886 0.879973 0.702593 0.230874
C40   C     C_R   0.409974 0.380680 0.604332 0.544997
C41   C     C_R   0.171169 0.881286 0.778112 -0.121545
C42   C     C_R   0.283472 0.876768 0.817220 -0.047966
C43   C     C_R   0.388831 0.887604 0.780221 -0.106519
C44   C     C_R   0.390486 0.886620 0.705852 0.228517
C45   C     C_R   0.503710 0.255164 0.194303 -0.027739
C46   C     C_R   0.295846 0.860432 0.668273 0.076377
C47   C     C_R   0.977194 0.287067 0.118077 0.576929
C48   C     C_R   0.331726 0.295945 0.091380 0.543169
C49   C     C_R   0.309335 0.897116 0.104488 0.522548
C50   C     C_R   0.875217 0.312843 0.907017 0.553686
C51   C     C_R   0.300441 0.292372 0.887990 0.568103
C52   C     C_R   0.701574 0.411318 0.616448 0.559550
C53   C     C_R   0.269418 0.904161 0.894575 0.560698
C54   C     C_R   0.721095 0.877861 0.080066 -0.096897
C55   C     C_R   0.770664 0.972897 0.073168 0.274053
C56   C     C_R   0.066890 0.585674 0.348929 -0.013270
C57   C     C_R   0.705358 0.097974 0.113603 -0.052793
C58   C     C_3   0.871308 0.624853 0.189271 -0.108604
C59   C     C_3   0.039615 0.615364 0.836971 -0.100761
C60   C     C_3   0.783880 0.652272 0.714174 -0.066697
C61   C     C_3   0.962699 0.873284 0.687482 -0.106713
C62   C     C_3   0.991382 0.812396 0.033400 -0.073722
C63   C     C_R   0.937846 0.698416 0.371485 -0.114051
C64   C     C_R   0.584001 0.005913 0.182704 -0.097330
C65   C     C_R   0.632508 0.892542 0.136321 -0.131817
Cl1   Cl    Cl    0.962127 0.058084 0.364033 -0.618252
Cl2   Cl    Cl    0.498843 0.935171 0.660271 -0.628458
Cr1   Cr    Cr6+3 0.601770 0.606860 0.505860 1.054634
Cr2   Cr    Cr6+3 0.291380 0.601660 0.495070 1.053003
Cr3   Cr    Cr6+3 0.606880 0.291510 0.499120 1.072442
Cr4   Cr    Cr6+3 0.062440 0.063090 0.008210 1.041722
Cr5   Cr    Cr6+3 0.062880 0.375170 0.998920 0.994228
Cr6   Cr    Cr6+3 0.374700 0.061720 0.992470 1.014623
H1    H     H_    0.611963 0.207076 0.295015 0.155595
H2    H     H_    0.600303 0.815950 0.143731 0.114585
H3    H     H_    0.256330 0.031477 0.339119 0.153460
H4    H     H_    0.563694 0.157470 0.688116 0.181809
H5    H     H_    0.515802 0.121031 0.804363 0.159591
H6    H     H_    0.236564 0.591839 0.696132 0.137988
H7    H     H_    0.718199 0.565890 0.845219 0.130869
H8    H     H_    0.847514 0.127617 0.819050 0.137289
H9    H     H_    0.781200 0.169846 0.691715 0.159212
H10   H     H_    0.881109 0.684105 0.414647 0.118269
H11   H     H_    0.080764 0.893396 0.806682 0.151878
H12   H     H_    0.771166 0.908909 0.347708 0.138444
H13   H     H_    0.466574 0.903161 0.808625 0.163499
H14   H     H_    0.755470 0.788798 0.044375 0.089260
H15   H     H_    0.726472 0.181818 0.102243 0.140964
H16   H     H_    0.102513 0.482816 0.371827 0.139793
H17   H     H_    0.512466 0.017310 0.225023 0.125508
H18   H     H_    0.178326 0.535519 0.160397 0.153333
H19   H     H_    0.812433 0.684633 0.237225 0.111650
H20   H     H_    0.797705 0.614425 0.151955 0.143580
H21   H     H_    0.913307 0.684836 0.162271 0.128607
H22   H     H_    0.007987 0.624689 0.893920 0.154889
H23   H     H_    0.895398 0.936306 0.244541 0.128561
H24   H     H_    0.020793 0.534298 0.811446 0.111434
H25   H     H_    0.969586 0.719235 0.812284 0.086357
H26   H     H_    0.888157 0.554141 0.707896 0.102454
H27   H     H_    0.778536 0.705964 0.765605 0.090121
H28   H     H_    0.776394 0.722533 0.669915 0.185722
H29   H     H_    0.904766 0.936957 0.734754 0.081886
H30   H     H_    0.018163 0.759661 0.699508 0.111157
H31   H     H_    0.881975 0.892199 0.645811 0.156371
H32   H     H_    0.969258 0.732248 0.010432 0.073059
H33   H     H_    0.025239 0.788499 0.090678 0.085198
H34   H     H_    0.137015 0.752795 0.216377 0.107701
H35   H     H_    0.082130 0.801791 0.003549 0.197267
H36   H     H_    0.988203 0.082573 0.209070 0.157158
H37   H     H_    0.850515 0.534857 0.327340 0.139993
H38   H     H_    0.472095 0.586955 0.292603 0.102053
H39   H     H_    0.451736 0.636174 0.163027 0.108590
H40   H     H_    0.246808 0.080413 0.209822 0.115302
O1    O     O_R   0.748800 0.497470 0.428000 -0.544480
O2    O     O_R   0.417600 0.174890 0.067840 -0.497930
O3    O     O_R   0.375320 0.946260 0.070860 -0.502002
O4    O     O_R   0.476420 0.724060 0.429470 -0.513193
O5    O     O_R   0.160600 0.919630 0.926660 -0.514646
O6    O     O_R   0.933060 0.190520 0.936020 -0.468475
O7    O     O_R   0.908880 0.403460 0.925020 -0.543923
O8    O     O_R   0.179600 0.361450 0.918490 -0.494630
O9    O     O_R   0.391510 0.170860 0.907530 -0.537596
O10   O     O_R   0.351130 0.942530 0.922260 -0.512149
O11   O     O_3   0.166667 0.166667 0.999870 -0.269859
O12   O     O_R   0.300070 0.471040 0.567100 -0.489196
O13   O     O_R   0.264580 0.744340 0.416750 -0.465447
O14   O     O_R   0.309380 0.472470 0.418200 -0.507545
O15   O     O_R   0.501710 0.260430 0.414300 -0.492441
O16   O     O_R   0.728090 0.305600 0.428960 -0.454555
O17   O     O_R   0.738760 0.495930 0.588610 -0.452895
O18   O     O_R   0.467110 0.722640 0.578360 -0.448754
O19   O     O_R   0.254530 0.742800 0.577360 -0.488678
O20   O     O_3   0.986188 0.493259 0.206927 -0.567591
O21   O     O_3   0.180230 0.586068 0.834369 -0.577904
O22   O     O_3   0.668411 0.629559 0.709193 -0.526763
O23   O     O_R   0.491670 0.258900 0.574910 -0.478301
O24   O     O_3   0.054625 0.914948 0.659365 -0.526162
O25   O     O_3   0.874937 0.950425 0.024674 -0.557201
O26   O     O_R   0.718780 0.304180 0.577850 -0.509409
O27   O     O_3   0.500010 0.500010 0.500020 -0.348433
O28   O     O_R   0.186690 0.923650 0.086970 -0.532512
O29   O     O_R   0.957250 0.194250 0.084630 -0.507652
O30   O     O_R   0.934970 0.407490 0.085330 -0.497227
O31   O     O_R   0.203780 0.365190 0.067090 -0.508277

loop_
_geom_bond_atom_site_label_1
_geom_bond_atom_site_label_2
_ccdc_geom_bond_type
C25   C31   A    
Cr5   O30   S    
C39   O24   S    
Cr3   O27   S    
C23   C45   A    
Cr5   O8    S    
C11   H36   S    
C41   C42   A    
C35   C36   A    
C22   H3    S    
C60   H26   S    
C8    C56   A    
C7    C8    A    
C39   C41   A    
C54   C65   A    
C19   H39   S    
C40   O23   A    
C47   O29   A    
C48   O31   A    
C26   C27   A    
C29   C30   A    
Cr6   O3    S    
C25   H4    S    
C36   C37   A    
C61   H30   S    
C37   C38   A    
C42   C53   S    
C30   C31   A    
C12   C64   A    
C38   C52   S    
C10   C17   A    
C47   O30   A    
C52   O26   A    
C31   C40   S    
C5    C63   A    
C15   C17   A    
C18   C19   A    
C19   C20   A    
C27   C51   S    
C16   C17   S    
Cr6   O10   S    
C49   O28   A    
C18   C24   A    
C64   H17   S    
C26   H5    S    
Cr4   O28   S    
C5    H12   S    
Cr2   O27   S    
C29   O21   S    
Cr2   O12   S    
Cr3   O26   S    
C13   C14   A    
Cr5   O11   S    
Cr3   O23   S    
C15   H37   S    
C59   H22   S    
C44   C46   A    
C10   Cl1   S    
C58   O20   S    
C4    O15   A    
C50   O6    A    
Cr4   O11   S    
C61   H31   S    
C1    O13   A    
C21   H40   S    
C3    C8    S    
C53   O10   A    
C62   H32   S    
C53   O5    A    
C25   C26   A    
C41   H11   S    
Cr3   O16   S    
C63   H10   S    
C28   O19   A    
Cr1   O18   S    
C43   C44   A    
C20   C49   S    
C3    C9    A    
Cr1   O4    S    
C36   H8    S    
Cr6   O11   S    
C28   C46   S    
Cr5   O7    S    
C35   C50   S    
C56   C63   A    
C34   C45   A    
C1    O4    A    
C62   O25   S    
Cr1   O17   S    
C16   O16   A    
C55   O25   S    
C60   O22   S    
C34   H1    S    
C48   O2    A    
C30   H6    S    
C56   H16   S    
Cr2   O13   S    
C32   C38   A    
C39   C46   A    
C9    C34   A    
C51   O8    A    
C22   C24   A    
C37   H9    S    
Cr1   O27   S    
C42   C43   A    
C12   C57   A    
Cr4   O29   S    
C60   H28   S    
C59   H25   S    
C13   C47   S    
Cr3   O15   S    
Cr5   O31   S    
C54   C55   A    
C23   C48   S    
Cr4   O5    S    
C43   H13   S    
C58   H20   S    
C12   C45   S    
C60   H27   S    
C16   O1    A    
C32   O22   S    
C33   H7    S    
C6    C7    A    
C62   H33   S    
C14   O20   S    
C18   H38   S    
C59   O21   S    
C6    H23   S    
C50   O7    A    
Cr6   O2    S    
C57   H15   S    
Cr4   O6    S    
C28   O18   A    
C52   O17   A    
C64   C65   A    
C55   C57   A    
C61   H29   S    
C58   H21   S    
C32   C33   A    
C11   C13   A    
C61   O24   S    
C5    C6    A    
C27   C29   A    
Cr2   O19   S    
C59   H24   S    
C40   O12   A    
C33   C35   A    
C2    C3    A    
C7    H34   S    
C2    H18   S    
C10   C11   A    
C49   O3    A    
C62   H35   S    
C20   C21   A    
Cr2   O14   S    
C1    C24   S    
Cr6   O9    S    
C2    C23   A    
C51   O9    A    
C14   C15   A    
C44   Cl2   S    
C54   H14   S    
C4    C9    S    
C21   C22   A    
C58   H19   S    
C4    O14   A    
C65   H2    S    
Cr1   O1    S    
