data_mof_unit_22025.cif
_audit_creation_date              2012-12-10T18:46:14-0500
_audit_creation_method            fapswitch 2.2
_symmetry_space_group_name_H-M    P1
_symmetry_Int_Tables_number       1
_space_group_crystal_system       triclinic
_cell_length_a                    9.888589
_cell_length_b                    10.648777
_cell_length_c                    13.174026
_cell_angle_alpha                 90.197103
_cell_angle_beta                  71.551235
_cell_angle_gamma                 90.410548
_cell_volume                      1315.91375573

loop_
_atom_site_label
_atom_site_type_symbol
_atom_type_description
_atom_site_fract_x
_atom_site_fract_y
_atom_site_fract_z
_atom_type_partial_charge
C1    C     C_R   0.500608 0.739572 0.499123 0.971836
C2    C     C_R   0.443355 0.431461 0.976812 0.127607
C3    C     C_R   0.483980 0.418087 0.864924 0.049538
C4    C     C_R   0.552275 0.453245 0.023829 0.065920
C5    C     C_R   0.696018 0.468592 0.958537 -0.052269
C6    C     C_R   0.734159 0.427493 0.852618 -0.216573
C7    C     C_R   0.628914 0.394761 0.808620 -0.138758
C8    C     C_R   0.521983 0.461682 0.133562 -0.291164
C9    C     C_R   0.762411 0.535366 0.113223 0.401982
C10   C     C_R   0.379645 0.432154 0.812706 -0.304242
C11   C     C_R   0.600887 0.938782 0.416886 0.392271
C12   C     C_R   0.423404 0.477410 0.700752 0.898679
C13   C     C_R   0.599989 0.067359 0.421927 -0.205865
C14   C     C_R   0.498570 0.128161 0.504968 -0.262336
C15   C     C_R   0.398337 0.062844 0.588440 0.345134
C16   C     C_R   0.397651 0.932207 0.584081 0.406953
C17   C     C_R   0.499955 0.872172 0.499176 -0.290287
C18   C     C_R   0.957726 0.434236 0.425050 -0.034049
C19   C     C_R   0.100298 0.431921 0.425281 0.495398
C20   C     C_R   0.041014 0.566893 0.574769 -0.128664
C21   C     C_R   0.897374 0.566554 0.574914 -0.105518
C22   C     C_R   0.499240 0.260438 0.501327 0.882654
C23   C     C_R   0.578308 0.502946 0.296214 0.875502
C24   C     C_R   0.798234 0.519104 0.002541 0.442636
C25   C     C_R   0.624216 0.500685 0.179410 -0.263034
C26   C     C_R   0.234011 0.415141 0.872801 0.491929
C27   C     C_R   0.194238 0.415512 0.983912 -0.037143
C28   C     C_R   0.295950 0.430205 0.035604 -0.285367
H1    H     H_    0.927016 0.381069 0.365573 0.163870
H2    H     H_    0.070306 0.620403 0.634666 0.186788
H3    H     H_    0.818520 0.619840 0.635065 0.166444
H4    H     H_    0.844609 0.418412 0.803817 0.188223
H5    H     H_    0.418994 0.433134 0.185317 0.221297
H6    H     H_    0.254856 0.440307 0.121253 0.197242
H7    H     H_    0.082769 0.407451 0.030892 0.209721
H8    H     H_    0.662777 0.354845 0.729011 0.177813
N1    N     N_R   0.142790 0.500030 0.500030 -0.137547
N2    N     N_R   0.857180 0.499940 0.500010 -0.123257
O1    O     O_R   0.385370 0.683250 0.500010 -0.570757
O2    O     O_R   0.614700 0.683220 0.500010 -0.607960
O3    O     O_R   0.328400 0.499990 0.653620 -0.587503
O4    O     O_R   0.557730 0.499960 0.653620 -0.620702
O5    O     O_R   0.385300 0.316780 0.499990 -0.636669
O6    O     O_R   0.614630 0.316750 0.499990 -0.626540
O7    O     O_R   0.442270 0.500040 0.346380 -0.620668
O8    O     O_R   0.671600 0.500010 0.346380 -0.617717
Zn1   Zn    Zn3+2 0.346870 0.500020 0.500000 0.984173
Zn2   Zn    Zn3+2 0.653130 0.499980 0.500000 0.957671
O9    O     O_3   0.864224 0.587505 0.152261 -0.709367
H9    H     H_    0.815643 0.637205 0.216798 0.348603
H10   H     H_    0.675879 0.120471 0.358713 0.193359
O10   O     O_3   0.304158 0.122787 0.675176 -0.769989
H11   H     H_    0.343381 0.206189 0.684187 0.313439
O11   O     O_3   0.303342 0.859920 0.662874 -0.739191
H12   H     H_    0.235399 0.914438 0.715675 0.390973
O12   O     O_3   0.192350 0.358477 0.348503 -0.803068
H13   H     H_    0.273731 0.338085 0.372523 0.383388
O13   O     O_3   0.929773 0.563059 0.940116 -0.683126
H14   H     H_    0.925162 0.584619 0.868245 0.339353
O14   O     O_3   0.127986 0.397904 0.826824 -0.739611
H15   H     H_    0.168376 0.352567 0.758422 0.348734
O15   O     O_3   0.698788 0.883027 0.329651 -0.726482
H16   H     H_    0.668466 0.795912 0.321731 0.316293

loop_
_geom_bond_atom_site_label_1
_geom_bond_atom_site_label_2
_ccdc_geom_bond_type
C19   O12   S    
C2    C4    A    
C9    C24   A    
O15   H16   S    
C23   O7    A    
N1    Zn1   S    
C11   C13   A    
C7    H8    S    
O11   H12   S    
C1    C17   S    
C22   O5    A    
C4    C8    A    
C11   O15   S    
C10   C26   A    
C23   C25   S    
C2    C3    A    
C18   N2    A    
C9    C25   A    
C23   O8    A    
O4    Zn2   S    
C13   C14   A    
C20   H2    S    
C20   N1    A    
C21   H3    S    
C14   C22   S    
C26   C27   A    
C6    C7    A    
C5    C24   A    
C10   C12   S    
C3    C10   A    
C4    C5    A    
C24   O13   S    
N2    Zn2   S    
C22   O6    A    
C18   C19   A    
C3    C7    A    
C8    H5    S    
O7    Zn1   S    
O3    Zn1   S    
C5    C6    A    
C16   O11   S    
C26   O14   S    
O12   H13   S    
C1    O1    A    
C12   O4    A    
C28   H6    S    
C15   C16   A    
O8    Zn2   S    
C21   N2    A    
C9    O9    S    
C20   C21   A    
C12   O3    A    
O1    Zn1   S    
O9    H9    S    
C27   C28   A    
C18   H1    S    
O2    Zn2   S    
C14   C15   A    
O14   H15   S    
C2    C28   A    
C19   N1    A    
C1    O2    A    
C27   H7    S    
O13   H14   S    
C13   H10   S    
O5    Zn1   S    
C8    C25   A    
C11   C17   A    
C15   O10   S    
O6    Zn2   S    
O10   H11   S    
C16   C17   A    
C6    H4    S    
