data_mof_unit_8068.cif
_audit_creation_date              2012-12-10T17:57:52-0500
_audit_creation_method            fapswitch 2.2
_symmetry_space_group_name_H-M    P1
_symmetry_Int_Tables_number       1
_space_group_crystal_system       triclinic
_cell_length_a                    10.823416
_cell_length_b                    9.509354
_cell_length_c                    15.064605
_cell_angle_alpha                 89.968716
_cell_angle_beta                  91.694584
_cell_angle_gamma                 89.607101
_cell_volume                      1549.78982686

loop_
_atom_site_label
_atom_site_type_symbol
_atom_type_description
_atom_site_fract_x
_atom_site_fract_y
_atom_site_fract_z
_atom_type_partial_charge
C1    C     C_R   0.262206 0.500447 0.499389 0.875211
C2    C     C_R   0.737793 0.499554 0.500618 0.875214
C3    C     C_R   0.326346 0.655476 0.051059 -0.198335
C4    C     C_R   0.673608 0.344399 0.948938 -0.198331
C5    C     C_R   0.068669 0.432115 0.569081 0.136215
C6    C     C_R   0.931327 0.567910 0.430939 0.136232
C7    C     C_R   0.939478 0.430653 0.568940 0.109351
C8    C     C_R   0.060517 0.569371 0.431079 0.109357
C9    C     C_R   0.871597 0.498826 0.500065 -0.191586
C10   C     C_R   0.128400 0.501184 0.499950 -0.191604
C11   C     C_R   0.428074 0.075087 0.440073 0.028782
C12   C     C_R   0.571925 0.924913 0.559927 0.028806
C13   C     C_R   0.571819 0.073783 0.559968 0.025221
C14   C     C_R   0.428179 0.926216 0.440032 0.025223
C15   C     C_R   0.507267 0.499711 0.328965 0.852261
C16   C     C_R   0.492752 0.500289 0.671037 0.852260
C17   C     C_R   0.563579 0.407551 0.813996 -0.212552
C18   C     C_R   0.436360 0.592340 0.186004 -0.212611
C19   C     C_R   0.484587 0.499601 0.767717 -0.104358
C20   C     C_R   0.515446 0.500399 0.232286 -0.104346
C21   C     C_R   0.403496 0.589551 0.813838 0.130198
C22   C     C_R   0.596617 0.410532 0.186174 0.130183
C23   C     C_R   0.399435 0.578434 0.907847 0.009420
C24   C     C_R   0.600638 0.421599 0.092156 0.009422
C25   C     C_R   0.493799 0.498520 0.953304 0.019992
C26   C     C_R   0.506247 0.501485 0.046698 0.019998
C27   C     C_R   0.575453 0.414195 0.905564 0.079833
C28   C     C_R   0.424530 0.585733 0.094436 0.079838
C29   C     C_R   0.308251 0.645204 0.959449 0.189241
C30   C     C_R   0.691776 0.354760 0.040539 0.189226
Cu1   Cu    Cu3+1 0.500000 0.640660 0.500000 1.012561
Cu2   Cu    Cu3+1 0.500000 0.359340 0.500000 1.012553
H1    H     H_    0.623138 0.337465 0.778009 0.177535
H2    H     H_    0.376712 0.662325 0.221988 0.177538
H3    H     H_    0.257503 0.709374 0.089636 0.188514
H4    H     H_    0.742389 0.290398 0.910356 0.188499
H5    H     H_    0.370437 0.131754 0.392101 0.140073
H6    H     H_    0.629562 0.868246 0.607899 0.140076
H7    H     H_    0.629098 0.129341 0.608098 0.147198
H8    H     H_    0.370896 0.870659 0.391904 0.147217
N1    N     N_R   0.500000 0.852070 0.500000 -0.170501
N2    N     N_R   0.500000 0.147930 0.500000 -0.170503
O1    O     O_R   0.319640 0.618740 0.499990 -0.558090
O2    O     O_R   0.680360 0.381260 0.500010 -0.558089
O3    O     O_R   0.680360 0.618740 0.500010 -0.570747
O4    O     O_R   0.319640 0.381260 0.499990 -0.570738
O5    O     O_R   0.499970 0.618800 0.370260 -0.576825
O6    O     O_R   0.500030 0.381200 0.629740 -0.576847
O7    O     O_R   0.500030 0.618800 0.629740 -0.570943
O8    O     O_R   0.499970 0.381200 0.370260 -0.570951
I1    I     I_    0.311667 0.758263 0.742119 -0.234118
I2    I     I_    0.688612 0.242000 0.257961 -0.234066
I3    I     I_    0.121895 0.689009 0.917574 -0.190883
I4    I     I_    0.878165 0.310883 0.082339 -0.190878
I5    I     I_    0.174222 0.336763 0.676536 -0.213171
I6    I     I_    0.825774 0.663304 0.323498 -0.213190
I7    I     I_    0.847352 0.331140 0.675330 -0.329475
I8    I     I_    0.152635 0.668921 0.324685 -0.329508

loop_
_geom_bond_atom_site_label_1
_geom_bond_atom_site_label_2
_ccdc_geom_bond_type
C4    H4    S    
C30   I4    S    
C12   N1    A    
C15   O5    A    
C25   C27   A    
Cu2   O6    S    
C26   C28   A    
Cu1   Cu2   S    
C3    H3    S    
C16   O6    A    
C6    C9    A    
C23   C25   A    
Cu2   O2    S    
C5    C7    A    
C5    C10   A    
C17   H1    S    
Cu1   O5    S    
C12   C13   A    
C12   H6    S    
C18   H2    S    
Cu2   O8    S    
Cu1   O1    S    
Cu1   O7    S    
C14   N1    A    
C23   C29   A    
C22   I2    S    
C3    C28   A    
C17   C19   A    
C5    I5    S    
C29   I3    S    
C18   C20   A    
C21   C23   A    
C2    O3    A    
C16   C19   S    
C15   C20   S    
C11   C14   A    
C22   C24   A    
C1    O4    A    
C13   H7    S    
C24   C30   A    
C7    I7    S    
C20   C22   A    
C14   H8    S    
C17   C27   A    
C7    C9    A    
C21   I1    S    
C4    C27   A    
C18   C28   A    
C16   O7    A    
C11   N2    A    
C8    C10   A    
Cu1   O3    S    
C15   O8    A    
C2    O2    A    
C11   H5    S    
Cu2   N2    S    
C13   N2    A    
C3    C29   A    
C6    C8    A    
Cu1   N1    S    
C8    I8    S    
C25   C26   A    
C2    C9    S    
Cu2   O4    S    
C1    O1    A    
C4    C30   A    
C1    C10   S    
C24   C26   A    
C6    I6    S    
C19   C21   A    
