data_mof_unit_10466.cif
_audit_creation_date              2012-10-26T18:50:48-0400
_audit_creation_method            fapswitch 2.2
_symmetry_space_group_name_H-M    P1
_symmetry_Int_Tables_number       1
_space_group_crystal_system       triclinic
_cell_length_a                    12.375784
_cell_length_b                    13.26403
_cell_length_c                    17.258664
_cell_angle_alpha                 105.908904
_cell_angle_beta                  73.702101
_cell_angle_gamma                 117.07595
_cell_volume                      2385.42150159

loop_
_atom_site_label
_atom_site_type_symbol
_atom_type_description
_atom_site_fract_x
_atom_site_fract_y
_atom_site_fract_z
_atom_type_partial_charge
C1    C     C_R   0.144492 0.713568 0.509024 0.526021
C2    C     C_R   0.029038 0.500383 0.261764 -0.010745
C3    C     C_R   0.729307 0.986419 0.375741 -0.142951
C4    C     C_R   0.986202 0.503126 0.652520 0.543896
C5    C     C_R   0.775547 0.164935 0.471434 -0.019836
C6    C     C_R   0.180431 0.913222 0.575032 -0.128650
C7    C     C_R   0.258274 0.028046 0.593561 -0.146175
C8    C     C_R   0.383168 0.066760 0.559544 -0.118065
C9    C     C_R   0.433836 0.989803 0.507719 0.027896
C10   C     C_R   0.351228 0.876942 0.479718 0.022465
C11   C     C_R   0.563036 0.023005 0.478890 0.013256
C12   C     C_R   0.938766 0.580860 0.801779 -0.024535
C13   C     C_R   0.604008 0.951237 0.411126 0.026924
C14   C     C_R   0.519459 0.846129 0.377876 -0.137264
C15   C     C_R   0.395162 0.808884 0.411993 -0.118949
C16   C     C_R   0.856113 0.286608 0.488490 0.552326
C17   C     C_R   0.653859 0.124228 0.514467 -0.031734
C18   C     C_R   0.813873 0.094591 0.403798 -0.155554
C19   C     C_R   0.225729 0.836526 0.518688 -0.001207
C20   C     C_R   0.650080 0.686328 0.619378 -0.140895
C21   C     C_R   0.242765 0.346577 0.392748 0.043270
C22   C     C_R   0.338276 0.311317 0.366324 -0.157391
C23   C     C_R   0.038763 0.601402 0.160764 -0.003492
C24   C     C_R   0.444479 0.369190 0.401523 -0.026074
C25   C     C_R   0.452091 0.461957 0.469263 -0.019936
C26   C     C_R   0.349621 0.494842 0.493052 0.168694
C27   C     C_R   0.553432 0.524221 0.514775 -0.019477
C28   C     C_R   0.013793 0.496345 0.347733 0.548053
C29   C     C_R   0.551968 0.620103 0.576640 0.032096
C30   C     C_R   0.451828 0.649136 0.597198 -0.172809
C31   C     C_R   0.352025 0.586209 0.557941 -0.092775
C32   C     C_R   0.655448 0.496153 0.504560 0.043320
C33   C     C_R   0.749491 0.657189 0.602636 0.053160
C34   C     C_R   0.022695 0.593010 0.242257 -0.158467
C35   C     C_R   0.975598 0.501915 0.739323 -0.001371
C36   C     C_R   0.006278 0.423540 0.760862 -0.032831
C37   C     C_R   0.003467 0.427711 0.842926 -0.113826
C38   C     C_R   0.968391 0.507144 0.903963 0.012553
C39   C     C_R   0.933320 0.581093 0.883474 -0.109281
C40   C     C_R   0.042201 0.337002 0.698621 0.045265
C41   C     C_R   0.166474 0.353226 0.676593 -0.077181
C42   C     C_R   0.202912 0.279065 0.611187 -0.108444
C43   C     C_R   0.115454 0.187652 0.568191 -0.100674
C44   C     C_R   0.991176 0.169439 0.591120 -0.091733
C45   C     C_R   0.054974 0.416357 0.198910 -0.024878
C46   C     C_R   0.954504 0.244115 0.655939 -0.064978
C47   C     C_1   0.630538 0.178577 0.598997 0.180552
C48   C     C_R   0.545778 0.334406 0.357186 0.004042
C49   C     C_R   0.639659 0.399344 0.300284 -0.087349
C50   C     C_R   0.726955 0.358838 0.250273 -0.100502
C51   C     C_R   0.722531 0.254724 0.257825 -0.093452
C52   C     C_R   0.629488 0.189941 0.314560 -0.101045
C53   C     C_R   0.540447 0.228858 0.363661 -0.109496
C54   C     C_1   0.058380 0.317257 0.215996 0.193836
C55   C     C_1   0.036676 0.700847 0.143201 0.187332
C56   C     C_R   0.070431 0.424519 0.117493 -0.133828
C57   C     C_1   0.914678 0.668472 0.784414 0.215353
C58   C     C_R   0.059341 0.514521 0.098040 0.004464
C59   C     C_2   0.970152 0.516265 0.989909 -0.118831
C60   C     C_2   0.061857 0.509916 0.011925 -0.127638
Cu1   Cu    Cu3+1 0.900140 0.524980 0.518800 0.963909
Cu2   Cu    Cu3+1 0.099860 0.475020 0.481200 0.936598
H1    H     H_    0.086194 0.357955 0.069007 0.121829
H2    H     H_    0.006355 0.659305 0.290726 0.128483
H3    H     H_    0.449280 0.720508 0.645745 0.118416
H4    H     H_    0.650125 0.760816 0.665328 0.105557
H5    H     H_    0.662634 0.421487 0.464461 0.152482
H6    H     H_    0.162540 0.301551 0.363884 0.161044
H7    H     H_    0.331114 0.240420 0.315539 0.125490
H8    H     H_    0.277423 0.612056 0.580846 0.185708
H9    H     H_    0.134024 0.491467 0.966016 0.125147
H10   H     H_    0.906948 0.642759 0.931287 0.129672
H11   H     H_    0.897356 0.533236 0.036151 0.133637
H12   H     H_    0.908319 0.124805 0.371054 0.151270
H13   H     H_    0.027281 0.367933 0.859179 0.114097
H14   H     H_    0.235452 0.425441 0.708143 0.109641
H15   H     H_    0.299161 0.293120 0.593267 0.107889
H16   H     H_    0.144034 0.130920 0.517143 0.112698
H17   H     H_    0.923570 0.098629 0.557793 0.111720
H18   H     H_    0.858577 0.231250 0.671720 0.120015
H19   H     H_    0.642820 0.479256 0.293006 0.114522
H20   H     H_    0.796609 0.407142 0.204605 0.122082
H21   H     H_    0.789882 0.223266 0.218781 0.123779
H22   H     H_    0.624760 0.108352 0.319039 0.130707
H23   H     H_    0.549638 0.791986 0.325296 0.114943
H24   H     H_    0.466709 0.176511 0.405874 0.112138
H25   H     H_    0.760746 0.932838 0.323408 0.128075
H26   H     H_    0.084802 0.884126 0.605668 0.139283
H27   H     H_    0.437407 0.158095 0.572117 0.126531
H28   H     H_    0.222068 0.086934 0.636011 0.133189
H29   H     H_    0.333577 0.728239 0.382056 0.150289
H30   H     H_    0.827078 0.710052 0.633400 0.151439
N1    N     N_R   0.749710 0.562810 0.547300 -0.240706
N2    N     N_R   0.249640 0.437820 0.453210 -0.238910
N3    N     N_1   0.612754 0.222129 0.666435 -0.302711
N4    N     N_1   0.060659 0.237361 0.229184 -0.336916
N5    N     N_1   0.034992 0.780529 0.129167 -0.300068
N6    N     N_1   0.895851 0.739489 0.771344 -0.328411
O1    O     O_R   0.025490 0.682370 0.523640 -0.508645
O2    O     O_R   0.194150 0.640180 0.491890 -0.529485
O3    O     O_R   0.905900 0.523560 0.631310 -0.478675
O4    O     O_R   0.074570 0.481370 0.599560 -0.512062
O5    O     O_R   0.805850 0.359820 0.508110 -0.495345
O6    O     O_R   0.974510 0.317630 0.476360 -0.507340
O7    O     O_R   0.925430 0.518630 0.400440 -0.502750
O8    O     O_R   0.094100 0.476440 0.368690 -0.500707

loop_
_geom_bond_atom_site_label_1
_geom_bond_atom_site_label_2
_ccdc_geom_bond_type
C26   N2    A    
C23   C58   A    
C27   C29   A    
C41   C42   A    
C35   C36   A    
C1    O1    A    
C7    C8    A    
C43   H16   S    
C40   C46   A    
C6    C19   A    
C29   C30   A    
C20   H4    S    
C36   C37   A    
Cu1   O5    S    
C10   C15   A    
C30   C31   A    
Cu1   N1    S    
C5    C17   A    
C21   N2    A    
C58   C60   S    
C6    H26   S    
C3    C18   A    
C49   H19   S    
C52   H22   S    
C5    C16   S    
C16   O6    A    
C31   H8    S    
C45   C56   A    
C28   O8    A    
C8    C9    A    
C4    O4    A    
C39   H10   S    
C53   H24   S    
Cu1   O7    S    
C9    C10   A    
C10   C19   A    
C22   H7    S    
C54   N4    T    
C3    C13   A    
C2    C34   A    
C32   N1    A    
C37   H13   S    
C4    C35   S    
C59   C60   D    
C18   H12   S    
C13   C14   A    
Cu1   O1    S    
C1    O2    A    
C44   C46   A    
Cu2   O6    S    
C20   C29   A    
C2    C45   A    
C48   C53   A    
C1    C19   S    
C3    H25   S    
C51   C52   A    
C24   C48   S    
C36   C40   S    
C24   C25   A    
C33   H30   S    
C5    C18   A    
C60   H9    S    
C25   C26   A    
C7    H28   S    
Cu1   O3    S    
C43   C44   A    
C37   C38   A    
C16   O5    A    
C28   O7    A    
C23   C34   A    
C4    O3    A    
C55   N5    T    
C34   H2    S    
C50   C51   A    
C56   H1    S    
C12   C35   A    
C9    C11   A    
C32   H5    S    
Cu2   O2    S    
C12   C57   S    
C40   C41   A    
C45   C54   S    
Cu2   N2    S    
C21   H6    S    
C22   C24   A    
C42   C43   A    
C20   C33   A    
C51   H21   S    
C52   C53   A    
C50   H20   S    
C59   H11   S    
C11   C17   A    
C27   C32   A    
C44   H17   S    
C17   C47   S    
C14   H23   S    
C33   N1    A    
C23   C55   S    
C6    C7    A    
Cu2   O8    S    
C25   C27   A    
C12   C39   A    
C41   H14   S    
C46   H18   S    
C11   C13   A    
C38   C39   A    
C48   C49   A    
C57   N6    T    
C56   C58   A    
Cu1   Cu2   S    
C30   H3    S    
C15   H29   S    
C38   C59   S    
C26   C31   A    
C42   H15   S    
C49   C50   A    
C47   N3    T    
C14   C15   A    
C2    C28   S    
C8    H27   S    
C21   C22   A    
Cu2   O4    S    
