data_mof_unit_56534.cif
_audit_creation_date              2012-10-26T20:03:41-0400
_audit_creation_method            fapswitch 2.2
_symmetry_space_group_name_H-M    P1
_symmetry_Int_Tables_number       1
_space_group_crystal_system       triclinic
_cell_length_a                    12.403345
_cell_length_b                    13.17982
_cell_length_c                    15.840877
_cell_angle_alpha                 76.469907
_cell_angle_beta                  101.322771
_cell_angle_gamma                 117.264837
_cell_volume                      2226.03939457

loop_
_atom_site_label
_atom_site_type_symbol
_atom_type_description
_atom_site_fract_x
_atom_site_fract_y
_atom_site_fract_z
_atom_type_partial_charge
C1    C     C_R   0.854857 0.286278 0.507787 0.631366
C2    C     C_R   0.229186 0.836342 0.463672 -0.055322
C3    C     C_R   0.811380 0.083346 0.569154 -0.128948
C4    C     C_R   0.000010 0.499859 0.659877 0.572705
C5    C     C_R   0.734949 0.965891 0.581070 0.445172
C6    C     C_R   0.614847 0.924924 0.542157 0.271476
C7    C     C_R   0.569154 0.004554 0.491333 -0.042070
C8    C     C_R   0.654683 0.120802 0.466214 -0.009577
C9    C     C_R   0.443561 0.973692 0.461867 -0.034531
C10   C     C_R   0.409504 0.048958 0.394419 -0.069211
C11   C     C_R   0.499138 0.154265 0.359088 -0.036376
C12   C     C_3   0.999598 0.499735 0.916980 0.038778
C13   C     C_R   0.620015 0.190299 0.394174 0.388730
C14   C     C_R   0.350174 0.873074 0.500417 -0.156840
C15   C     C_R   0.196674 0.909833 0.395440 0.419362
C16   C     C_R   0.145356 0.713980 0.486402 0.554499
C17   C     C_R   0.773195 0.161965 0.511970 -0.042126
C18   C     C_R   0.340514 0.325045 0.639430 -0.116170
C19   C     C_R   0.760957 0.646765 0.382186 0.116538
C20   C     C_R   0.665099 0.678035 0.355362 0.394639
C21   C     C_R   0.560708 0.621478 0.399140 -0.049794
C22   C     C_R   0.550680 0.532651 0.471301 -0.082675
C23   C     C_3   0.103824 0.585368 0.027870 -0.094134
C24   C     C_R   0.651292 0.502519 0.496993 0.160503
C25   C     C_R   0.444801 0.473199 0.519027 0.012370
C26   C     C_R   0.440738 0.384632 0.590652 -0.020245
C27   C     C_R   0.536823 0.355491 0.614308 -0.083221
C28   C     C_R   0.000153 0.500385 0.340095 0.575921
C29   C     C_R   0.639315 0.411862 0.570144 0.413562
C30   C     C_R   0.341854 0.497449 0.499892 0.117104
C31   C     C_R   0.243486 0.353635 0.617647 0.081630
C32   C     C_3   0.990465 0.396604 0.047156 -0.044253
C33   C     C_3   0.896495 0.414956 0.972981 0.244786
C34   C     C_3   0.999163 0.499328 0.083033 -0.033984
C35   C     C_1   0.000058 0.499756 0.749661 0.061754
C36   C     C_1   0.999650 0.500033 0.250315 0.053387
C37   C     C_3   0.093694 0.483007 0.990295 0.238895
C38   C     C_3   0.008230 0.601994 0.953461 -0.161812
C39   C     C_3   0.903586 0.516265 0.010316 -0.080210
C40   C     C_1   0.999886 0.499749 0.825251 0.061074
C41   C     C_1   0.999304 0.499671 0.174703 0.007960
C42   C     C_R   0.286147 0.016920 0.362347 0.423993
Cl1   Cl    Cl    0.758680 0.302191 0.935491 -0.490878
Cl2   Cl    Cl    0.538047 0.773701 0.544615 -0.557225
Cl3   Cl    Cl    0.220147 0.461334 0.976188 -0.489686
Cu1   Cu    Cu3+1 0.098270 0.475420 0.519690 1.010918
Cu2   Cu    Cu3+1 0.901730 0.524580 0.480310 1.133044
F1    F     F_    0.778632 0.891171 0.630878 -0.555896
F2    F     F_    0.703647 0.288313 0.351475 -0.614519
F3    F     F_    0.673277 0.763622 0.286371 -0.570396
F4    F     F_    0.722020 0.371421 0.605019 -0.612719
F5    F     F_    0.079805 0.876368 0.358277 -0.567232
F6    F     F_    0.252738 0.087371 0.296740 -0.562089
H1    H     H_    0.369268 0.821434 0.559660 0.207484
H2    H     H_    0.824607 0.529135 0.019749 0.180866
H3    H     H_    0.015518 0.686040 0.914011 0.164669
H4    H     H_    0.189774 0.655218 0.051751 0.172974
H5    H     H_    0.475842 0.210137 0.304404 0.212109
H6    H     H_    0.901895 0.112678 0.604052 0.162272
H7    H     H_    0.165330 0.308453 0.654725 0.140151
H8    H     H_    0.533406 0.287461 0.669335 0.172384
H9    H     H_    0.337519 0.257099 0.694244 0.129385
H10   H     H_    0.335512 0.563000 0.446631 0.137571
H11   H     H_    0.841460 0.690835 0.347583 0.200847
H12   H     H_    0.983154 0.312387 0.086287 0.186891
H13   H     H_    0.489326 0.649262 0.375299 0.156477
N1    N     N_R   0.246280 0.438200 0.549540 -0.238177
N2    N     N_R   0.754330 0.561180 0.450980 -0.277084
O1    O     O_R   0.972510 0.318130 0.524770 -0.527390
O2    O     O_R   0.806530 0.359650 0.491510 -0.375980
O3    O     O_R   0.082970 0.479240 0.637550 -0.505215
O4    O     O_R   0.916990 0.520750 0.604290 -0.423314
O5    O     O_R   0.193470 0.640350 0.508490 -0.499010
O6    O     O_R   0.027490 0.681870 0.475230 -0.462441
O7    O     O_R   0.083010 0.479250 0.395710 -0.515431
O8    O     O_R   0.917030 0.520760 0.362450 -0.468063

loop_
_geom_bond_atom_site_label_1
_geom_bond_atom_site_label_2
_ccdc_geom_bond_type
C8    C13   A    
C21   H13   S    
C27   C29   A    
C19   C20   A    
C18   C26   A    
C7    C8    A    
C31   N1    A    
C26   C27   A    
C33   C39   S    
C16   O6    A    
Cu2   O8    S    
C42   F6    S    
C5    C6    A    
C10   C42   A    
C23   H4    S    
C12   C37   S    
C24   C29   A    
Cu1   O1    S    
C20   F3    S    
C27   H8    S    
C39   H2    S    
C22   C25   A    
C11   H5    S    
C2    C16   S    
C9    C10   A    
C30   N1    A    
C4    C35   S    
C6    Cl2   S    
C30   H10   S    
C36   C41   T    
C34   C41   S    
Cu1   O7    S    
C5    F1    S    
C32   C37   S    
C16   O5    A    
C33   Cl1   S    
C15   C42   A    
C18   H9    S    
C25   C26   A    
C23   C37   S    
C1    O1    A    
C34   C39   S    
C32   C34   S    
C31   H7    S    
C12   C40   S    
C9    C14   A    
Cu2   O2    S    
C19   H11   S    
C23   C34   S    
C19   N2    A    
C15   F5    S    
C2    C15   A    
Cu1   O3    S    
C13   F2    S    
C14   H1    S    
C22   C24   A    
C37   Cl3   S    
C28   O8    A    
Cu2   N2    S    
C4    O4    A    
C29   F4    S    
C25   C30   A    
C7    C9    A    
Cu1   Cu2   S    
C1    O2    A    
Cu2   O6    S    
C3    C5    A    
C6    C7    A    
C23   C38   S    
C1    C17   S    
C8    C17   A    
C32   C33   S    
C35   C40   T    
Cu1   N1    S    
C11   C13   A    
C38   C39   S    
C3    C17   A    
Cu1   O5    S    
C12   C38   S    
C2    C14   A    
Cu2   O4    S    
C10   C11   A    
C24   N2    A    
C38   H3    S    
C20   C21   A    
C28   C36   S    
C18   C31   A    
C12   C33   S    
C21   C22   A    
C28   O7    A    
C4    O3    A    
C32   H12   S    
C3    H6    S    
