data_mof_unit_66806.cif
_audit_creation_date              2013-03-05T15:41:24-0500
_audit_creation_method            fapswitch 2.2
_symmetry_space_group_name_H-M    P1
_symmetry_Int_Tables_number       1
_space_group_crystal_system       triclinic
_cell_length_a                    8.597618
_cell_length_b                    15.45206
_cell_length_c                    15.089352
_cell_angle_alpha                 97.322734
_cell_angle_beta                  99.974348
_cell_angle_gamma                 97.93119
_cell_volume                      1931.76608542

loop_
_atom_site_label
_atom_site_type_symbol
_atom_site_description
_atom_site_fract_x
_atom_site_fract_y
_atom_site_fract_z
_atom_type_partial_charge
P1    P     P_3+3 0.004160 0.709210 0.580280 0.503944
O1    O     O_2   0.174040 0.723040 0.553850 -0.377151
O2    O     O_3   0.901550 0.609570 0.550800 -0.348784
O3    O     O_3   0.370320 0.665070 0.388210 -0.392987
O4    O     O_2   0.303745 0.816306 0.459218 -0.370964
O5    O     O_3   0.047198 0.752996 0.697977 -0.558144
O6    O     O_3   0.358647 0.821338 0.296591 -0.532269
H1    H     H_    0.215852 0.721245 0.200269 0.152595
C1    C     C_3   0.351171 0.818477 0.137726 -0.555518
H2    H     H_    0.452707 0.873721 0.161234 0.233235
P2    P     P_3+3 0.305010 0.425580 0.290930 0.462361
P3    P     P_3+3 0.880641 0.596643 0.220958 0.461922
O7    O     O_2   0.134800 0.452800 0.278160 -0.344391
O8    O     O_3   0.937630 0.618610 0.340820 -0.378771
O9    O     O_2   0.994757 0.540018 0.182458 -0.385441
O10   O     O_3   0.267630 0.310422 0.262648 -0.582734
O11   O     O_3   0.923947 0.693300 0.174502 -0.533695
C2    C     C_3   0.880522 0.767011 0.223518 0.356849
H3    H     H_    0.799619 0.748169 0.269392 0.072431
C3    C     C_3   0.797050 0.817429 0.152141 -0.791500
H4    H     H_    0.857511 0.815043 0.093093 0.252610
C4    C     C_3   0.629589 0.285119 0.252491 0.395840
H5    H     H_    0.553561 0.310890 0.297901 0.111375
H6    H     H_    0.660772 0.334290 0.208430 0.048652
C5    C     C_3   0.532808 0.204911 0.186259 -0.612220
H7    H     H_    0.446467 0.167763 0.219829 0.203836
H8    H     H_    0.459680 0.227525 0.127866 0.212025
Ba1   Ba    Ba6+2 0.154720 0.543770 0.458160 1.590052
C6    C     C_3   0.055714 0.690335 0.757159 0.287600
H9    H     H_    0.955690 0.634118 0.733465 0.165201
C7    C     C_3   0.048815 0.733618 0.855043 -0.610468
H10   H     H_    0.160461 0.781958 0.882558 0.181115
C8    C     C_3   0.196459 0.272035 0.327649 0.254031
H11   H     H_    0.091244 0.302799 0.339375 0.141060
H12   H     H_    0.286198 0.280506 0.391948 0.103987
C9    C     C_3   0.140295 0.172667 0.293662 -0.756509
H13   H     H_    0.044112 0.147132 0.328314 0.160501
H14   H     H_    0.240956 0.136276 0.311159 0.192386
P4    P     P_3+3 0.806120 0.290780 0.419650 0.483697
O12   O     O_2   0.636250 0.276900 0.446120 -0.370791
O13   O     O_3   0.908740 0.390420 0.449120 -0.411857
O14   O     O_3   0.439970 0.334920 0.611710 -0.250802
O15   O     O_3   0.775125 0.266777 0.299272 -0.554887
P5    P     P_3+3 0.928378 0.387476 0.778000 0.555859
O16   O     O_3   0.402050 0.547860 0.609740 -0.426146
O17   O     O_3   0.872650 0.381380 0.659100 -0.300283
O18   O     O_2   0.821680 0.450246 0.814520 -0.269764
O19   O     O_3   0.851862 0.288653 0.813515 -0.540474
Ba2   Ba    Ba6+2 0.655440 0.456220 0.541760 1.624221
P6    P     P_3+3 0.418159 0.782068 0.400069 0.439568
C10   C     C_3   0.336341 0.761890 0.214090 0.390197
H15   H     H_    0.378935 0.779201 0.077384 0.225914
O20   O     O_3   0.408230 0.452130 0.390190 -0.449101
C11   C     C_3   0.547419 0.741037 0.684355 0.254836
H16   H     H_    0.670588 0.755557 0.670892 0.110177
H17   H     H_    0.467162 0.704531 0.621623 0.169412
C12   C     C_3   0.482124 0.828002 0.705746 -0.523274
H18   H     H_    0.350354 0.811816 0.697242 0.200702
P7    P     P_3+3 0.507197 0.578218 0.724090 0.488653
O21   O     O_2   0.675480 0.547140 0.721810 -0.299677
O22   O     O_3   0.552687 0.693803 0.758251 -0.582839
H19   H     H_    0.672877 0.782694 0.125858 0.167367
C13   C     C_3   0.899905 0.210921 0.774928 0.237258
H20   H     H_    0.016238 0.224357 0.757565 0.049710
C14   C     C_3   0.901288 0.146734 0.845731 -0.498765
H21   H     H_    0.778066 0.125082 0.854487 0.268417
H22   H     H_    0.968095 0.180508 0.913801 0.243081
P8    P     P_3+3 0.381946 0.221359 0.614331 0.579231
C15   C     C_3   0.451786 0.202661 0.802393 0.218880
O23   O     O_2   0.465739 0.180191 0.540460 -0.373839
O24   O     O_3   0.500671 0.198877 0.715572 -0.521065
H23   H     H_    0.321295 0.066733 0.788475 0.147862
C16   C     C_3   0.435269 0.105539 0.823757 -0.766760
H24   H     H_    0.524661 0.072275 0.794131 0.246101
C17   C     C_R   0.633367 0.834112 0.457180 0.096493
C18   C     C_R   0.894840 0.796796 0.524773 0.228494
C19   C     C_R   0.074930 0.226004 0.512248 -0.440259
C20   C     C_R   0.162309 0.175533 0.566121 0.295440
C21   C     C_R   0.089013 0.089693 0.573359 -0.183160
C22   C     C_R   0.936618 0.049744 0.517354 0.014257
C23   C     C_R   0.847344 0.107853 0.468557 -0.011586
C24   C     C_R   0.868412 0.955277 0.508510 0.100940
C25   C     C_R   0.700626 0.926981 0.469116 -0.059607
C26   C     C_R   0.612442 0.991395 0.434918 -0.168516
C27   C     C_R   0.692530 0.072395 0.420722 0.040428
C28   C     C_R   0.961192 0.887709 0.535174 -0.293655
C29   C     C_R   0.735152 0.773622 0.482713 -0.426867
C30   C     C_R   0.914251 0.200365 0.471399 0.271325
H25   H     H_    0.087610 0.902501 0.560799 0.168005
H26   H     H_    0.135541 0.285148 0.497628 0.134904
C31   C     C_R   0.235590 0.476598 0.769535 -0.375045
C32   C     C_R   0.139022 0.443783 0.827573 0.199079
C33   C     C_R   0.202746 0.454612 0.921199 -0.270256
C34   C     C_R   0.357147 0.504558 0.958678 0.132140
C35   C     C_R   0.439016 0.549433 0.898546 -0.054841
C36   C     C_R   0.391036 0.524770 0.803585 0.214643
C37   C     C_R   0.600462 0.535102 0.088617 -0.305599
C38   C     C_R   0.673513 0.538545 0.179232 0.266151
C39   C     C_R   0.420277 0.475848 0.212575 0.290699
C40   C     C_R   0.343941 0.481558 0.123515 -0.327122
C41   C     C_R   0.433344 0.508428 0.058246 0.070505
C42   C     C_R   0.588000 0.499596 0.238684 -0.252809
H27   H     H_    0.678470 0.551673 0.042805 0.175882
H28   H     H_    0.129442 0.423716 0.963300 0.138289
H29   H     H_    0.215806 0.462175 0.106009 0.178312
N1    N     N_3   0.638846 0.147631 0.153514 -0.113026
H30   H     H_    0.679010 0.172517 0.098913 0.253814
H31   H     H_    0.573018 0.084501 0.129297 0.181122
N2    N     N_3   0.208570 0.659766 0.761570 -0.240842
H32   H     H_    0.299103 0.704885 0.805378 0.177913
H33   H     H_    0.239585 0.656986 0.697809 0.160853
C43   C     C_2   0.042622 0.664478 0.917097 1.016999
O25   O     O_2   0.923796 0.608498 0.906903 -0.603167
O26   O     O_R   0.173356 0.664084 0.985882 -0.837456
H34   H     H_    0.151088 0.618014 0.026246 0.332290
C44   C     C_2   0.917197 0.787713 0.859500 1.117570
O27   O     O_2   0.908625 0.848083 0.814844 -0.607722
O28   O     O_R   0.815594 0.774765 0.921112 -0.816704
H35   H     H_    0.750953 0.823898 0.929581 0.336150
N3    N     N_3   0.206920 0.855733 0.109577 -0.168363
H36   H     H_    0.182483 0.894452 0.165913 0.234777
H37   H     H_    0.111732 0.803763 0.085700 0.182150
C45   C     C_2   0.077699 0.152654 0.192654 1.322596
O29   O     O_2   0.978530 0.193539 0.156987 -0.624940
O30   O     O_R   0.134073 0.087465 0.139793 -0.805987
H38   H     H_    0.079839 0.078467 0.073281 0.339554
N4    N     N_3   0.454968 0.703407 0.213022 -0.232262
H39   H     H_    0.557713 0.734472 0.257904 0.115021
H40   H     H_    0.412458 0.645593 0.235666 0.145235
C46   C     C_2   0.541841 0.874855 0.802366 1.140615
O31   O     O_2   0.656724 0.934564 0.820457 -0.615513
O32   O     O_R   0.460415 0.851796 0.870654 -0.824719
H41   H     H_    0.509699 0.887363 0.932745 0.334574
N5    N     N_3   0.516180 0.886216 0.640041 -0.182296
H42   H     H_    0.640112 0.905045 0.648469 0.185863
H43   H     H_    0.467068 0.943396 0.654098 0.173186
C47   C     C_2   0.790932 0.169481 0.686889 1.063912
O33   O     O_2   0.769078 0.213187 0.625688 -0.568884
O34   O     O_R   0.715652 0.081512 0.673965 -0.817645
H44   H     H_    0.640795 0.063629 0.612865 0.338493
N6    N     N_3   0.968407 0.068412 0.818085 -0.157243
H45   H     H_    0.961197 0.027501 0.867815 0.233854
H46   H     H_    0.089697 0.088450 0.820996 0.167327
C48   C     C_2   0.306714 0.243341 0.811823 0.822285
O35   O     O_2   0.264462 0.295151 0.761882 -0.653684
O36   O     O_R   0.249137 0.240154 0.892585 -0.800550
H47   H     H_    0.174065 0.283504 0.902538 0.322992
C49   C     C_2   0.578724 0.266411 0.872887 1.068500
O37   O     O_2   0.595167 0.345456 0.867560 -0.576632
O38   O     O_R   0.671133 0.238601 0.946268 -0.830441
H48   H     H_    0.747629 0.289119 0.988048 0.338309
C50   C     C_2   0.446949 0.089728 0.920685 1.171576
O39   O     O_2   0.562430 0.060456 0.957243 -0.639753
O40   O     O_R   0.320173 0.100038 0.965479 -0.782755
H49   H     H_    0.336001 0.078751 0.026562 0.323435
N7    N     N_3   0.024010 0.821693 0.280152 -0.174405
H50   H     H_    0.073435 0.782210 0.324975 0.196363
H51   H     H_    0.990787 0.872295 0.322165 0.093685
C51   C     C_2   0.675174 0.682034 0.455302 1.066777
O41   O     O_2   0.663119 0.651231 0.375889 -0.717405
O42   O     O_R   0.607812 0.635209 0.515377 -0.787008
H52   H     H_    0.530309 0.581933 0.482227 0.385585
C52   C     C_2   0.435920 0.983374 0.418832 1.127889
O43   O     O_2   0.359037 0.984118 0.342755 -0.651167
O44   O     O_R   0.359423 0.986742 0.492741 -0.814709
H53   H     H_    0.240004 0.983915 0.472448 0.316976
N8    N     N_3   0.159597 0.051476 0.647952 -0.234227
H54   H     H_    0.074537 0.010447 0.671846 0.144765
H55   H     H_    0.251208 0.019140 0.630975 0.160395
N9    N     N_3   0.617907 0.115271 0.350833 -0.162705
H56   H     H_    0.512428 0.133171 0.367051 0.140253
H57   H     H_    0.589295 0.069963 0.290653 0.190938
N10   N     N_3   0.541743 0.633010 0.930277 -0.167093
H58   H     H_    0.527599 0.660994 0.994567 0.135720
H59   H     H_    0.659581 0.624340 0.931041 0.222662
N11   N     N_3   0.673157 0.468779 0.316373 -0.191360
H60   H     H_    0.787880 0.459191 0.307901 0.161351
H61   H     H_    0.683425 0.510020 0.377282 0.219551
C53   C     C_2   0.165223 0.468373 0.673391 1.091998
O45   O     O_2   0.070320 0.515417 0.646913 -0.621293
O46   O     O_R   0.202734 0.404862 0.612469 -0.747835
H62   H     H_    0.173520 0.417293 0.548473 0.332611
C54   C     C_2   0.793092 0.912690 0.186339 1.080716
O47   O     O_2   0.846620 0.970426 0.146577 -0.587495
O48   O     O_R   0.727198 0.936312 0.261959 -0.810793
H63   H     H_    0.681602 0.883009 0.287156 0.279328

loop_
_geom_bond_atom_site_label_1
_geom_bond_atom_site_label_2
_geom_bond_distance
_ccdc_geom_bond_type
C13   C14   1.547338 S    
O44   H53   1.012490 S    
C16   H24   1.106436 S    
C35   C36   1.407575 A    
C1    C10   1.544518 S    
C43   O26   1.392854 S    
O42   H52   1.000052 S    
O2    Ba2   2.923133 S    
C45   O29   1.221513 D    
P4    O13   1.631367 S    
N10   H58   1.044660 S    
C15   C48   1.492017 S    
C47   O34   1.396625 S    
O17   Ba2   2.816439 S    
C40   H29   1.077539 S    
C33   C34   1.422530 A    
Ba2   O21   2.860539 S    
N9    H57   1.043213 S    
C6    N2    1.450404 S    
C9    H13   1.106920 S    
C52   O44   1.388446 S    
C49   O38   1.397384 S    
C2    H3    1.100013 S    
N2    H33   1.039286 S    
C51   O41   1.212919 D    
C45   O30   1.396309 S    
N9    H56   1.042900 S    
C42   N11   1.441613 S    
O12   Ba2   2.925678 S    
O46   H62   1.004526 S    
Ba1   O13   2.922459 S    
C8    C9    1.537084 S    
C44   O27   1.221345 D    
P2    C39   1.846863 S    
P1    O1    1.573320 D    
Ba1   Ba2   4.749347 S    
C15   O24   1.440260 S    
O28   H35   1.008903 S    
C32   C33   1.403694 A    
C31   C36   1.412194 A    
C52   O43   1.223711 D    
C25   C26   1.426682 A    
C19   C30   1.391779 A    
P5    O17   1.761820 S    
O32   H41   1.013088 S    
C14   H22   1.110646 S    
C4    C5    1.529306 S    
C31   C53   1.454164 S    
P3    O11   1.750573 S    
P1    Ba1   3.484970 S    
C7    C43   1.509154 S    
C51   O42   1.383502 S    
O7    Ba1   2.860337 S    
C15   C16   1.567370 S    
C1    H2    1.107460 S    
P3    C38   1.843893 S    
P2    O20   1.575314 S    
P5    O18   1.539607 D    
N11   H61   1.032310 S    
P6    C17   1.916569 S    
P7    O21   1.590569 D    
O14   P8    1.764231 S    
C13   C47   1.496342 S    
C21   N8    1.419723 S    
C1    H15   1.108499 S    
P4    C30   1.952166 S    
C33   H28   1.077818 S    
O13   Ba2   3.005642 S    
C43   O25   1.217945 D    
O3    Ba1   2.878626 S    
N3    H37   1.042682 S    
C5    N1    1.458061 S    
C37   C38   1.393420 A    
N10   H59   1.038415 S    
P8    C20   1.902706 S    
C19   H26   1.056035 S    
C11   H17   1.104788 S    
Ba1   O16   2.828156 S    
P7    O22   1.763872 S    
P1    O5    1.773623 S    
C12   C46   1.510746 S    
C9    C45   1.502672 S    
C8    H11   1.108270 S    
C26   C27   1.402925 A    
C34   C41   1.521629 S    
N8    H55   1.039970 S    
P4    O12   1.573529 D    
C20   C21   1.413687 A    
C22   C23   1.449298 A    
O19   C13   1.412189 S    
P4    O15   1.772366 S    
C5    H7    1.106308 S    
C19   C20   1.394683 A    
C21   C22   1.439499 A    
O3    P6    1.776620 S    
P1    O2    1.631346 S    
N6    H46   1.037684 S    
N7    H50   1.042796 S    
C46   O32   1.397674 S    
C54   O47   1.219207 D    
N4    H40   1.038919 S    
C6    H9    1.109106 S    
O10   C8    1.394394 S    
C54   O48   1.389618 S    
C14   N6    1.455718 S    
P2    O10   1.747245 S    
C4    O15   1.409666 S    
H1    C10   1.106024 S    
P3    O9    1.539627 D    
O16   Ba2   3.009752 S    
O34   H44   1.010458 S    
C39   C42   1.410530 A    
O11   C2    1.407836 S    
C49   O37   1.224576 D    
C18   C29   1.385828 A    
O40   H49   1.011155 S    
C37   H27   1.073116 S    
C26   C52   1.480002 S    
C3    C54   1.503482 S    
C48   O36   1.396473 S    
N11   H60   1.044191 S    
P4    Ba2   3.485479 S    
C50   O40   1.394968 S    
C14   H21   1.101673 S    
C16   C50   1.501961 S    
O30   H38   1.014118 S    
C4    H6    1.107017 S    
C12   N5    1.460492 S    
O2    Ba1   3.004686 S    
P7    C36   1.886338 S    
N4    H39   1.030671 S    
C18   C28   1.419557 A    
C7    C44   1.502272 S    
N8    H54   1.043270 S    
C2    N7    1.459176 S    
N3    H36   1.044809 S    
O36   H47   1.007517 S    
C17   C29   1.410185 A    
C15   C49   1.525448 S    
C11   H16   1.110660 S    
O16   P7    1.775053 S    
C3    H4    1.105793 S    
O38   H48   1.014181 S    
P1    C18   1.945218 S    
C7    H10   1.112074 S    
O6    P6    1.765923 S    
P3    O8    1.765524 S    
H23   C16   1.085801 S    
C28   H25   1.070712 S    
P5    C32   1.877858 S    
N5    H43   1.044106 S    
Ba1   O20   3.010569 S    
O26   H34   1.013749 S    
N5    H42   1.046054 S    
C11   O22   1.406117 S    
C53   O45   1.215980 D    
C5    H8    1.113993 S    
C47   O33   1.215779 D    
O48   H63   1.009440 S    
C27   N9    1.422573 S    
C39   C40   1.408955 A    
C48   O35   1.216543 D    
C10   N4    1.453772 S    
N7    H51   1.045394 S    
C46   O31   1.221579 D    
C35   N10   1.434644 S    
O6    C10   1.416868 S    
C6    C7    1.556238 S    
C38   C42   1.396970 A    
N6    H45   1.045367 S    
C24   C28   1.453945 A    
P2    O7    1.564742 D    
C17   C25   1.447460 A    
C12   H18   1.107142 S    
N1    H31   1.044299 S    
P2    Ba1   3.460982 S    
C29   C51   1.419640 S    
P8    O24   1.785868 S    
Ba2   O20   2.827427 S    
C9    H14   1.108099 S    
C40   C41   1.418308 A    
C8    H12   1.110947 S    
C22   C24   1.476296 A    
C44   O28   1.395688 S    
C2    C3    1.543506 S    
C3    H19   1.107276 S    
C34   C35   1.430554 A    
O4    P6    1.539972 D    
C37   C41   1.415863 A    
C23   C30   1.457786 A    
O14   Ba2   2.877936 S    
C13   H20   1.076785 S    
O5    C6    1.399168 S    
C50   O39   1.221665 D    
P8    O23   1.545995 D    
C24   C25   1.445032 A    
N1    H30   1.043350 S    
C1    N3    1.458367 S    
C4    H5    1.101274 S    
O1    Ba1   2.925095 S    
O8    Ba1   2.815808 S    
N2    H32   1.040876 S    
C23   C27   1.399266 A    
C31   C32   1.400803 A    
P5    O19   1.762178 S    
C53   O46   1.368292 S    
C11   C12   1.544506 S    
