data_mof_unit_21829.cif
_audit_creation_date              2012-12-11T14:49:43-0500
_audit_creation_method            fapswitch 2.2
_symmetry_space_group_name_H-M    P1
_symmetry_Int_Tables_number       1
_space_group_crystal_system       triclinic
_cell_length_a                    10.943149
_cell_length_b                    10.943153
_cell_length_c                    18.959951
_cell_angle_alpha                 90.000016
_cell_angle_beta                  90.0
_cell_angle_gamma                 120.000141
_cell_volume                      1966.31009592

loop_
_atom_site_label
_atom_site_type_symbol
_atom_type_description
_atom_site_fract_x
_atom_site_fract_y
_atom_site_fract_z
_atom_type_partial_charge
Br1   Br    Br    0.747832 0.942853 0.435799 -0.373235
Br2   Br    Br    0.137499 0.793399 0.600032 -0.371239
Br3   Br    Br    0.206600 0.344094 0.899969 -0.371237
Br4   Br    Br    0.655909 0.862510 0.600029 -0.371238
Br5   Br    Br    0.195017 0.252171 0.064200 -0.373233
Br6   Br    Br    0.057162 0.804985 0.435801 -0.373236
Br7   Br    Br    0.747828 0.942845 0.064200 -0.373234
Br8   Br    Br    0.195018 0.252172 0.435799 -0.373231
Br9   Br    Br    0.057156 0.804983 0.064200 -0.373233
Br10  Br    Br    0.137495 0.793399 0.899969 -0.371237
Br11  Br    Br    0.206600 0.344093 0.600030 -0.371235
Br12  Br    Br    0.655903 0.862505 0.899969 -0.371238
C1    C     C_R   0.528987 0.467119 0.646236 0.580047
C2    C     C_R   0.463588 0.527799 0.354818 0.553902
C3    C     C_R   0.472201 0.935789 0.145182 0.553902
C4    C     C_R   0.064212 0.536412 0.354818 0.553901
C5    C     C_R   0.420690 0.052455 0.531969 -0.124814
C6    C     C_R   0.631766 0.579311 0.968030 -0.124814
C7    C     C_R   0.947545 0.368234 0.531970 -0.124814
C8    C     C_R   0.420690 0.052456 0.968031 -0.124814
C9    C     C_R   0.631765 0.579313 0.531970 -0.124815
C10   C     C_R   0.947545 0.368234 0.968030 -0.124814
C11   C     C_R   0.968909 0.382366 0.040414 -0.138733
C12   C     C_R   0.938132 0.471013 0.853764 0.580047
C13   C     C_R   0.617634 0.586545 0.459586 -0.138734
C14   C     C_R   0.413457 0.031092 0.040415 -0.138733
C15   C     C_R   0.968908 0.382366 0.459585 -0.138734
C16   C     C_R   0.617634 0.586543 0.040414 -0.138733
C17   C     C_R   0.413458 0.031092 0.459585 -0.138733
C18   C     C_R   0.495591 0.981444 0.428354 -0.013156
C19   C     C_R   0.485851 0.504410 0.071646 -0.013156
C20   C     C_R   0.018561 0.514149 0.428355 -0.013155
C21   C     C_R   0.495590 0.981441 0.071646 -0.013156
C22   C     C_R   0.485851 0.504411 0.428354 -0.013157
C23   C     C_R   0.532881 0.061868 0.646235 0.580048
C24   C     C_R   0.018560 0.514149 0.071646 -0.013156
C25   C     C_R   0.990968 0.488463 0.925481 0.017462
C26   C     C_R   0.511536 0.502505 0.574519 0.017461
C27   C     C_R   0.497495 0.009032 0.925481 0.017462
C28   C     C_R   0.990969 0.488463 0.574519 0.017462
C29   C     C_R   0.511537 0.502505 0.925481 0.017462
C30   C     C_R   0.497496 0.009033 0.574519 0.017462
C31   C     C_R   0.586689 0.953953 0.471020 0.159248
C32   C     C_R   0.367263 0.413314 0.028979 0.159248
C33   C     C_R   0.046055 0.632738 0.471022 0.159249
C34   C     C_R   0.528987 0.467119 0.853764 0.580047
C35   C     C_R   0.586686 0.953949 0.028979 0.159248
C36   C     C_R   0.367263 0.413314 0.471021 0.159248
C37   C     C_R   0.046052 0.632737 0.028979 0.159248
C38   C     C_R   0.051239 0.622572 0.956342 0.173318
C39   C     C_R   0.377428 0.428665 0.543657 0.173318
C40   C     C_R   0.571333 0.948762 0.956343 0.173318
C41   C     C_R   0.051241 0.622572 0.543658 0.173319
C42   C     C_R   0.377428 0.428666 0.956343 0.173318
C43   C     C_R   0.571337 0.948766 0.543657 0.173318
C44   C     C_R   0.938132 0.471013 0.646236 0.580048
C45   C     C_R   0.532881 0.061868 0.853764 0.580048
C46   C     C_R   0.463588 0.527799 0.145181 0.553902
C47   C     C_R   0.472201 0.935790 0.354818 0.553902
C48   C     C_R   0.064211 0.536412 0.145181 0.553901
Cr1   Cr    Cr6+3 0.776430 0.541680 0.750000 1.145348
Cr2   Cr    Cr6+3 0.765250 0.223570 0.750000 1.145349
Cr3   Cr    Cr6+3 0.458320 0.234750 0.750000 1.145349
Cr4   Cr    Cr6+3 0.541680 0.776430 0.250000 1.127304
Cr5   Cr    Cr6+3 0.223570 0.765250 0.250000 1.127304
Cr6   Cr    Cr6+3 0.234750 0.458320 0.250000 1.127305
H1    H     H_    0.366395 0.103135 0.554589 0.205450
H2    H     H_    0.942505 0.290255 0.427770 0.205484
H3    H     H_    0.709745 0.652253 0.072229 0.205484
H4    H     H_    0.347747 0.057493 0.427770 0.205485
H5    H     H_    0.736740 0.633604 0.945411 0.205449
H6    H     H_    0.896862 0.263260 0.554588 0.205449
H7    H     H_    0.366397 0.103137 0.945411 0.205449
H8    H     H_    0.736739 0.633607 0.554589 0.205450
H9    H     H_    0.896864 0.263260 0.945411 0.205449
H10   H     H_    0.942508 0.290255 0.072229 0.205484
H11   H     H_    0.709745 0.652256 0.427771 0.205484
H12   H     H_    0.347748 0.057494 0.072230 0.205484
O1    O     O_R   0.916700 0.566820 0.669930 -0.462942
O2    O     O_R   0.566820 0.916700 0.330070 -0.467414
O3    O     O_R   0.083300 0.650120 0.169930 -0.467413
O4    O     O_R   0.349880 0.433180 0.330070 -0.467413
O5    O     O_R   0.649840 0.534790 0.674920 -0.492389
O6    O     O_R   0.884950 0.350160 0.825080 -0.492389
O7    O     O_R   0.465210 0.115050 0.674920 -0.492388
O8    O     O_R   0.649840 0.534790 0.825080 -0.492389
O9    O     O_R   0.884950 0.350160 0.674920 -0.492389
O10   O     O_R   0.465210 0.115050 0.825080 -0.492388
O11   O     O_R   0.534790 0.649840 0.174920 -0.482702
O12   O     O_R   0.650120 0.083300 0.830070 -0.462942
O13   O     O_R   0.350160 0.884950 0.325080 -0.482701
O14   O     O_R   0.115050 0.465210 0.174920 -0.482702
O15   O     O_R   0.534790 0.649840 0.325080 -0.482703
O16   O     O_R   0.350160 0.884950 0.174920 -0.482702
O17   O     O_R   0.115050 0.465210 0.325080 -0.482702
O18   O     O_3   0.666667 0.333333 0.750000 -0.327465
O19   O     O_3   0.333333 0.666667 0.250000 -0.300236
O20   O     O_R   0.433180 0.349880 0.669930 -0.462942
O21   O     O_R   0.916700 0.566820 0.830070 -0.462942
O22   O     O_R   0.650120 0.083300 0.669930 -0.462942
O23   O     O_R   0.433180 0.349880 0.830070 -0.462942
O24   O     O_R   0.566820 0.916700 0.169930 -0.467414
O25   O     O_R   0.083300 0.650120 0.330070 -0.467414
O26   O     O_R   0.349880 0.433180 0.169930 -0.467414

loop_
_geom_bond_atom_site_label_1
_geom_bond_atom_site_label_2
_ccdc_geom_bond_type
Br6   C33   S    
Cr2   O18   S    
Cr3   O10   S    
C12   O21   A    
C5    C17   A    
C20   C33   A    
C16   H3    S    
C11   H10   S    
Cr3   O23   S    
C3    O16   A    
Cr1   O18   S    
Cr4   O24   S    
C14   H12   S    
C44   O1    A    
C13   H11   S    
Cr4   O11   S    
C19   C46   S    
Cr4   O15   S    
Cr3   O20   S    
Br3   C42   S    
C27   C45   S    
Cr2   O12   S    
C1    O20   A    
C37   C38   A    
C23   C30   S    
C5    C30   A    
Cr2   O6    S    
C15   H2    S    
C14   C21   A    
Br1   C31   S    
C36   C39   A    
C9    C26   A    
C28   C44   S    
C29   C34   S    
C7    C15   A    
C2    O15   A    
C13   C22   A    
C27   C40   A    
C33   C41   A    
Cr3   O7    S    
C45   O12   A    
Cr4   O2    S    
C7    H6    S    
Cr1   O21   S    
C10   H9    S    
Br12  C40   S    
C7    C28   A    
C48   O14   A    
C34   O23   A    
C5    H1    S    
C19   C32   A    
Cr6   O26   S    
Br9   C37   S    
Cr1   O5    S    
C6    C29   A    
C8    C27   A    
C44   O9    A    
Cr6   O14   S    
C26   C39   A    
C10   C25   A    
C9    H8    S    
Br7   C35   S    
Br8   C36   S    
C17   C18   A    
C30   C43   A    
Cr6   O4    S    
C48   O3    A    
C4    O25   A    
Cr5   O3    S    
C18   C47   S    
C12   C25   S    
C6    C16   A    
C47   O13   A    
C1    C26   S    
Cr2   O22   S    
C31   C43   A    
Cr4   O19   S    
Br5   C32   S    
C11   C24   A    
Br4   C43   S    
C21   C35   A    
C18   C31   A    
C46   O26   A    
Cr5   O25   S    
C23   O22   A    
Br10  C38   S    
Cr6   O19   S    
C17   H4    S    
C6    H5    S    
Cr5   O13   S    
C9    C13   A    
Cr5   O16   S    
C4    O17   A    
C15   C20   A    
C16   C19   A    
C24   C48   S    
Br2   C41   S    
C47   O2    A    
C2    C22   S    
C35   C40   A    
C4    C20   S    
Cr2   O9    S    
C1    O5    A    
C45   O10   A    
C12   O6    A    
Cr5   O19   S    
C25   C38   A    
C23   O7    A    
C8    C14   A    
Cr1   O1    S    
Cr3   O18   S    
C8    H7    S    
C3    O24   A    
C46   O11   A    
C29   C42   A    
Br11  C39   S    
Cr1   O8    S    
C32   C42   A    
C22   C36   A    
C28   C41   A    
C2    O4    A    
C10   C11   A    
C3    C21   S    
C24   C37   A    
Cr6   O17   S    
C34   O8    A    
