data_mof_unit_24499.cif
_audit_creation_date              2012-12-11T15:49:02-0500
_audit_creation_method            fapswitch 2.2
_symmetry_space_group_name_H-M    P1
_symmetry_Int_Tables_number       1
_space_group_crystal_system       triclinic
_cell_length_a                    21.637876
_cell_length_b                    7.182546
_cell_length_c                    14.907563
_cell_angle_alpha                 89.541774
_cell_angle_beta                  106.418601
_cell_angle_gamma                 89.867216
_cell_volume                      2222.28682247

loop_
_atom_site_label
_atom_site_type_symbol
_atom_type_description
_atom_site_fract_x
_atom_site_fract_y
_atom_site_fract_z
_atom_type_partial_charge
O1    O     O_R   0.335860 0.638190 0.002110 -0.540811
O2    O     O_R   0.664140 0.361810 0.997890 -0.540812
O3    O     O_R   0.164140 0.138190 0.997890 -0.541251
O4    O     O_R   0.835860 0.861810 0.002110 -0.541251
O5    O     O_R   0.217530 0.305920 0.861960 -0.537625
O6    O     O_R   0.782470 0.694080 0.138040 -0.537625
O7    O     O_R   0.282470 0.805920 0.138040 -0.537794
O8    O     O_R   0.717530 0.194080 0.861960 -0.537794
C1    C     C_R   0.205816 0.477678 0.825976 0.680895
C2    C     C_R   0.794184 0.522322 0.174024 0.680894
C3    C     C_R   0.294266 0.975802 0.174151 0.680894
C4    C     C_R   0.705733 0.024198 0.825848 0.680893
O9    O     O_R   0.338690 0.308320 0.993240 -0.544570
O10   O     O_R   0.661310 0.691680 0.006760 -0.544570
O11   O     O_R   0.161310 0.808320 0.006760 -0.544315
O12   O     O_R   0.838690 0.191680 0.993240 -0.544315
O13   O     O_R   0.286170 0.140430 0.130100 -0.535912
O14   O     O_R   0.713830 0.859570 0.869900 -0.535911
O15   O     O_R   0.213830 0.640430 0.869900 -0.535410
O16   O     O_R   0.786170 0.359570 0.130100 -0.535410
C5    C     C_R   0.364978 0.477106 0.997810 0.671469
C6    C     C_R   0.635022 0.522894 0.002190 0.671468
C7    C     C_R   0.135019 0.977356 0.002184 0.672490
C8    C     C_R   0.864981 0.022644 0.997815 0.672491
O17   O     O_3   0.232630 0.472410 0.044750 -0.375883
O18   O     O_3   0.767370 0.527590 0.955250 -0.375882
O19   O     O_3   0.267370 0.972410 0.955250 -0.375741
O20   O     O_3   0.732630 0.027590 0.044750 -0.375741
V1    V     V_3+5 0.253220 0.196620 0.991700 1.412814
V2    V     V_3+5 0.746780 0.803380 0.008300 1.412814
V3    V     V_3+5 0.246780 0.696620 0.008300 1.414180
V4    V     V_3+5 0.753220 0.303380 0.991700 1.414181
C9    C     C_R   0.030329 0.826488 0.005109 -0.160390
C10   C     C_R   0.969671 0.173512 0.994891 -0.160390
C11   C     C_R   0.470263 0.326357 0.996428 -0.162009
C12   C     C_R   0.529737 0.673643 0.003572 -0.162010
H1    H     H_    0.052483 0.690204 0.008944 0.118322
H2    H     H_    0.947517 0.309796 0.991055 0.118322
H3    H     H_    0.448593 0.190030 0.993862 0.117906
H4    H     H_    0.551407 0.809970 0.006138 0.117906
C13   C     C_R   0.965376 0.837717 0.003547 -0.153853
C14   C     C_R   0.034624 0.162283 0.996453 -0.153853
C15   C     C_R   0.535208 0.337875 0.998027 -0.151921
C16   C     C_R   0.464792 0.662125 0.001973 -0.151921
H5    H     H_    0.939827 0.709399 0.006514 0.120450
H6    H     H_    0.060173 0.290601 0.993486 0.120449
H7    H     H_    0.561223 0.209583 0.996351 0.121110
H8    H     H_    0.438777 0.790417 0.003649 0.121110
C17   C     C_R   0.934022 0.011413 0.998384 -0.038953
C18   C     C_R   0.065978 0.988586 0.001615 -0.038953
C19   C     C_R   0.565979 0.511713 0.001648 -0.039413
C20   C     C_R   0.434021 0.488287 0.998352 -0.039413
C21   C     C_R   0.677871 0.021207 0.724452 -0.027336
C22   C     C_R   0.322128 0.978790 0.275548 -0.027342
C23   C     C_R   0.822232 0.510101 0.275131 -0.024543
C24   C     C_R   0.177768 0.489900 0.724869 -0.024544
C25   C     C_R   0.687345 0.084867 0.569791 -0.162647
C26   C     C_R   0.312657 0.915079 0.430207 -0.162643
C27   C     C_R   0.811078 0.449067 0.429020 -0.161834
C28   C     C_R   0.188922 0.550945 0.570981 -0.161831
C29   C     C_R   0.715463 0.069439 0.665764 -0.170107
C30   C     C_R   0.284538 0.930520 0.334234 -0.170100
C31   C     C_R   0.783384 0.471051 0.333224 -0.172604
C32   C     C_R   0.216616 0.528958 0.666776 -0.172601
C33   C     C_R   0.611883 0.989073 0.687226 -0.211240
C34   C     C_R   0.388115 0.010941 0.312776 -0.211243
C35   C     C_R   0.888891 0.526864 0.312548 -0.210083
C36   C     C_R   0.111109 0.473134 0.687451 -0.210084
C37   C     C_R   0.581529 0.009061 0.590060 0.082629
C38   C     C_R   0.418470 0.990927 0.409940 0.082627
C39   C     C_R   0.918578 0.502772 0.409578 0.083026
C40   C     C_R   0.081422 0.497233 0.590422 0.083025
C41   C     C_R   0.620893 0.057123 0.531682 0.140429
C42   C     C_R   0.379107 0.942840 0.468317 0.140430
C43   C     C_R   0.878073 0.463502 0.467480 0.140248
C44   C     C_R   0.121927 0.536508 0.532520 0.140248
C45   C     C_R   0.513610 0.986851 0.549339 0.058492
C46   C     C_R   0.486390 0.013133 0.450661 0.058493
C47   C     C_R   0.986794 0.514191 0.450683 0.058385
C48   C     C_R   0.013206 0.485816 0.549317 0.058386
C49   C     C_R   0.528021 0.059685 0.395997 -0.187008
C50   C     C_R   0.471979 0.940283 0.604002 -0.187010
C51   C     C_R   0.970537 0.447456 0.603510 -0.186471
C52   C     C_R   0.029463 0.552556 0.396490 -0.186472
C53   C     C_R   0.593734 0.080546 0.435853 -0.201209
C54   C     C_R   0.406267 0.919407 0.564145 -0.201206
C55   C     C_R   0.904532 0.437011 0.563243 -0.201250
C56   C     C_R   0.095468 0.563003 0.436758 -0.201248
H9    H     H_    0.623609 0.117309 0.391026 0.123045
H10   H     H_    0.376393 0.882623 0.608971 0.123044
H11   H     H_    0.873820 0.406762 0.607736 0.122387
H12   H     H_    0.126180 0.593258 0.392265 0.122386
H13   H     H_    0.414321 0.044620 0.263265 0.096033
H14   H     H_    0.585675 0.955431 0.736739 0.096029
H15   H     H_    0.084144 0.444737 0.736619 0.093749
H16   H     H_    0.915856 0.555252 0.263379 0.093748
H17   H     H_    0.233575 0.902878 0.305534 0.105721
H18   H     H_    0.766427 0.097063 0.694463 0.105721
H19   H     H_    0.268241 0.543671 0.695730 0.104875
H20   H     H_    0.731758 0.456340 0.304271 0.104876
H21   H     H_    0.717391 0.122537 0.525389 0.112671
H22   H     H_    0.282611 0.877383 0.474608 0.112663
H23   H     H_    0.780127 0.418575 0.473089 0.112711
H24   H     H_    0.219873 0.581442 0.526912 0.112705
H25   H     H_    0.511559 0.082139 0.321588 0.123600
H26   H     H_    0.488443 0.917814 0.678410 0.123602
H27   H     H_    0.986348 0.423988 0.677874 0.123659
H28   H     H_    0.013652 0.576031 0.322127 0.123659

loop_
_geom_bond_atom_site_label_1
_geom_bond_atom_site_label_2
_ccdc_geom_bond_type
O17   V3    S    
C51   C55   A    
C26   C30   A    
C55   H11   S    
O19   V1    S    
O13   V1    S    
C37   C45   A    
C29   H18   S    
C10   C14   A    
C40   C44   A    
O15   V3    S    
C39   C47   A    
C45   C46   A    
O1    C5    A    
O9    V1    S    
C47   C52   A    
O4    C8    A    
C38   C46   A    
O1    V3    S    
O2    V4    S    
C14   H6    S    
C25   C41   A    
O3    V1    S    
O3    C7    A    
C38   C42   A    
C21   C29   A    
C1    O15   A    
C32   H19   S    
C56   H12   S    
C2    O16   A    
C23   C31   A    
O2    C6    A    
C24   C32   A    
C37   C41   A    
C26   H22   S    
C11   C15   A    
C44   C56   A    
C4    C21   S    
C36   C40   A    
C16   C20   A    
O11   C7    A    
O12   C8    A    
O10   V2    S    
C48   C51   A    
C13   C17   A    
O5    V1    S    
C49   H25   S    
C36   H15   S    
O7    V3    S    
O8    V4    S    
C12   H4    S    
C54   H10   S    
C53   H9    S    
O18   V4    S    
C7    C18   S    
C22   C30   A    
C9    C18   A    
C50   C54   A    
C28   C44   A    
C9    H1    S    
O7    C3    A    
O5    C1    A    
C31   H20   S    
C30   H17   S    
O8    C4    A    
O9    C5    A    
C1    C24   S    
C42   C54   A    
C25   C29   A    
C2    C23   S    
C3    C22   S    
C41   C53   A    
C12   C19   A    
C14   C18   A    
C34   H13   S    
O14   V2    S    
C43   C55   A    
C33   H14   S    
O6    V2    S    
C35   H16   S    
C12   C16   A    
C27   C43   A    
C21   C33   A    
C26   C42   A    
O16   V4    S    
C8    C17   S    
C3    O13   A    
C10   C17   A    
C10   H2    S    
C52   C56   A    
O6    C2    A    
C23   C35   A    
O11   V3    S    
C22   C34   A    
O12   V4    S    
C25   H21   S    
C27   C31   A    
C28   C32   A    
C9    C13   A    
O10   C6    A    
O20   V2    S    
C27   H23   S    
C40   C48   A    
C24   C36   A    
C39   C43   A    
C46   C49   A    
C15   C19   A    
C34   C38   A    
C45   C50   A    
C33   C37   A    
C11   H3    S    
C52   H28   S    
C51   H27   S    
C35   C39   A    
C50   H26   S    
O4    V2    S    
C47   C48   A    
C4    O14   A    
C11   C20   A    
C13   H5    S    
C28   H24   S    
C15   H7    S    
C5    C20   S    
C49   C53   A    
C16   H8    S    
C6    C19   S    
