data_mof_unit_7785.cif
_audit_creation_date              2012-10-26T18:49:51-0400
_audit_creation_method            fapswitch 2.2
_symmetry_space_group_name_H-M    P1
_symmetry_Int_Tables_number       1
_space_group_crystal_system       triclinic
_cell_length_a                    10.801589
_cell_length_b                    12.996404
_cell_length_c                    11.619972
_cell_angle_alpha                 99.944527
_cell_angle_beta                  94.950693
_cell_angle_gamma                 89.865582
_cell_volume                      1600.59893978

loop_
_atom_site_label
_atom_site_type_symbol
_atom_type_description
_atom_site_fract_x
_atom_site_fract_y
_atom_site_fract_z
_atom_type_partial_charge
C1    C     C_R   0.498645 0.298894 0.478522 0.550527
C2    C     C_R   0.504673 0.860608 0.433730 -0.133501
C3    C     C_R   0.500251 0.031321 0.555915 0.047914
C4    C     C_R   0.503300 0.968638 0.443947 0.048906
C5    C     C_R   0.371848 0.409845 0.019588 0.203158
C6    C     C_R   0.624763 0.591211 0.980058 0.201691
C7    C     C_R   0.385780 0.419241 0.143850 0.017859
C8    C     C_R   0.612510 0.582170 0.856977 0.036968
C9    C     C_R   0.555792 0.536696 0.157965 0.029338
C10   C     C_R   0.443873 0.463159 0.841836 0.036342
C11   C     C_R   0.545633 0.532133 0.034943 -0.036115
C12   C     C_R   0.501967 0.701096 0.521447 0.552201
C13   C     C_R   0.452867 0.467936 0.965232 -0.024020
C14   C     C_R   0.261952 0.512274 0.500237 0.546425
C15   C     C_R   0.737475 0.486151 0.499597 0.545612
C16   C     C_R   0.133034 0.585691 0.713697 -0.075701
C17   C     C_R   0.865477 0.405805 0.287387 -0.061866
C18   C     C_R   0.087985 0.578766 0.821543 0.044784
C19   C     C_R   0.911253 0.408837 0.178418 0.036644
C20   C     C_R   0.978353 0.522366 0.822351 -0.093767
C21   C     C_R   0.020903 0.464962 0.176845 -0.125727
C22   C     C_R   0.909324 0.482353 0.717327 -0.111162
C23   C     C_R   0.502630 0.814443 0.533869 0.000701
C24   C     C_R   0.089188 0.508268 0.281162 -0.111741
C25   C     C_R   0.949291 0.496617 0.608136 0.006747
C26   C     C_R   0.049549 0.496588 0.391269 0.006572
C27   C     C_R   0.070267 0.535618 0.606585 -0.004538
C28   C     C_R   0.928562 0.457884 0.393356 -0.008022
C29   C     C_R   0.873460 0.471590 0.500896 -0.043709
C30   C     C_R   0.125341 0.523583 0.498765 -0.041114
C31   C     C_3   0.244419 0.260874 0.989833 -0.025762
C32   C     C_3   0.173814 0.187389 0.889775 -0.369564
C33   C     C_3   0.672883 0.757256 0.068701 -0.026690
C34   C     C_R   0.499493 0.185537 0.466004 0.000007
C35   C     C_3   0.765753 0.824522 0.155490 -0.373831
C36   C     C_3   0.159955 0.626853 0.935161 -0.277776
C37   C     C_3   0.085947 0.712057 0.005520 -0.453626
C38   C     C_3   0.845083 0.358257 0.061879 -0.276677
C39   C     C_3   0.736460 0.285053 0.069303 -0.451617
C40   C     C_R   0.504498 0.014937 0.343950 -0.143069
C41   C     C_R   0.499012 0.985075 0.655928 -0.142552
C42   C     C_R   0.502464 0.123083 0.354904 -0.142319
C43   C     C_R   0.500287 0.876954 0.644971 -0.140530
C44   C     C_R   0.498375 0.139319 0.566138 -0.132432
Cu1   Cu    Cu3+1 0.509250 0.507730 0.615930 0.912617
Cu2   Cu    Cu3+1 0.490750 0.492270 0.384070 0.906977
H1    H     H_    0.055345 0.473221 0.094194 0.116557
H2    H     H_    0.503729 0.157715 0.276631 0.120336
H3    H     H_    0.506906 0.967665 0.257664 0.092362
H4    H     H_    0.496702 0.032368 0.742214 0.097745
H5    H     H_    0.374136 0.413764 0.786363 0.186496
H6    H     H_    0.626239 0.585712 0.212938 0.179187
H7    H     H_    0.674842 0.625869 0.814822 0.142874
H8    H     H_    0.322930 0.379048 0.188913 0.126262
H9    H     H_    0.182589 0.278976 0.062194 0.130856
H10   H     H_    0.328942 0.219769 0.019448 0.118508
H11   H     H_    0.233067 0.166931 0.815804 0.156277
H12   H     H_    0.944929 0.510958 0.904392 0.115850
H13   H     H_    0.147567 0.114696 0.920310 0.091671
H14   H     H_    0.088061 0.225439 0.858739 0.157486
H15   H     H_    0.582178 0.760202 0.108382 0.116504
H16   H     H_    0.661802 0.790918 0.986583 0.124762
H17   H     H_    0.856724 0.825997 0.118002 0.152929
H18   H     H_    0.731068 0.905635 0.175007 0.092913
H19   H     H_    0.778294 0.792623 0.238428 0.161868
H20   H     H_    0.059849 0.773548 0.952653 0.154287
H21   H     H_    0.000544 0.678601 0.032131 0.182998
H22   H     H_    0.143492 0.748283 0.086078 0.132820
H23   H     H_    0.216574 0.631572 0.714077 0.128656
H24   H     H_    0.183217 0.565208 0.988328 0.167106
H25   H     H_    0.249284 0.661488 0.918366 0.134646
H26   H     H_    0.767922 0.221684 0.117581 0.141591
H27   H     H_    0.660186 0.328844 0.112980 0.164255
H28   H     H_    0.699180 0.248995 0.979353 0.136403
H29   H     H_    0.810196 0.420736 0.013758 0.163088
H30   H     H_    0.913764 0.312239 0.008898 0.136439
H31   H     H_    0.781729 0.361617 0.290542 0.136288
H32   H     H_    0.827251 0.436744 0.722980 0.138747
H33   H     H_    0.170415 0.554143 0.273713 0.143437
H34   H     H_    0.507150 0.812706 0.347712 0.114904
H35   H     H_    0.495814 0.187171 0.652166 0.121955
H36   H     H_    0.498699 0.842384 0.723252 0.120960
N1    N     N_R   0.523180 0.519350 0.790130 -0.281977
N2    N     N_R   0.476820 0.480650 0.209870 -0.276906
O1    O     O_R   0.506570 0.354460 0.582000 -0.507604
O2    O     O_3   0.717515 0.654198 0.045495 -0.588202
O3    O     O_R   0.493430 0.645540 0.418000 -0.508056
O4    O     O_R   0.490940 0.341410 0.386200 -0.511457
O5    O     O_R   0.509060 0.658590 0.613800 -0.510203
O6    O     O_R   0.327470 0.506520 0.597900 -0.505989
O7    O     O_R   0.672530 0.493480 0.402100 -0.506055
O8    O     O_R   0.311840 0.493460 0.402100 -0.509945
O9    O     O_R   0.688160 0.506540 0.597900 -0.507998
O10   O     O_3   0.274963 0.353415 0.949704 -0.590189

loop_
_geom_bond_atom_site_label_1
_geom_bond_atom_site_label_2
_ccdc_geom_bond_type
C8    N1    A    
Cu1   O1    S    
C34   C42   A    
Cu1   O9    S    
C5    O10   S    
C38   H30   S    
Cu1   Cu2   S    
C12   C23   S    
C36   C37   S    
C19   C21   A    
C24   C26   A    
C38   C39   S    
Cu2   O8    S    
C35   H19   S    
C40   H3    S    
C37   H22   S    
C10   N1    A    
C23   C43   A    
C39   H28   S    
C14   O6    A    
C17   C19   A    
C3    C41   A    
C4    C40   A    
C33   H16   S    
C22   C25   A    
C39   H26   S    
C35   H18   S    
C31   H10   S    
Cu1   O5    S    
C5    C13   A    
C36   H25   S    
C1    O4    A    
C40   C42   A    
C7    N2    A    
C27   C30   A    
C25   C29   A    
C41   C43   A    
Cu1   N1    S    
C9    H6    S    
C32   H11   S    
C14   C30   S    
C10   H5    S    
C32   H13   S    
C36   H24   S    
C1    C34   S    
C15   C29   S    
Cu2   O4    S    
C38   H29   S    
C1    O1    A    
C3    C44   A    
C12   O5    A    
C34   C44   A    
C22   H32   S    
C44   H35   S    
C6    C11   A    
C5    C7    A    
C6    C8    A    
Cu2   O7    S    
C2    C4    A    
C33   O2    S    
C19   C38   S    
C24   H33   S    
C31   C32   S    
C37   H20   S    
C17   H31   S    
C42   H2    S    
Cu1   O6    S    
C9    C11   A    
C14   O8    A    
Cu2   N2    S    
C16   C18   A    
C20   C22   A    
C26   C30   A    
C32   H14   S    
C20   H12   S    
C3    C4    A    
C41   H4    S    
Cu2   O3    S    
C28   C29   A    
C12   O3    A    
C17   C28   A    
C16   H23   S    
C10   C13   A    
C8    H7    S    
C15   O9    A    
C25   C27   A    
C31   O10   S    
C26   C28   A    
C6    O2    S    
C11   C13   A    
C16   C27   A    
C37   H21   S    
C33   C35   S    
C18   C20   A    
C39   H27   S    
C2    H34   S    
C9    N2    A    
C15   O7    A    
C33   H15   S    
C21   C24   A    
C2    C23   A    
C43   H36   S    
C35   H17   S    
C7    H8    S    
C31   H9    S    
C18   C36   S    
C21   H1    S    
