data_mof_unit_14033.cif
_audit_creation_date              2012-12-11T15:06:49-0500
_audit_creation_method            fapswitch 2.2
_symmetry_space_group_name_H-M    P1
_symmetry_Int_Tables_number       1
_space_group_crystal_system       triclinic
_cell_length_a                    19.841293
_cell_length_b                    11.442923
_cell_length_c                    18.728943
_cell_angle_alpha                 89.998812
_cell_angle_beta                  89.892246
_cell_angle_gamma                 89.999732
_cell_volume                      4252.25642295

loop_
_atom_site_label
_atom_site_type_symbol
_atom_type_description
_atom_site_fract_x
_atom_site_fract_y
_atom_site_fract_z
_atom_type_partial_charge
C1    C     C_R   0.761303 0.525589 0.640022 0.530661
C2    C     C_R   0.238695 0.525586 0.359979 0.530672
C3    C     C_R   0.261982 0.021292 0.638540 0.533906
C4    C     C_R   0.738013 0.021285 0.361463 0.533985
C5    C     C_3   0.813823 0.121525 0.451840 -0.136407
C6    C     C_3   0.186139 0.121459 0.548159 -0.136406
C7    C     C_3   0.313987 0.623570 0.451037 -0.137932
C8    C     C_3   0.686008 0.623568 0.548959 -0.137940
C9    C     C_3   0.746969 0.055781 0.437623 0.032990
C10   C     C_3   0.253015 0.055776 0.562381 0.032993
C11   C     C_3   0.246185 0.561838 0.435948 0.039280
C12   C     C_3   0.753813 0.561840 0.564052 0.039288
C13   C     C_3   0.758112 0.089576 0.575853 0.057914
C14   C     C_3   0.241887 0.089570 0.424149 0.057899
C15   C     C_3   0.257142 0.591194 0.574938 0.060455
C16   C     C_3   0.742858 0.591192 0.425061 0.060463
C17   C     C_3   0.741428 0.962435 0.564319 -0.265364
C18   C     C_3   0.258587 0.962435 0.435689 -0.265385
C19   C     C_3   0.242025 0.463437 0.561495 -0.261522
C20   C     C_3   0.757980 0.463438 0.438509 -0.261544
C21   C     C_3   0.824163 0.119895 0.533915 -0.256446
C22   C     C_3   0.175829 0.119872 0.466073 -0.256424
C23   C     C_3   0.321832 0.625823 0.533011 -0.255544
C24   C     C_3   0.678167 0.625817 0.466983 -0.255533
C25   C     C_3   0.009955 0.213884 0.460481 -0.244507
C26   C     C_3   0.990024 0.213881 0.539513 -0.244483
C27   C     C_3   0.513403 0.712009 0.461932 -0.246113
C28   C     C_3   0.486575 0.712021 0.538050 -0.246161
C29   C     C_3   0.075049 0.390508 0.490428 -0.270504
C30   C     C_3   0.924945 0.390525 0.509568 -0.270498
C31   C     C_3   0.563835 0.910499 0.475316 -0.215777
C32   C     C_3   0.436152 0.910546 0.524642 -0.215807
C33   C     C_3   0.960471 0.411359 0.439032 -0.193654
C34   C     C_3   0.039528 0.411335 0.560966 -0.193664
C35   C     C_3   0.442630 0.885979 0.444190 -0.253451
C36   C     C_3   0.557343 0.885983 0.555779 -0.253464
C37   C     C_3   0.025858 0.338183 0.435743 0.025084
C38   C     C_3   0.974132 0.338183 0.564254 0.025071
C39   C     C_3   0.512832 0.835953 0.431490 0.043560
C40   C     C_3   0.487135 0.835970 0.568475 0.043450
C41   C     C_3   0.807057 0.000534 0.041857 -0.216332
C42   C     C_3   0.192944 0.000536 0.958144 -0.216313
C43   C     C_3   0.307167 0.500712 0.041888 -0.216582
C44   C     C_3   0.692834 0.500712 0.958113 -0.216576
C45   C     C_R   0.773194 0.119491 0.650949 0.555990
C46   C     C_R   0.226808 0.119486 0.349050 0.555962
C47   C     C_R   0.273098 0.619680 0.650571 0.557780
C48   C     C_R   0.726903 0.619677 0.349428 0.557768
C49   C     C_3   0.817438 0.026094 0.964143 -0.217624
C50   C     C_3   0.182563 0.026100 0.035858 -0.217614
C51   C     C_3   0.317486 0.526137 0.964145 -0.218155
C52   C     C_3   0.682513 0.526142 0.035855 -0.218145
C53   C     C_3   0.681584 0.028571 0.030422 -0.229378
C54   C     C_3   0.318417 0.028576 0.969578 -0.229387
C55   C     C_3   0.181627 0.528545 0.030439 -0.229420
C56   C     C_3   0.818372 0.528547 0.969562 -0.229418
C57   C     C_3   0.756547 0.195419 0.059987 -0.259077
C58   C     C_3   0.243454 0.195422 0.940008 -0.259062
C59   C     C_3   0.256459 0.695488 0.059954 -0.259010
C60   C     C_3   0.743538 0.695488 0.940040 -0.259007
C61   C     C_3   0.745712 0.065093 0.073324 0.055888
C62   C     C_3   0.254289 0.065096 0.926675 0.055900
C63   C     C_3   0.245741 0.565153 0.073331 0.056265
C64   C     C_3   0.754259 0.565153 0.926668 0.056261
C65   C     C_3   0.758492 0.100032 0.934431 0.055400
C66   C     C_3   0.241508 0.100039 0.065568 0.055397
C67   C     C_3   0.258502 0.599968 0.934421 0.055412
C68   C     C_3   0.741497 0.599975 0.065577 0.055410
C69   C     C_3   0.694384 0.027618 0.948027 -0.263526
C70   C     C_3   0.305616 0.027624 0.051973 -0.263526
C71   C     C_3   0.194425 0.527481 0.948047 -0.263327
C72   C     C_3   0.805574 0.527487 0.051954 -0.263321
C73   C     C_3   0.749834 0.214559 0.978582 -0.226377
C74   C     C_3   0.250167 0.214565 0.021412 -0.226384
C75   C     C_3   0.249808 0.714510 0.978533 -0.226660
C76   C     C_3   0.750191 0.714515 0.021460 -0.226668
C77   C     C_3   0.005362 0.476905 0.039917 -0.283524
C78   C     C_3   0.994625 0.476906 0.960086 -0.283531
C79   C     C_3   0.505495 0.976867 0.039888 -0.283827
C80   C     C_3   0.494505 0.976866 0.960110 -0.283824
C81   C     C_3   0.064206 0.276189 0.024655 -0.186141
C82   C     C_3   0.935800 0.276172 0.975347 -0.186149
C83   C     C_3   0.564146 0.775828 0.024489 -0.187953
C84   C     C_3   0.435851 0.775832 0.975514 -0.187954
C85   C     C_3   0.943203 0.294301 0.056979 0.051595
C86   C     C_3   0.056803 0.294332 0.943026 0.051617
C87   C     C_3   0.443164 0.794629 0.057144 0.051884
C88   C     C_3   0.556834 0.794624 0.942859 0.051882
C89   C     C_R   0.946731 0.345141 0.637777 0.534070
C90   C     C_R   0.053266 0.345140 0.362224 0.534051
C91   C     C_R   0.467206 0.842871 0.644400 0.537750
C92   C     C_R   0.532743 0.842861 0.355557 0.537745
C93   C     C_3   0.012112 0.350453 0.069006 0.054304
C94   C     C_3   0.987887 0.350455 0.930997 0.054298
C95   C     C_3   0.512192 0.850406 0.068976 0.055368
C96   C     C_3   0.487807 0.850405 0.931024 0.055360
C97   C     C_R   0.761251 0.531497 0.849513 0.542055
C98   C     C_R   0.238749 0.531500 0.150487 0.542061
C99   C     C_R   0.261266 0.031454 0.849525 0.541585
C100  C     C_R   0.738734 0.031454 0.150475 0.541582
C101  C     C_R   0.773507 0.130988 0.857883 0.530077
C102  C     C_R   0.226492 0.130992 0.142116 0.530072
C103  C     C_R   0.273497 0.630944 0.857869 0.530568
C104  C     C_R   0.726502 0.630949 0.142129 0.530558
C105  C     C_R   0.966246 0.353551 0.854719 0.588853
C106  C     C_R   0.033753 0.353551 0.145283 0.588775
C107  C     C_R   0.466104 0.853567 0.854784 0.586476
C108  C     C_R   0.533895 0.853568 0.145216 0.586446
C109  C     C_3   0.689402 0.135694 0.464176 -0.213100
C110  C     C_3   0.310568 0.135724 0.535838 -0.213062
C111  C     C_3   0.190152 0.646724 0.463013 -0.209826
C112  C     C_3   0.809842 0.646732 0.536988 -0.209826
C113  C     C_3   0.699134 0.161444 0.543838 0.097742
C114  C     C_3   0.300845 0.161463 0.456173 0.097762
C115  C     C_3   0.196676 0.661809 0.544750 0.096435
C116  C     C_3   0.803316 0.661823 0.455252 0.096464
C117  C     C_3   0.748755 0.941644 0.483857 -0.239612
C118  C     C_3   0.251248 0.941642 0.516150 -0.239596
C119  C     C_3   0.244877 0.446953 0.480300 -0.235742
C120  C     C_3   0.755124 0.446952 0.519704 -0.235735
Cr1   Cr    Cr6+3 0.885690 0.492860 0.745310 1.011734
Cr2   Cr    Cr6+3 0.114310 0.492860 0.254690 1.011729
Cr3   Cr    Cr6+3 0.385690 0.992860 0.745310 1.013214
Cr4   Cr    Cr6+3 0.614310 0.992860 0.254690 1.013187
Cr5   Cr    Cr6+3 0.729880 0.332270 0.748190 1.064102
Cr6   Cr    Cr6+3 0.270120 0.332270 0.251810 1.064098
Cr7   Cr    Cr6+3 0.229880 0.832270 0.748190 1.063047
Cr8   Cr    Cr6+3 0.770120 0.832270 0.251810 1.063062
Cr9   Cr    Cr6+3 0.888120 0.178590 0.753010 1.001277
Cr10  Cr    Cr6+3 0.111880 0.178590 0.246990 1.001270
Cr11  Cr    Cr6+3 0.388120 0.678590 0.753010 1.005323
Cr12  Cr    Cr6+3 0.611880 0.678590 0.246990 1.005314
H1    H     H_    0.640648 0.094899 0.454866 0.172501
H2    H     H_    0.359337 0.094954 0.545164 0.172526
H3    H     H_    0.138829 0.624205 0.446588 0.169865
H4    H     H_    0.861166 0.624217 0.553413 0.169860
H5    H     H_    0.861556 0.053070 0.549067 0.138028
H6    H     H_    0.138440 0.053059 0.450883 0.138060
H7    H     H_    0.360799 0.562588 0.549909 0.140098
H8    H     H_    0.639194 0.562594 0.450080 0.140107
H9    H     H_    0.800076 0.908808 0.479021 0.142847
H10   H     H_    0.199932 0.908798 0.520972 0.142879
H11   H     H_    0.294803 0.410890 0.471742 0.152478
H12   H     H_    0.705196 0.410892 0.528260 0.152463
H13   H     H_    0.776639 0.907037 0.595356 0.109952
H14   H     H_    0.223392 0.907021 0.404643 0.109935
H15   H     H_    0.279991 0.407371 0.588452 0.105190
H16   H     H_    0.720019 0.407370 0.411549 0.105183
H17   H     H_    0.049038 0.149754 0.449298 0.127997
H18   H     H_    0.950945 0.149739 0.550708 0.128007
H19   H     H_    0.563053 0.680702 0.464424 0.132883
H20   H     H_    0.436949 0.680640 0.535591 0.132839
H21   H     H_    0.968007 0.188335 0.429179 0.162568
H22   H     H_    0.031981 0.188334 0.570808 0.162523
H23   H     H_    0.488065 0.650972 0.427467 0.152033
H24   H     H_    0.511927 0.651052 0.572531 0.152041
H25   H     H_    0.614690 0.894611 0.456405 0.110988
H26   H     H_    0.385294 0.894682 0.543539 0.110971
H27   H     H_    0.115377 0.330752 0.503933 0.103754
H28   H     H_    0.884615 0.330771 0.496057 0.103773
H29   H     H_    0.596218 0.823333 0.573454 0.103856
H30   H     H_    0.403751 0.823307 0.426552 0.103826
H31   H     H_    0.073666 0.390931 0.606529 0.156787
H32   H     H_    0.926334 0.390983 0.393468 0.156793
H33   H     H_    0.975307 0.504583 0.436519 0.227512
H34   H     H_    0.024700 0.504564 0.563485 0.227532
H35   H     H_    0.436277 0.966195 0.412946 0.215130
H36   H     H_    0.563683 0.966226 0.586988 0.215194
H37   H     H_    0.903888 0.471237 0.529595 0.156422
H38   H     H_    0.096103 0.471225 0.470403 0.156419
H39   H     H_    0.448725 0.003890 0.533474 0.174662
H40   H     H_    0.551273 0.003853 0.466470 0.174642
H41   H     H_    0.799760 0.909270 0.049316 0.116820
H42   H     H_    0.200253 0.909274 0.950694 0.116801
H43   H     H_    0.300036 0.409376 0.049450 0.116985
H44   H     H_    0.699972 0.409377 0.950559 0.116977
H45   H     H_    0.688382 0.218522 0.433381 0.089111
H46   H     H_    0.311558 0.218558 0.566631 0.089086
H47   H     H_    0.196568 0.732391 0.437032 0.071926
H48   H     H_    0.803422 0.732396 0.562971 0.071922
H49   H     H_    0.853375 0.015536 0.071427 0.224272
H50   H     H_    0.146623 0.015518 0.928573 0.224261
H51   H     H_    0.353502 0.516117 0.071376 0.223702
H52   H     H_    0.646498 0.516107 0.928622 0.223703
H53   H     H_    0.865523 0.071681 0.958098 0.168078
H54   H     H_    0.134478 0.071684 0.041902 0.168089
H55   H     H_    0.365561 0.571768 0.958021 0.167052
H56   H     H_    0.634438 0.571774 0.041977 0.167055
H57   H     H_    0.822357 0.942438 0.934236 0.124967
H58   H     H_    0.177645 0.942445 0.065768 0.124966
H59   H     H_    0.322404 0.442428 0.934292 0.124883
H60   H     H_    0.677596 0.442435 0.065713 0.124884
H61   H     H_    0.661587 0.946066 0.049701 0.106884
H62   H     H_    0.338413 0.946070 0.950302 0.106883
H63   H     H_    0.161694 0.446122 0.049800 0.107049
H64   H     H_    0.838308 0.446123 0.950205 0.107044
H65   H     H_    0.701376 0.936967 0.928466 0.111869
H66   H     H_    0.298624 0.936974 0.071538 0.111868
H67   H     H_    0.201432 0.436808 0.928532 0.111848
H68   H     H_    0.798569 0.436814 0.071473 0.111838
H69   H     H_    0.718217 0.247967 0.089123 0.108396
H70   H     H_    0.281784 0.247967 0.910870 0.108393
H71   H     H_    0.218045 0.747944 0.089025 0.108437
H72   H     H_    0.781949 0.747945 0.910964 0.108437
H73   H     H_    0.806660 0.223561 0.078928 0.172880
H74   H     H_    0.193343 0.223567 0.921065 0.172942
H75   H     H_    0.306511 0.723854 0.078928 0.173606
H76   H     H_    0.693484 0.723848 0.921067 0.173612
H77   H     H_    0.781924 0.285298 0.959795 0.105345
H78   H     H_    0.218079 0.285306 0.040196 0.105345
H79   H     H_    0.281950 0.785194 0.959750 0.105110
H80   H     H_    0.718053 0.785204 0.040241 0.105110
H81   H     H_    0.696716 0.240101 0.969866 0.127716
H82   H     H_    0.303284 0.240107 0.030126 0.127710
H83   H     H_    0.196685 0.739993 0.969747 0.128040
H84   H     H_    0.803314 0.739998 0.030241 0.128033
H85   H     H_    0.643520 0.096785 0.041446 0.126832
H86   H     H_    0.356480 0.096789 0.958553 0.126833
H87   H     H_    0.143484 0.596645 0.041428 0.126843
H88   H     H_    0.856512 0.596653 0.958571 0.126844
H89   H     H_    0.716603 0.247706 0.549492 0.144565
H90   H     H_    0.283355 0.247711 0.450508 0.144553
H91   H     H_    0.207857 0.749981 0.557308 0.159320
H92   H     H_    0.792116 0.749996 0.442696 0.159281
H93   H     H_    0.650786 0.066130 0.919318 0.118924
H94   H     H_    0.349213 0.066137 0.080681 0.118923
H95   H     H_    0.150824 0.565921 0.919314 0.119407
H96   H     H_    0.849174 0.565930 0.080686 0.119405
H97   H     H_    0.049091 0.530266 0.052587 0.143416
H98   H     H_    0.950893 0.530257 0.947413 0.143410
H99   H     H_    0.549303 0.030041 0.052418 0.143311
H100  H     H_    0.450698 0.030045 0.947578 0.143312
H101  H     H_    0.962641 0.522497 0.066416 0.127575
H102  H     H_    0.037343 0.522513 0.933588 0.127576
H103  H     H_    0.462922 0.022694 0.066517 0.127369
H104  H     H_    0.537079 0.022692 0.933480 0.127372
H105  H     H_    0.615313 0.787130 0.042525 0.074205
H106  H     H_    0.384685 0.787140 0.957478 0.074195
H107  H     H_    0.115342 0.287792 0.042635 0.073302
H108  H     H_    0.884662 0.287781 0.957372 0.073294
H109  H     H_    0.597398 0.852432 0.922843 0.127390
H110  H     H_    0.402601 0.852440 0.077158 0.127389
H111  H     H_    0.097485 0.351555 0.922631 0.127089
H112  H     H_    0.902515 0.351505 0.077378 0.127062
H113  H     H_    0.946776 0.183596 0.963897 0.219322
H114  H     H_    0.053234 0.183610 0.036098 0.219338
H115  H     H_    0.447141 0.683226 0.964344 0.217020
H116  H     H_    0.552853 0.683223 0.035661 0.217025
H117  H     H_    0.714845 0.874248 0.465137 0.084578
H118  H     H_    0.285144 0.874250 0.534889 0.084590
H119  H     H_    0.206975 0.385366 0.460419 0.087546
H120  H     H_    0.793021 0.385358 0.539590 0.087549
H121  H     H_    0.689803 0.942159 0.582886 0.156917
H122  H     H_    0.310218 0.942187 0.417133 0.156914
H123  H     H_    0.191953 0.438393 0.582913 0.162355
H124  H     H_    0.808054 0.438404 0.417094 0.162329
H125  H     H_    0.806705 0.214531 0.436205 0.086978
H126  H     H_    0.193217 0.214467 0.563835 0.086939
H127  H     H_    0.308900 0.715938 0.433529 0.089724
H128  H     H_    0.691089 0.715938 0.566464 0.089717
H129  H     H_    0.842280 0.203952 0.553919 0.093959
H130  H     H_    0.157717 0.203938 0.446075 0.093947
H131  H     H_    0.336396 0.714569 0.549830 0.092069
H132  H     H_    0.663608 0.714566 0.450160 0.092051
O1    O     O_R   0.957210 0.449410 0.665480 -0.505992
O2    O     O_R   0.042790 0.449410 0.334520 -0.506013
O3    O     O_R   0.457210 0.949410 0.665480 -0.509623
O4    O     O_R   0.542790 0.949410 0.334520 -0.509691
O5    O     O_R   0.736260 0.212010 0.826560 -0.504175
O6    O     O_R   0.263740 0.212010 0.173440 -0.504183
O7    O     O_R   0.236260 0.712010 0.826560 -0.504079
O8    O     O_R   0.763740 0.712010 0.173440 -0.504083
O9    O     O_R   0.832520 0.095300 0.836000 -0.530176
O10   O     O_R   0.167480 0.095300 0.164000 -0.530160
O11   O     O_R   0.332520 0.595300 0.836000 -0.529890
O12   O     O_R   0.667480 0.595300 0.164000 -0.529891
O13   O     O_R   0.946380 0.253940 0.826940 -0.462395
O14   O     O_R   0.053620 0.253940 0.173060 -0.462404
O15   O     O_R   0.446380 0.753940 0.826940 -0.463164
O16   O     O_R   0.553620 0.753940 0.173060 -0.463182
O17   O     O_3   0.834560 0.334570 0.748840 -0.314778
O18   O     O_3   0.165440 0.334570 0.251160 -0.314766
O19   O     O_3   0.334560 0.834570 0.748840 -0.305709
O20   O     O_3   0.665440 0.834570 0.251160 -0.305696
O21   O     O_R   0.820730 0.541240 0.668250 -0.531084
O22   O     O_R   0.179270 0.541240 0.331750 -0.531079
O23   O     O_R   0.320730 0.041240 0.668250 -0.523329
O24   O     O_R   0.679270 0.041240 0.331750 -0.523325
O25   O     O_R   0.714240 0.455060 0.663710 -0.483989
O26   O     O_R   0.285760 0.455060 0.336290 -0.483972
O27   O     O_R   0.214240 0.955060 0.663710 -0.489009
O28   O     O_R   0.785760 0.955060 0.336290 -0.488959
O29   O     O_R   0.736780 0.204870 0.675910 -0.451863
O30   O     O_R   0.263220 0.204870 0.324090 -0.451859
O31   O     O_R   0.236780 0.704870 0.675910 -0.460358
O32   O     O_R   0.763220 0.704870 0.324090 -0.460360
O33   O     O_R   0.833070 0.087590 0.673490 -0.550550
O34   O     O_R   0.166930 0.087590 0.326510 -0.550552
O35   O     O_R   0.333070 0.587590 0.673490 -0.544120
O36   O     O_R   0.666930 0.587590 0.326510 -0.544110
O37   O     O_R   0.946890 0.246800 0.676300 -0.516831
O38   O     O_R   0.053110 0.246800 0.323700 -0.516854
O39   O     O_R   0.446890 0.746800 0.676300 -0.519994
O40   O     O_R   0.553110 0.746800 0.323700 -0.520013
O41   O     O_R   0.956650 0.457120 0.827980 -0.530321
O42   O     O_R   0.043350 0.457120 0.172020 -0.530326
O43   O     O_R   0.456650 0.957120 0.827980 -0.534055
O44   O     O_R   0.543350 0.957120 0.172020 -0.534074
O45   O     O_R   0.820220 0.548390 0.818890 -0.515155
O46   O     O_R   0.179780 0.548390 0.181110 -0.515148
O47   O     O_R   0.320220 0.048390 0.818890 -0.514606
O48   O     O_R   0.679780 0.048390 0.181110 -0.514601
O49   O     O_R   0.713680 0.462770 0.826210 -0.511894
O50   O     O_R   0.286320 0.462770 0.173790 -0.511891
O51   O     O_R   0.213680 0.962770 0.826210 -0.512462
O52   O     O_R   0.786320 0.962770 0.173790 -0.512444
Cl1   Cl    Cl    0.937193 0.160139 0.104625 -0.759042
Cl2   Cl    Cl    0.062838 0.160189 0.895375 -0.758998
Cl3   Cl    Cl    0.436581 0.661439 0.105869 -0.756153
Cl4   Cl    Cl    0.563414 0.661433 0.894138 -0.756132
Cl5   Cl    Cl    0.621066 0.161435 0.591605 -0.699175
Cl6   Cl    Cl    0.378923 0.161486 0.408424 -0.699228
Cl7   Cl    Cl    0.119239 0.644726 0.591542 -0.704956
Cl8   Cl    Cl    0.880759 0.644768 0.408464 -0.704997
C121  C     C_R   0.873165 0.074872 0.407571 0.030432
C122  C     C_R   0.914264 0.978796 0.427940 -0.073795
C123  C     C_R   0.965575 0.938685 0.382985 -0.093150
C124  C     C_R   0.976743 0.991973 0.317132 -0.076296
C125  C     C_R   0.936515 0.085520 0.295869 -0.049697
C126  C     C_R   0.885087 0.126665 0.340122 -0.082941
H133  H     H_    0.908506 0.933854 0.478156 0.100624
H134  H     H_    0.996982 0.866221 0.399494 0.139221
H135  H     H_    0.016914 0.961322 0.282731 0.122217
H136  H     H_    0.946099 0.128065 0.245674 0.202398
H137  H     H_    0.854615 0.199379 0.322030 0.101710
C127  C     C_R   0.126784 0.074671 0.592385 0.030470
C128  C     C_R   0.085681 0.978623 0.571910 -0.073863
C129  C     C_R   0.034324 0.938419 0.616797 -0.093021
C130  C     C_R   0.023117 0.991579 0.682693 -0.076469
C131  C     C_R   0.063355 0.085086 0.704071 -0.049762
C132  C     C_R   0.114827 0.126331 0.659883 -0.082653
H138  H     H_    0.091465 0.933765 0.521661 0.100561
H139  H     H_    0.002912 0.865982 0.600201 0.139223
H140  H     H_    0.982910 0.960861 0.717043 0.122105
H141  H     H_    0.053738 0.127528 0.754306 0.202328
H142  H     H_    0.145295 0.199024 0.678055 0.101813
C133  C     C_R   0.374581 0.573313 0.409829 0.026542
C134  C     C_R   0.411712 0.473545 0.432090 -0.073112
C135  C     C_R   0.462203 0.426345 0.388590 -0.083550
C136  C     C_R   0.476049 0.475563 0.322090 -0.085413
C137  C     C_R   0.439793 0.572789 0.298986 -0.056664
C138  C     C_R   0.389775 0.621762 0.342224 -0.080773
H143  H     H_    0.403203 0.431091 0.482743 0.104591
H144  H     H_    0.490761 0.351378 0.406638 0.152296
H145  H     H_    0.515228 0.438871 0.288632 0.118484
H146  H     H_    0.451167 0.611433 0.247909 0.197927
H147  H     H_    0.361920 0.696362 0.322372 0.101914
C139  C     C_R   0.625412 0.573310 0.590165 0.026545
C140  C     C_R   0.588272 0.473560 0.567895 -0.073139
C141  C     C_R   0.537773 0.426366 0.611387 -0.083572
C142  C     C_R   0.523927 0.475573 0.677890 -0.085404
C143  C     C_R   0.560192 0.572779 0.701004 -0.056646
C144  C     C_R   0.610218 0.621750 0.657773 -0.080748
H148  H     H_    0.596785 0.431107 0.517243 0.104571
H149  H     H_    0.509211 0.351409 0.593332 0.152267
H150  H     H_    0.484742 0.438883 0.711342 0.118489
H151  H     H_    0.548820 0.611413 0.752085 0.197921
H152  H     H_    0.638079 0.696340 0.677630 0.101937

loop_
_geom_bond_atom_site_label_1
_geom_bond_atom_site_label_2
_ccdc_geom_bond_type
C97   O49   A    
C83   H105  S    
C82   C94   S    
C119  H11   S    
C7    H127  S    
C120  H12   S    
C41   C61   S    
C53   C69   S    
C128  C129  A    
C43   C63   S    
C44   C64   S    
C84   H115  S    
C112  H4    S    
C63   C98   S    
C141  H149  S    
C31   H40   S    
C28   C40   S    
Cr12  O12   S    
C36   H36   S    
C30   C38   S    
C43   H43   S    
C56   C72   S    
C98   O46   A    
C5    C121  S    
C125  H136  S    
C122  C123  A    
C106  O14   A    
C21   H5    S    
C18   C118  S    
C81   C86   S    
C83   C88   S    
C74   H82   S    
C111  H47   S    
C91   O3    A    
C41   C49   S    
C54   H86   S    
C118  H10   S    
C109  H1    S    
C46   O34   A    
C131  C132  A    
C118  H118  S    
Cr1   O1    S    
C88   H109  S    
C115  Cl7   S    
C137  H146  S    
C26   C38   S    
C14   C114  S    
Cr4   O4    S    
C24   H8    S    
C111  H3    S    
C43   H51   S    
C120  H120  S    
C15   C19   S    
C30   H37   S    
C124  H135  S    
C54   C70   S    
C23   H131  S    
C16   C20   S    
C75   H79   S    
C1    O25   A    
C98   O50   A    
C102  O10   A    
C113  H89   S    
C31   H25   S    
C19   H123  S    
C64   C97   S    
C36   H29   S    
C15   C115  S    
Cr6   O50   S    
Cr7   O31   S    
Cr8   O32   S    
Cr1   O41   S    
C59   C63   S    
Cr6   O6    S    
C70   H94   S    
C127  C128  A    
C57   C61   S    
C82   C85   S    
C77   H97   S    
C60   C64   S    
Cr3   O3    S    
C13   C45   S    
C66   C70   S    
C101  O5    A    
C78   C94   S    
Cr9   O33   S    
C134  C135  A    
C136  C137  A    
C95   C108  S    
C85   Cl1   S    
C62   C99   S    
C92   O4    A    
C5    C21   S    
C108  O44   A    
C140  C141  A    
C110  H46   S    
C31   C36   S    
C73   H81   S    
C48   O36   A    
C55   C71   S    
Cr6   O30   S    
Cr7   O51   S    
C142  H150  S    
Cr2   O2    S    
C135  C136  A    
C54   H62   S    
C144  H152  S    
C80   H104  S    
C137  C138  A    
C65   C101  S    
C7    C133  S    
Cr11  O19   S    
C67   C103  S    
C18   H122  S    
C37   C90   S    
Cr10  O34   S    
C73   H77   S    
C22   H130  S    
C119  H119  S    
C100  O48   A    
C143  C144  A    
C129  H139  S    
C66   C74   S    
C25   H17   S    
C57   C73   S    
C133  C138  A    
C85   C93   S    
C106  O42   A    
C56   H88   S    
C87   C95   S    
C56   C64   S    
Cr4   O48   S    
C140  H148  S    
C47   O31   A    
C42   C62   S    
C128  H138  S    
C48   O32   A    
C78   H102  S    
C112  H48   S    
C76   H80   S    
C130  H140  S    
C91   O39   A    
C70   H66   S    
C56   H64   S    
Cr8   O8    S    
C1    C12   S    
Cr1   O17   S    
C80   H100  S    
C2    C11   S    
C77   H101  S    
C141  C142  A    
C7    C11   S    
Cr4   O20   S    
C53   H85   S    
Cr12  O16   S    
C42   H42   S    
C55   H87   S    
C25   C26   S    
C8    C139  S    
C85   H112  S    
C103  O7    A    
C8    H128  S    
C5    C9    S    
C59   H71   S    
C93   C106  S    
C104  O12   A    
C8    C12   S    
C5    H125  S    
C51   C67   S    
C58   H70   S    
C42   C50   S    
Cr5   O17   S    
C126  H137  S    
C72   H96   S    
C14   C22   S    
C110  H2    S    
C61   C100  S    
C67   C75   S    
C131  H141  S    
Cr8   O20   S    
C50   H54   S    
C112  C116  S    
C51   H59   S    
C58   C74   S    
C59   H75   S    
C41   H41   S    
Cr12  O36   S    
C81   H114  S    
C33   H33   S    
C44   H44   S    
C124  C125  A    
C68   C76   S    
C13   C17   S    
C2    O26   A    
C99   O51   A    
C79   H103  S    
C136  H145  S    
C7    C23   S    
C8    C24   S    
C89   O1    A    
C40   C91   S    
Cr5   O25   S    
Cr4   O44   S    
Cr8   O28   S    
C49   H53   S    
C87   Cl3   S    
C57   H69   S    
C88   Cl4   S    
Cr3   O47   S    
C46   O30   A    
C4    C9    S    
C113  Cl5   S    
C135  H144  S    
C92   O40   A    
C58   C62   S    
C88   C96   S    
C94   C105  S    
C53   H61   S    
Cr9   O9    S    
C12   C112  S    
Cr11  O35   S    
C1    O21   A    
C14   C46   S    
C77   C78   S    
C42   H50   S    
C3    O23   A    
Cr9   O37   S    
C115  H91   S    
C86   Cl2   S    
C58   H74   S    
C6    C22   S    
C9    C117  S    
C66   C102  S    
Cr6   O26   S    
C99   O47   A    
C86   H111  S    
C20   C120  S    
C15   C47   S    
Cr10  O10   S    
Cr11  O15   S    
C82   H113  S    
C17   C117  S    
C19   C119  S    
Cr10  O38   S    
C27   H23   S    
C41   H49   S    
C71   H95   S    
C16   C116  S    
C100  O52   A    
C20   H124  S    
C143  H151  S    
C9    C109  S    
C117  H9    S    
C25   H21   S    
C26   H18   S    
C133  C134  A    
C117  H117  S    
C60   H76   S    
C87   H110  S    
C54   C62   S    
C107  O43   A    
C11   C111  S    
C29   C34   S    
C19   H15   S    
C81   H107  S    
C45   O33   A    
C116  H92   S    
C17   H13   S    
C4    O28   A    
C79   C95   S    
C76   H84   S    
C130  C131  A    
C107  O15   A    
C121  C126  A    
Cr1   O21   S    
C114  H90   S    
Cr2   O18   S    
Cr3   O23   S    
Cr4   O24   S    
Cr12  O20   S    
C32   H39   S    
C39   C92   S    
Cr11  O39   S    
C27   H19   S    
C102  O6    A    
C84   H106  S    
C68   C104  S    
C69   H93   S    
C6    C10   S    
C132  H142  S    
C71   H67   S    
C78   H98   S    
C22   H6    S    
C6    H126  S    
C123  C124  A    
C43   C51   S    
C65   C69   S    
Cr6   O18   S    
C77   C93   S    
C60   C76   S    
C10   C110  S    
C67   C71   S    
C121  C122  A    
C50   H58   S    
C33   C37   S    
C51   H55   S    
C103  O11   A    
C109  H45   S    
Cr12  O40   S    
C29   C37   S    
C21   H129  S    
C34   H34   S    
C55   H63   S    
C97   O45   A    
C105  O13   A    
C125  C126  A    
C14   C18   S    
C6    C127  S    
C84   C87   S    
C3    O27   A    
C11   C119  S    
C16   C48   S    
C104  O8    A    
C29   H27   S    
C30   H28   S    
C38   C89   S    
C17   H121  S    
C4    O24   A    
C49   C65   S    
C74   H78   S    
C23   H7    S    
C90   O2    A    
C84   C96   S    
C123  H134  S    
C49   H57   S    
C57   H73   S    
Cr2   O46   S    
C65   C73   S    
Cr3   O43   S    
C52   H60   S    
Cr7   O19   S    
C90   O38   A    
C86   C94   S    
C25   C37   S    
C12   C120  S    
C27   C39   S    
C82   H108  S    
C83   H116  S    
C35   H35   S    
Cr9   O13   S    
C29   H38   S    
C80   C96   S    
C44   H52   S    
C52   C68   S    
C68   C72   S    
C2    O22   A    
C15   C23   S    
C16   C24   S    
C55   C63   S    
C138  H147  S    
C69   H65   S    
Cr7   O7    S    
C101  O9    A    
C53   C61   S    
C60   H72   S    
C134  H143  S    
C32   H26   S    
C35   H30   S    
C13   C21   S    
C32   C35   S    
C36   C40   S    
C33   H32   S    
Cr5   O49   S    
C34   H31   S    
Cr7   O27   S    
Cr8   O52   S    
Cr5   O5    S    
Cr10  O14   S    
Cr11  O11   S    
C127  C132  A    
C10   C118  S    
C72   H68   S    
C81   C93   S    
C79   H99   S    
C24   H132  S    
C20   H16   S    
C139  C144  A    
C83   C95   S    
Cr9   O17   S    
C109  C113  S    
C50   C66   S    
Cr1   O45   S    
C28   H20   S    
C26   H22   S    
C116  Cl8   S    
C59   C75   S    
C122  H133  S    
Cr2   O42   S    
C110  C114  S    
C30   C33   S    
C34   C38   S    
C45   O29   A    
C96   C107  S    
C18   H14   S    
Cr5   O29   S    
C89   O37   A    
C52   H56   S    
C142  C143  A    
Cr2   O22   S    
Cr10  O18   S    
C3    C10   S    
Cr3   O19   S    
C44   C52   S    
C35   C39   S    
C75   H83   S    
C31   C39   S    
C32   C40   S    
C139  C140  A    
C79   C80   S    
C129  C130  A    
C27   C28   S    
C28   H24   S    
C111  C115  S    
C114  Cl6   S    
C108  O16   A    
C13   C113  S    
C105  O41   A    
C47   O35   A    
