data_mof_unit_11058.cif
_audit_creation_date              2012-12-10T17:48:19-0500
_audit_creation_method            fapswitch 2.2
_symmetry_space_group_name_H-M    P1
_symmetry_Int_Tables_number       1
_space_group_crystal_system       triclinic
_cell_length_a                    13.908227
_cell_length_b                    14.699174
_cell_length_c                    14.963354
_cell_angle_alpha                 115.850929
_cell_angle_beta                  107.068085
_cell_angle_gamma                 73.566113
_cell_volume                      2588.70180421

loop_
_atom_site_label
_atom_site_type_symbol
_atom_type_description
_atom_site_fract_x
_atom_site_fract_y
_atom_site_fract_z
_atom_type_partial_charge
C1    C     C_R   0.517422 0.118903 0.687849 0.808369
C2    C     C_R   0.492533 0.881396 0.313006 0.778317
C3    C     C_R   0.531437 0.360818 0.924189 0.055269
C4    C     C_R   0.521338 0.641624 0.075578 0.079380
C5    C     C_R   0.573832 0.320665 0.000720 -0.021508
C6    C     C_R   0.468474 0.682666 0.000770 -0.013830
C7    C     C_R   0.505139 0.468739 0.950692 -0.133358
C8    C     C_R   0.548062 0.533566 0.048166 -0.130405
C9    C     C_R   0.614303 0.487787 0.116092 0.397224
C10   C     C_R   0.432491 0.512916 0.884167 0.418026
C11   C     C_R   0.611026 0.386558 0.100244 0.016296
C12   C     C_R   0.422550 0.618327 0.903544 0.007815
C13   C     C_R   0.309895 0.307999 0.348976 0.255633
C14   C     C_R   0.668864 0.709907 0.677818 0.253345
C15   C     C_R   0.346245 0.217254 0.367784 0.486547
C16   C     C_R   0.648583 0.786807 0.638610 0.489221
C17   C     C_R   0.486290 0.289335 0.494157 0.473963
C18   C     C_R   0.503108 0.719225 0.519799 0.464037
C19   C     C_R   0.444404 0.388076 0.487994 -0.182501
C20   C     C_R   0.516451 0.643417 0.560757 -0.186969
C21   C     C_R   0.355281 0.394910 0.413324 -0.059682
C22   C     C_R   0.599754 0.641538 0.641807 -0.074526
C23   C     C_R   0.686083 0.986753 0.502182 0.801600
C24   C     C_R   0.313643 0.011971 0.495276 0.814632
C25   C     C_R   0.487073 0.480013 0.550421 0.127269
C26   C     C_R   0.453172 0.566926 0.522766 0.137704
C27   C     C_R   0.355668 0.575078 0.461910 -0.248359
C28   C     C_R   0.556843 0.492584 0.642492 -0.230817
C29   C     C_R   0.307766 0.490739 0.408244 -0.173630
C30   C     C_R   0.610744 0.573190 0.688359 -0.168009
C31   C     C_1   0.208815 0.016474 0.489974 -0.151848
C32   C     C_1   0.788810 0.977277 0.495529 -0.226064
C33   C     C_2   0.011114 0.032804 0.477164 0.363618
C34   C     C_2   0.979328 0.955472 0.479247 0.379979
C35   C     C_1   0.874772 0.968837 0.488053 -0.078169
C36   C     C_1   0.119637 0.022535 0.484258 -0.074096
C37   C     C_R   0.531246 0.186473 0.796135 -0.187787
C38   C     C_R   0.500230 0.815683 0.205759 -0.188223
C39   C     C_R   0.582896 0.214277 0.974059 -0.296598
C40   C     C_R   0.456201 0.789759 0.028568 -0.275166
C41   C     C_R   0.557247 0.148008 0.873132 0.456992
C42   C     C_R   0.475005 0.855943 0.130274 0.425869
C43   C     C_R   0.519623 0.292019 0.822724 -0.218111
C44   C     C_R   0.535551 0.710313 0.177659 -0.257716
Cu1   Cu    Cu3+1 0.526370 0.916390 0.524860 1.016776
Cu2   Cu    Cu3+1 0.473630 0.083610 0.475140 1.014278
H1    H     H_    0.314605 0.646495 0.455184 0.213124
H2    H     H_    0.569346 0.442339 0.681563 0.199543
H3    H     H_    0.568441 0.682911 0.236980 0.211416
H4    H     H_    0.505016 0.320358 0.763508 0.234601
H5    H     H_    0.612606 0.179969 0.029823 0.147457
H6    H     H_    0.427511 0.824565 0.973230 0.144403
H7    H     H_    0.233782 0.500717 0.360323 0.190925
H8    H     H_    0.664395 0.578781 0.758657 0.180819
N1    N     N_R   0.433980 0.209250 0.437830 -0.274858
N2    N     N_R   0.566020 0.790750 0.562170 -0.283824
O1    O     O_R   0.534760 0.019630 0.662610 -0.498448
O2    O     O_R   0.465240 0.980370 0.337390 -0.539040
O3    O     O_R   0.490220 0.160840 0.620610 -0.549492
O4    O     O_R   0.509780 0.839160 0.379390 -0.567675
O5    O     O_R   0.663260 0.919400 0.523940 -0.579661
O6    O     O_R   0.336740 0.080600 0.476060 -0.536193
O7    O     O_R   0.618720 0.060610 0.481950 -0.553325
O8    O     O_R   0.381280 0.939390 0.518050 -0.530835
O9    O     O_3   0.049776 0.866725 0.480058 -0.590223
C45   C     C_3   0.003225 0.778713 0.428435 0.085575
H9    H     H_    0.950540 0.779333 0.356242 0.136325
H10   H     H_    0.960717 0.773566 0.478066 0.147036
C46   C     C_3   0.085687 0.683919 0.401948 -0.825834
H11   H     H_    0.142619 0.684750 0.471455 0.260674
H12   H     H_    0.052018 0.613425 0.369217 0.205806
H13   H     H_    0.124320 0.683330 0.346372 0.243322
O10   O     O_3   0.939496 0.118493 0.467451 -0.616490
C47   C     C_3   0.983437 0.187387 0.455267 0.074489
H14   H     H_    0.027136 0.146775 0.392736 0.167040
H15   H     H_    0.034346 0.226935 0.527293 0.156743
C48   C     C_3   0.899754 0.267879 0.426928 -0.823637
H16   H     H_    0.852681 0.310944 0.486104 0.241861
H17   H     H_    0.934338 0.323005 0.419355 0.214006
H18   H     H_    0.850927 0.229602 0.353122 0.251449
O11   O     O_3   0.219441 0.316572 0.280187 -0.564740
C49   C     C_3   0.239765 0.319748 0.194165 0.036428
H19   H     H_    0.268026 0.241319 0.142275 0.136701
H20   H     H_    0.297559 0.368019 0.213363 0.137984
C50   C     C_3   0.141103 0.363483 0.137215 -0.808426
H21   H     H_    0.111465 0.442913 0.186650 0.239847
H22   H     H_    0.155628 0.365362 0.068966 0.197732
H23   H     H_    0.082642 0.314894 0.113181 0.248814
O12   O     O_3   0.747604 0.711870 0.760699 -0.557260
C51   C     C_3   0.827364 0.625971 0.732689 0.042205
H24   H     H_    0.881149 0.643122 0.702778 0.146362
H25   H     H_    0.800297 0.554512 0.674041 0.134573
C52   C     C_3   0.887733 0.603945 0.826119 -0.811364
H26   H     H_    0.837498 0.584551 0.858343 0.237523
H27   H     H_    0.951541 0.538123 0.805403 0.200227
H28   H     H_    0.919949 0.672392 0.884353 0.249545
C53   C     C_3   0.649391 0.345593 0.184969 -0.391232
C54   C     C_3   0.670100 0.425088 0.294237 -0.260653
C55   C     C_3   0.647147 0.393192 0.368892 -0.973951
H29   H     H_    0.563423 0.398548 0.357084 0.258491
H30   H     H_    0.684442 0.312795 0.357821 0.261873
H31   H     H_    0.674729 0.445283 0.447523 0.250737
H32   H     H_    0.751283 0.434831 0.316188 0.236996
H33   H     H_    0.620843 0.500030 0.301197 0.227349
H34   H     H_    0.589034 0.306507 0.179918 0.197092
H35   H     H_    0.719907 0.286867 0.170664 0.183490
C56   C     C_3   0.357646 0.668238 0.828453 -0.407453
C57   C     C_3   0.297903 0.602477 0.727476 -0.262918
C58   C     C_3   0.240614 0.665353 0.663338 -0.890444
H36   H     H_    0.183021 0.729167 0.702367 0.253727
H37   H     H_    0.294413 0.697868 0.648387 0.272765
H38   H     H_    0.200328 0.614428 0.590503 0.252648
H39   H     H_    0.350711 0.536283 0.684129 0.264528
H40   H     H_    0.239306 0.575138 0.741420 0.241974
H41   H     H_    0.300375 0.732908 0.867315 0.192032
H42   H     H_    0.409664 0.700409 0.810491 0.204979
O13   O     O_3   0.460995 0.960237 0.154673 -0.612196
C59   C     C_3   0.551763 0.983308 0.152095 0.102076
H43   H     H_    0.565521 0.948184 0.073243 0.146011
H44   H     H_    0.618988 0.955386 0.202214 0.143331
C60   C     C_3   0.541518 0.099326 0.189679 -0.852871
H45   H     H_    0.532364 0.136104 0.269825 0.238829
H46   H     H_    0.611172 0.118180 0.184686 0.204945
H47   H     H_    0.473992 0.130514 0.142847 0.222476
O14   O     O_3   0.567878 0.044103 0.849811 -0.529457
C61   C     C_3   0.483334 0.027571 0.871237 0.073818
H48   H     H_    0.409570 0.063034 0.834318 0.122050
H49   H     H_    0.487184 0.059678 0.954433 0.130234
C62   C     C_3   0.484792 0.912668 0.830552 -0.731128
H50   H     H_    0.419752 0.899044 0.849011 0.175248
H51   H     H_    0.477203 0.879143 0.746998 0.247788
H52   H     H_    0.557450 0.874119 0.865062 0.255851
O15   O     O_3   0.687980 0.537894 0.192888 -0.620216
C63   C     C_3   0.771499 0.526411 0.151200 0.086827
H53   H     H_    0.748118 0.562273 0.094252 0.149648
H54   H     H_    0.805049 0.443646 0.115170 0.146405
C64   C     C_3   0.853369 0.579933 0.235483 -0.834477
H55   H     H_    0.918964 0.573140 0.203558 0.204787
H56   H     H_    0.821628 0.662548 0.273222 0.242572
H57   H     H_    0.880505 0.544042 0.292305 0.245788
O16   O     O_3   0.367617 0.453986 0.803404 -0.605673
C65   C     C_3   0.289986 0.443024 0.839585 0.051500
H58   H     H_    0.241682 0.519038 0.873878 0.137135
H59   H     H_    0.322174 0.407666 0.896965 0.151338
C66   C     C_3   0.222553 0.373043 0.751337 -0.809611
H60   H     H_    0.268968 0.296110 0.716959 0.253153
H61   H     H_    0.160848 0.364192 0.778520 0.195100
H62   H     H_    0.187325 0.406300 0.692768 0.243802
O17   O     O_3   0.424266 0.725954 0.440171 -0.545117
C67   C     C_3   0.449986 0.648022 0.349033 0.079957
H63   H     H_    0.459708 0.569733 0.346907 0.136800
H64   H     H_    0.523175 0.654560 0.340372 0.144918
C68   C     C_3   0.365435 0.657074 0.260201 -0.783204
H65   H     H_    0.352086 0.734668 0.259055 0.254997
H66   H     H_    0.387196 0.598448 0.188025 0.196801
H67   H     H_    0.293438 0.644023 0.266862 0.231049
O18   O     O_3   0.571326 0.275190 0.565918 -0.559843
C69   C     C_3   0.661348 0.265363 0.534410 0.062647
H68   H     H_    0.662036 0.333549 0.521242 0.139346
H69   H     H_    0.670431 0.196683 0.463351 0.179127
C70   C     C_3   0.752293 0.256136 0.618489 -0.757883
H70   H     H_    0.753744 0.189889 0.636260 0.251825
H71   H     H_    0.824679 0.245236 0.595338 0.244488
H72   H     H_    0.746697 0.327224 0.687996 0.218477
O19   O     O_3   0.701294 0.868395 0.687924 -0.496792
C71   C     C_3   0.804481 0.837210 0.675541 0.152532
H73   H     H_    0.817287 0.877104 0.633325 0.155853
H74   H     H_    0.826939 0.753939 0.630822 0.063108
C72   C     C_3   0.875992 0.871275 0.778545 -0.773731
H75   H     H_    0.956634 0.845920 0.768454 0.182751
H76   H     H_    0.860343 0.956397 0.816392 0.243819
H77   H     H_    0.865477 0.838280 0.828173 0.283739
O20   O     O_3   0.281279 0.147927 0.335569 -0.544616
C73   C     C_3   0.267022 0.089720 0.230149 0.188062
H78   H     H_    0.297812 0.007953 0.218261 0.188445
H79   H     H_    0.306316 0.110425 0.188744 0.139989
C74   C     C_3   0.153167 0.096368 0.184080 -0.838770
H80   H     H_    0.142312 0.048513 0.101649 0.199189
H81   H     H_    0.116003 0.067457 0.220421 0.238595
H82   H     H_    0.115453 0.176632 0.194853 0.288312

loop_
_geom_bond_atom_site_label_1
_geom_bond_atom_site_label_2
_ccdc_geom_bond_type
C44   H3    S    
C7    C10   A    
C45   H10   S    
Cu1   O4    S    
O19   C71   S    
Cu2   O3    S    
C27   C29   A    
C72   H75   S    
C39   H5    S    
C4    C8    A    
C66   H62   S    
C63   C64   S    
C53   C54   S    
C7    C8    A    
C39   C41   A    
O20   C73   S    
C25   C28   A    
C64   H56   S    
C3    C43   A    
C26   C27   A    
O18   C69   S    
C47   H15   S    
Cu2   O6    S    
C19   C21   A    
C5    C11   A    
C3    C7    A    
C1    O3    A    
C50   H21   S    
C2    O4    A    
C48   H18   S    
C45   C46   S    
C54   H32   S    
C13   O11   S    
C33   C36   S    
C57   C58   S    
C34   C35   S    
O10   C47   S    
C57   H40   S    
C46   H12   S    
C59   H43   S    
C60   H47   S    
C69   C70   S    
C70   H71   S    
C73   H78   S    
O16   C65   S    
Cu1   N2    S    
C8    C9    A    
C74   H81   S    
C47   C48   S    
Cu2   N1    S    
C24   O6    A    
C56   C57   S    
C69   H68   S    
C68   H66   S    
C18   O17   S    
C17   O18   S    
C17   N1    A    
C31   C36   T    
C1    C37   S    
C62   H52   S    
C53   H34   S    
C23   O7    A    
C45   H9    S    
C24   O8    A    
Cu2   O2    S    
C69   H69   S    
C72   H76   S    
C65   C66   S    
C71   H73   S    
C34   O9    S    
C66   H61   S    
C66   H60   S    
C73   H79   S    
C50   H22   S    
C64   H57   S    
C47   H14   S    
C15   O20   S    
C32   C35   T    
C41   O14   S    
C71   H74   S    
C4    C6    A    
C58   H38   S    
C63   H54   S    
C4    C44   A    
C61   C62   S    
C25   C26   A    
C48   H16   S    
C21   C29   A    
C67   C68   S    
O11   C49   S    
C29   H7    S    
C10   O16   S    
C15   N1    A    
C57   H39   S    
C37   C43   A    
C46   H13   S    
C16   N2    A    
C14   O12   S    
C38   C44   A    
C67   H64   S    
C1    O1    A    
C6    C40   A    
C30   H8    S    
C2    C38   S    
C51   H25   S    
C55   H29   S    
C16   O19   S    
C74   H82   S    
Cu1   O1    S    
C33   C34   D    
C48   H17   S    
C13   C21   A    
C42   O13   S    
C52   H26   S    
C68   H67   S    
C9    C11   A    
C73   C74   S    
C56   H41   S    
C60   H45   S    
C10   C12   A    
C53   H35   S    
C33   O10   S    
C55   H30   S    
C20   C22   A    
C54   C55   S    
C52   H28   S    
C49   H20   S    
C13   C15   A    
O14   C61   S    
C72   H77   S    
C14   C16   A    
C70   H70   S    
C70   H72   S    
C51   C52   S    
C62   H50   S    
C50   H23   S    
C27   H1    S    
C28   H2    S    
C61   H49   S    
C22   C30   A    
C67   H63   S    
C40   C42   A    
C3    C5    A    
C12   C56   S    
C2    O2    A    
C43   H4    S    
C38   C42   A    
C63   H53   S    
C18   N2    A    
C49   C50   S    
C64   H55   S    
Cu1   O8    S    
Cu2   O7    S    
C11   C53   S    
C23   C32   S    
C14   C22   A    
C5    C39   A    
C68   H65   S    
C24   C31   S    
C28   C30   A    
C40   H6    S    
O13   C59   S    
C6    C12   A    
C51   H24   S    
O15   C63   S    
C20   C26   A    
C61   H48   S    
C54   H33   S    
C58   H37   S    
Cu1   O5    S    
C17   C19   A    
C18   C20   A    
O9    C45   S    
C37   C41   A    
C46   H11   S    
C19   C25   A    
C59   H44   S    
C56   H42   S    
C60   H46   S    
Cu1   Cu2   S    
C23   O5    A    
C55   H31   S    
C71   C72   S    
C52   H27   S    
C74   H80   S    
C58   H36   S    
C65   H58   S    
C49   H19   S    
O12   C51   S    
O17   C67   S    
C59   C60   S    
C65   H59   S    
C62   H51   S    
C9    O15   S    
