data_mof_unit_43960.cif
_audit_creation_date              2012-12-10T17:42:17-0500
_audit_creation_method            fapswitch 2.2
_symmetry_space_group_name_H-M    P1
_symmetry_Int_Tables_number       1
_space_group_crystal_system       triclinic
_cell_length_a                    15.110802
_cell_length_b                    13.950984
_cell_length_c                    10.940959
_cell_angle_alpha                 90.894124
_cell_angle_beta                  87.697304
_cell_angle_gamma                 89.480356
_cell_volume                      2304.21805579

loop_
_atom_site_label
_atom_site_type_symbol
_atom_type_description
_atom_site_fract_x
_atom_site_fract_y
_atom_site_fract_z
_atom_type_partial_charge
C1    C     C_R   0.328393 0.500157 0.498552 0.774080
C2    C     C_R   0.037295 0.653039 0.603089 -0.091366
C3    C     C_R   0.087781 0.578838 0.543860 0.108647
C4    C     C_R   0.501992 0.499179 0.260291 0.736913
C5    C     C_R   0.044852 0.511937 0.468926 0.032127
C6    C     C_R   0.093875 0.442962 0.397289 -0.044089
C7    C     C_R   0.047301 0.383983 0.313131 -0.049181
C8    C     C_R   0.954674 0.380813 0.322287 -0.150170
C9    C     C_R   0.179428 0.570143 0.559970 -0.051659
C10   C     C_R   0.230252 0.501526 0.489961 -0.159988
C11   C     C_R   0.186336 0.434014 0.414321 -0.060289
C12   C     C_3   0.587469 0.562362 0.928199 -0.018463
C13   C     C_R   0.421503 0.795825 0.503096 0.260313
C14   C     C_R   0.426172 0.206815 0.546879 0.331604
C15   C     C_R   0.576871 0.794291 0.475220 0.139966
C16   C     C_R   0.574001 0.201730 0.464249 0.172680
C17   C     C_R   0.578080 0.896194 0.483067 -0.041443
C18   C     C_R   0.575835 0.100226 0.475303 -0.011429
C19   C     C_R   0.670664 0.499994 0.495678 0.878795
C20   C     C_R   0.499107 0.947962 0.510274 0.085262
C21   C     C_R   0.498005 0.050634 0.507418 0.066952
C22   C     C_R   0.420614 0.896761 0.530312 -0.089219
C23   C     C_R   0.814696 0.437738 0.411606 -0.274024
C24   C     C_R   0.419806 0.103450 0.535142 -0.098600
C25   C     C_R   0.656110 0.947743 0.458377 -0.174724
C26   C     C_R   0.654956 0.046865 0.453895 -0.115698
C27   C     C_R   0.339843 0.050573 0.558668 -0.036784
C28   C     C_R   0.341337 0.948425 0.561121 -0.041835
C29   C     C_R   0.502826 0.500817 0.739498 0.845662
C30   C     C_3   0.416120 0.553707 0.078199 -0.073741
C31   C     C_3   0.509364 0.389721 0.067190 -0.148886
C32   C     C_3   0.414604 0.541833 0.934704 -0.247684
C33   C     C_3   0.514009 0.394441 0.922959 -0.324616
C34   C     C_R   0.766810 0.502334 0.487873 -0.038618
C35   C     C_3   0.586293 0.551596 0.070940 -0.578252
C36   C     C_3   0.501828 0.497625 0.121910 -0.127382
C37   C     C_3   0.506651 0.502177 0.877651 -0.063423
C38   C     C_2   0.416151 0.660478 0.117407 0.333046
C39   C     C_2   0.591571 0.338187 0.114605 0.496697
C40   C     C_2   0.217995 0.619459 0.666667 0.260229
C41   C     C_2   0.231459 0.344105 0.371919 0.333182
C42   C     C_2   0.091448 0.333411 0.206284 0.393478
C43   C     C_3   0.348517 0.761564 0.422935 -0.711260
C44   C     C_3   0.360227 0.256442 0.635117 -0.708117
C45   C     C_R   0.810461 0.575456 0.549287 -0.161757
C46   C     C_2   0.653666 0.747362 0.411419 0.442494
C47   C     C_2   0.657218 0.245816 0.422610 0.379889
C48   C     C_2   0.252568 0.099804 0.567500 0.461633
C49   C     C_2   0.261476 0.894142 0.602911 0.444205
C50   C     C_2   0.331379 0.516328 0.140930 0.385463
C51   C     C_2   0.428706 0.329254 0.104316 0.507833
C52   C     C_2   0.369775 0.627323 0.877410 0.398709
C53   C     C_2   0.589898 0.334883 0.862419 0.562135
C54   C     C_2   0.581277 0.668671 0.898546 0.504447
C55   C     C_2   0.677686 0.528362 0.875850 0.316658
C56   C     C_R   0.902349 0.580373 0.541274 0.083221
C57   C     C_R   0.951538 0.511900 0.470005 0.089876
C58   C     C_R   0.906956 0.442316 0.402128 0.076199
C59   C     C_R   0.945603 0.652808 0.603333 -0.209115
Cu1   Cu    Cu3+1 0.499990 0.597420 0.500010 1.020657
Cu2   Cu    Cu3+1 0.499990 0.402580 0.500010 1.026771
H1    H     H_    0.068081 0.711472 0.651135 0.201897
H2    H     H_    0.772842 0.627702 0.605034 0.181908
H3    H     H_    0.908545 0.708382 0.653956 0.166376
H4    H     H_    0.473944 0.695609 0.150632 0.115130
H5    H     H_    0.636839 0.374458 0.173492 0.072843
H6    H     H_    0.283221 0.650176 0.661439 0.118040
H7    H     H_    0.198932 0.276333 0.387549 0.076117
H8    H     H_    0.154128 0.358517 0.168045 0.143930
H9    H     H_    0.291754 0.733069 0.477270 0.202237
H10   H     H_    0.323461 0.820960 0.366825 0.234362
H11   H     H_    0.374030 0.707196 0.355771 0.262306
H12   H     H_    0.919083 0.333035 0.262882 0.197953
H13   H     H_    0.385325 0.320454 0.679025 0.250461
H14   H     H_    0.298737 0.276168 0.589586 0.200024
H15   H     H_    0.344115 0.209502 0.713818 0.218924
H16   H     H_    0.718394 0.749504 0.450784 0.034297
H17   H     H_    0.703696 0.269027 0.489815 0.084371
H18   H     H_    0.231984 0.143104 0.492484 0.055795
H19   H     H_    0.268859 0.834921 0.664943 0.082471
H20   H     H_    0.326775 0.513546 0.239721 0.097801
H21   H     H_    0.365371 0.342994 0.064796 0.086579
H22   H     H_    0.299201 0.635272 0.893837 0.192290
H23   H     H_    0.719327 0.912368 0.440213 0.137113
H24   H     H_    0.658266 0.349203 0.881382 0.079316
H25   H     H_    0.546017 0.718313 0.960367 0.088459
H26   H     H_    0.734643 0.525642 0.933152 0.092960
H27   H     H_    0.717738 0.080759 0.432953 0.162446
H28   H     H_    0.367296 0.483978 0.913248 0.132030
H29   H     H_    0.454113 0.358102 0.888785 0.151294
H30   H     H_    0.594601 0.621784 0.117049 0.213261
H31   H     H_    0.646734 0.514468 0.099901 0.145943
H32   H     H_    0.780194 0.386148 0.356885 0.172419
N1    N     N_R   0.499930 0.743810 0.499950 -0.178414
N2    N     N_R   0.499930 0.256190 0.499950 -0.187844
O1    O     O_R   0.370250 0.582280 0.500040 -0.623354
O2    O     O_2   0.606739 0.253786 0.089060 -0.454680
O3    O     O_2   0.176497 0.623583 0.764753 -0.531917
O4    O     O_2   0.301029 0.344768 0.312237 -0.522115
O5    O     O_2   0.057276 0.264271 0.157926 -0.503953
O6    O     O_2   0.645748 0.708898 0.311659 -0.563514
O7    O     O_2   0.680365 0.243223 0.314771 -0.542831
O8    O     O_2   0.204444 0.093887 0.659409 -0.484473
O9    O     O_2   0.188541 0.911165 0.563770 -0.506622
O10   O     O_2   0.266012 0.495661 0.084192 -0.555340
O11   O     O_2   0.434011 0.261374 0.173177 -0.443428
O12   O     O_R   0.370250 0.417720 0.500040 -0.545604
O13   O     O_2   0.409682 0.692067 0.826812 -0.533094
O14   O     O_2   0.574405 0.265923 0.796686 -0.524163
O15   O     O_2   0.615011 0.700766 0.804472 -0.506994
O16   O     O_2   0.689463 0.509334 0.767265 -0.570981
O17   O     O_R   0.499970 0.582270 0.317700 -0.581794
O18   O     O_R   0.499970 0.417730 0.317700 -0.542914
O19   O     O_R   0.629730 0.582260 0.499980 -0.569906
O20   O     O_R   0.629730 0.417740 0.499980 -0.609773
O21   O     O_R   0.500000 0.582270 0.682320 -0.497015
O22   O     O_R   0.500000 0.417730 0.682320 -0.599426
O23   O     O_2   0.349152 0.709970 0.112589 -0.519214

loop_
_geom_bond_atom_site_label_1
_geom_bond_atom_site_label_2
_ccdc_geom_bond_type
C27   C48   S    
C23   C58   A    
C4    C36   S    
C43   H11   S    
C52   H22   S    
C18   C21   A    
Cu1   O19   S    
C35   C36   S    
C18   C26   A    
C24   C27   A    
C15   N1    A    
C7    C8    A    
C30   C38   S    
C59   H3    S    
C3    C9    A    
C48   H18   S    
C1    O1    A    
C40   O3    D    
C5    C6    A    
C39   O2    D    
C17   C20   A    
C56   C57   A    
C54   O15   D    
C7    C42   S    
C14   C24   A    
C12   C37   S    
C44   H15   S    
C32   C52   S    
C8    C58   A    
C45   C56   A    
C40   H6    S    
Cu2   O20   S    
C25   H23   S    
C41   O4    D    
C9    C10   A    
C35   H31   S    
C4    O17   A    
C47   O7    D    
C22   C28   A    
C49   O9    D    
C16   C47   S    
C41   H7    S    
C33   C53   S    
C30   C50   S    
C46   O6    D    
Cu2   O22   S    
C4    O18   A    
C6    C11   A    
C54   H25   S    
C2    C59   A    
C19   O19   A    
C25   C26   A    
C48   O8    D    
C29   O22   A    
C45   H2    S    
C9    C40   S    
C33   C37   S    
C23   H32   S    
Cu1   Cu2   S    
C44   H14   S    
Cu1   O17   S    
C42   O5    D    
C50   O10   D    
C28   C49   S    
C32   H28   S    
C38   H4    S    
C19   O20   A    
C23   C34   A    
C31   C33   S    
C34   C45   A    
C32   C37   S    
C12   C35   S    
C44   H13   S    
C51   H21   S    
C1    O12   A    
Cu1   O1    S    
C16   C18   A    
C29   O21   A    
C20   C22   A    
C43   H9    S    
Cu2   O18   S    
C39   H5    S    
Cu1   O21   S    
C14   N2    A    
C13   C43   S    
C14   C44   S    
C53   O14   D    
C15   C17   A    
C16   N2    A    
C43   H10   S    
C55   O16   D    
C1    C10   S    
C31   C51   S    
C3    C5    A    
C19   C34   S    
C46   H16   S    
Cu2   N2    S    
C6    C7    A    
C30   C36   S    
C47   H17   S    
C56   C59   A    
C5    C57   A    
C13   N1    A    
C17   C25   A    
C2    C3    A    
C33   H29   S    
C30   C32   S    
C57   C58   A    
C51   O11   D    
C8    H12   S    
C31   C39   S    
C13   C22   A    
C11   C41   S    
C42   H8    S    
C55   H26   S    
Cu2   O12   S    
C12   C55   S    
C10   C11   A    
C38   O23   D    
C20   C21   A    
C52   O13   D    
C26   H27   S    
C21   C24   A    
C29   C37   S    
C27   C28   A    
C49   H19   S    
C31   C36   S    
C53   H24   S    
C15   C46   S    
C12   C54   S    
C2    H1    S    
C50   H20   S    
C35   H30   S    
Cu1   N1    S    
