data_mof_unit_48557.cif
_audit_creation_date              2012-12-10T18:24:41-0500
_audit_creation_method            fapswitch 2.2
_symmetry_space_group_name_H-M    P1
_symmetry_Int_Tables_number       1
_space_group_crystal_system       triclinic
_cell_length_a                    14.128558
_cell_length_b                    14.995728
_cell_length_c                    16.776145
_cell_angle_alpha                 87.948637
_cell_angle_beta                  86.579414
_cell_angle_gamma                 88.710939
_cell_volume                      3544.98393277

loop_
_atom_site_label
_atom_site_type_symbol
_atom_type_description
_atom_site_fract_x
_atom_site_fract_y
_atom_site_fract_z
_atom_type_partial_charge
C1    C     C_R   0.499253 0.673346 0.499250 0.897888
C2    C     C_R   0.500745 0.326658 0.500736 0.895419
C3    C     C_R   0.586415 0.183697 0.485110 -0.263335
C4    C     C_R   0.413533 0.816338 0.514633 -0.264882
C5    C     C_R   0.501531 0.230695 0.502036 -0.070589
C6    C     C_R   0.498454 0.769326 0.497865 -0.074248
C7    C     C_R   0.416316 0.186146 0.519149 -0.252711
C8    C     C_R   0.583677 0.813880 0.480785 -0.254661
C9    C     C_R   0.415046 0.094056 0.518373 0.117092
C10   C     C_R   0.584923 0.905978 0.481459 0.117614
C11   C     C_R   0.500376 0.046371 0.500609 0.060796
C12   C     C_R   0.499581 0.953666 0.499170 0.061159
C13   C     C_R   0.586459 0.091390 0.484162 0.119417
C14   C     C_R   0.413489 0.908649 0.515581 0.119654
C15   C     C_R   0.329887 0.049098 0.534647 -0.216100
C16   C     C_R   0.670075 0.950940 0.465151 -0.216519
C17   C     C_R   0.329108 0.956522 0.533209 -0.217876
C18   C     C_R   0.670838 0.043522 0.466518 -0.217426
C19   C     C_R   0.200986 0.434423 0.541208 -0.107038
C20   C     C_R   0.799015 0.565808 0.459068 -0.107934
C21   C     C_R   0.202184 0.565477 0.456917 0.291434
C22   C     C_R   0.797981 0.434103 0.542468 0.294999
C23   C     C_R   0.487892 0.495520 0.653081 0.859122
C24   C     C_R   0.512285 0.498395 0.346925 0.857602
C25   C     C_R   0.101257 0.568648 0.459264 -0.015643
C26   C     C_R   0.898894 0.431130 0.540319 -0.014569
C27   C     C_R   0.050519 0.500025 0.500192 0.001923
C28   C     C_R   0.949579 0.499967 0.499686 0.001215
C29   C     C_R   0.100708 0.431260 0.541079 0.010176
C30   C     C_R   0.899358 0.568824 0.458954 0.010140
C31   C     C_R   0.050058 0.638208 0.420578 -0.209159
C32   C     C_R   0.950134 0.361470 0.578858 -0.209023
C33   C     C_R   0.950749 0.638892 0.419663 0.216417
C34   C     C_R   0.049377 0.361063 0.580178 0.215582
C35   C     C_R   0.482447 0.467494 0.737216 -0.031777
C36   C     C_R   0.519203 0.482436 0.261767 -0.034510
C37   C     C_R   0.562570 0.427627 0.770139 -0.213097
C38   C     C_R   0.436659 0.478583 0.219903 -0.209779
C39   C     C_R   0.556124 0.390051 0.846653 -0.153848
C40   C     C_R   0.442247 0.452341 0.141378 -0.145550
C41   C     C_R   0.470530 0.395916 0.893018 0.205625
C42   C     C_R   0.530585 0.428894 0.104129 0.205798
C43   C     C_R   0.389370 0.432657 0.859617 -0.171745
C44   C     C_R   0.613217 0.435358 0.145189 -0.181205
C45   C     C_R   0.395141 0.468097 0.781740 -0.197799
C46   C     C_R   0.607715 0.461858 0.223661 -0.193584
C47   C     C_2   0.468639 0.379796 0.979411 -0.241563
C48   C     C_2   0.540398 0.408765 0.019598 -0.228365
H1    H     H_    0.241195 0.384095 0.573145 0.158289
H2    H     H_    0.758794 0.616340 0.427393 0.157681
H3    H     H_    0.672516 0.464234 0.254849 0.160465
H4    H     H_    0.331857 0.496633 0.756725 0.155227
H5    H     H_    0.606253 0.428980 0.988050 0.150274
H6    H     H_    0.402147 0.360558 0.010313 0.147577
H7    H     H_    0.322867 0.437765 0.894979 0.126005
H8    H     H_    0.682048 0.419750 0.116464 0.128357
H9    H     H_    0.651987 0.218830 0.471504 0.161956
H10   H     H_    0.347929 0.781210 0.528128 0.162368
H11   H     H_    0.350787 0.223024 0.532958 0.156439
H12   H     H_    0.649229 0.776999 0.467069 0.156304
H13   H     H_    0.264114 0.085507 0.548325 0.146391
H14   H     H_    0.735856 0.914532 0.451500 0.146375
N1    N     N_R   0.249970 0.499930 0.499970 -0.107348
N2    N     N_R   0.750030 0.500070 0.500030 -0.107288
O1    O     O_R   0.419720 0.632140 0.499990 -0.628099
O2    O     O_R   0.580280 0.367860 0.500010 -0.630769
O3    O     O_R   0.580270 0.632160 0.499980 -0.623175
O4    O     O_R   0.419730 0.367840 0.500020 -0.625101
O5    O     O_R   0.410240 0.500000 0.615800 -0.615591
O6    O     O_R   0.589760 0.500000 0.384200 -0.618699
O7    O     O_R   0.570790 0.500020 0.615800 -0.627150
O8    O     O_R   0.429210 0.499980 0.384200 -0.630075
Zn1   Zn    Zn3+2 0.392800 0.499980 0.500010 0.940563
Zn2   Zn    Zn3+2 0.607200 0.500020 0.499990 0.939985
H15   H     H_    0.630234 0.424250 0.736694 0.156007
H16   H     H_    0.367702 0.494949 0.247968 0.160066
C49   C     C_3   0.254833 0.633512 0.403646 -0.868188
H17   H     H_    0.227257 0.634825 0.342982 0.201649
H18   H     H_    0.245915 0.700644 0.429251 0.215240
H19   H     H_    0.330021 0.619259 0.393075 0.291253
C50   C     C_3   0.745462 0.365193 0.594674 -0.876072
H20   H     H_    0.773071 0.362529 0.655332 0.198309
H21   H     H_    0.670442 0.379851 0.605406 0.288871
H22   H     H_    0.754166 0.298613 0.567983 0.217665
H23   H     H_    0.086668 0.693670 0.390799 0.158680
H24   H     H_    0.913637 0.305728 0.608259 0.158744
C51   C     C_3   0.901510 0.715410 0.376854 -0.958693
H25   H     H_    0.861496 0.689753 0.327802 0.241621
H26   H     H_    0.851966 0.750688 0.419550 0.235509
H27   H     H_    0.952496 0.764941 0.350107 0.243895
C52   C     C_3   0.098633 0.284610 0.623078 -0.958567
H28   H     H_    0.138357 0.310315 0.672287 0.242056
H29   H     H_    0.047686 0.234940 0.649642 0.243551
H30   H     H_    0.148446 0.249480 0.580490 0.235529
H31   H     H_    0.377633 0.452766 0.109911 0.125144
H32   H     H_    0.619058 0.359514 0.870603 0.128846
H33   H     H_    0.262800 0.922409 0.545912 0.146798
H34   H     H_    0.737140 0.077639 0.453787 0.146587

loop_
_geom_bond_atom_site_label_1
_geom_bond_atom_site_label_2
_ccdc_geom_bond_type
C25   C31   A    
C51   H25   S    
C26   C32   A    
C31   H23   S    
C27   C29   A    
C23   O5    A    
C50   H20   S    
C24   O6    A    
C39   C41   A    
C20   C30   A    
C49   H17   S    
C24   C36   S    
C16   H14   S    
C13   C18   A    
C35   C37   A    
C2    O4    A    
O2    Zn2   S    
O1    Zn1   S    
C7    C9    A    
C44   H8    S    
C34   C52   S    
C20   H2    S    
C19   N1    A    
O6    Zn2   S    
C1    O1    A    
C31   C33   A    
C36   C46   A    
C3    C13   A    
C40   C42   A    
C37   H15   S    
C4    C14   A    
C41   C43   A    
C14   C17   A    
C42   C44   A    
C7    H11   S    
C50   H21   S    
C44   C46   A    
C49   H18   S    
C41   C47   S    
C48   H5    S    
C1    C6    S    
C22   C50   S    
C23   O7    A    
C4    C6    A    
C52   H28   S    
C5    C7    A    
C38   H16   S    
N1    Zn1   S    
C45   H4    S    
C3    C5    A    
O4    Zn1   S    
C46   H3    S    
C32   C34   A    
C20   N2    A    
C52   H29   S    
C43   C45   A    
C19   H1    S    
C47   C48   D    
C32   H24   S    
C15   H13   S    
O3    Zn2   S    
C42   C48   S    
O5    Zn1   S    
C9    C11   A    
C10   C12   A    
C47   H6    S    
C3    H9    S    
C43   H7    S    
C12   C14   A    
C23   C35   S    
C51   H26   S    
C2    C5    S    
C40   H31   S    
C21   C49   S    
C19   C29   A    
C50   H22   S    
C24   O8    A    
C49   H19   S    
C15   C17   A    
C21   C25   A    
C30   C33   A    
C16   C18   A    
O8    Zn1   S    
C2    O2    A    
O7    Zn2   S    
C6    C8    A    
C11   C12   A    
C25   C27   A    
C26   C28   A    
C28   C30   A    
C9    C15   A    
C37   C39   A    
C10   C16   A    
C8    H12   S    
C52   H30   S    
C38   C40   A    
C11   C13   A    
C29   C34   A    
C36   C38   A    
C1    O3    A    
C33   C51   S    
C39   H32   S    
C21   N1    A    
C22   N2    A    
C8    C10   A    
C22   C26   A    
C51   H27   S    
C4    H10   S    
C27   C28   A    
N2    Zn2   S    
C18   H34   S    
C17   H33   S    
C35   C45   A    
