data_mof_unit_9068.cif
_audit_creation_date              2012-12-10T18:58:38-0500
_audit_creation_method            fapswitch 2.2
_symmetry_space_group_name_H-M    P1
_symmetry_Int_Tables_number       1
_space_group_crystal_system       triclinic
_cell_length_a                    10.860121
_cell_length_b                    9.992391
_cell_length_c                    17.539304
_cell_angle_alpha                 90.399066
_cell_angle_beta                  93.934519
_cell_angle_gamma                 90.720647
_cell_volume                      1898.64568498

loop_
_atom_site_label
_atom_site_type_symbol
_atom_type_description
_atom_site_fract_x
_atom_site_fract_y
_atom_site_fract_z
_atom_type_partial_charge
C1    C     C_R   0.260335 0.499744 0.498826 0.877042
C2    C     C_R   0.739683 0.500380 0.497224 0.887081
C3    C     C_1   0.506175 0.534867 0.966349 -0.015685
C4    C     C_1   0.506670 0.533846 0.034106 -0.010856
C5    C     C_R   0.059460 0.390335 0.463120 0.168994
C6    C     C_R   0.940001 0.622679 0.499316 0.141842
C7    C     C_R   0.935114 0.379915 0.476025 0.150749
C8    C     C_R   0.065430 0.615341 0.518962 0.140396
C9    C     C_R   0.499475 0.499661 0.354303 0.911843
C10   C     C_R   0.500293 0.500459 0.645599 0.910395
C11   C     C_R   0.872243 0.500700 0.490683 -0.168887
C12   C     C_R   0.127309 0.500719 0.494977 -0.148269
C13   C     C_R   0.394224 0.488371 0.844063 0.179774
C14   C     C_R   0.612048 0.481095 0.157549 0.188116
C15   C     C_R   0.396370 0.558886 0.149622 0.180216
C16   C     C_R   0.613917 0.557029 0.849216 0.181284
C17   C     C_R   0.392601 0.476650 0.763999 0.126710
C18   C     C_R   0.609076 0.470224 0.237398 0.115973
C19   C     C_R   0.391630 0.541226 0.228710 0.128769
C20   C     C_R   0.614145 0.539174 0.769732 0.124383
C21   C     C_R   0.502812 0.502609 0.727866 -0.128644
C22   C     C_R   0.498918 0.500331 0.271869 -0.132964
C23   C     C_R   0.563000 0.073491 0.557828 0.193946
C24   C     C_R   0.431761 0.926721 0.444762 0.214693
C25   C     C_R   0.439176 0.069633 0.441789 0.182342
C26   C     C_R   0.568024 0.929929 0.555647 0.209078
C27   C     C_R   0.504416 0.529670 0.885367 0.017876
C28   C     C_R   0.505866 0.526942 0.114837 0.023109
N1    N     N_R   0.500000 0.857200 0.500000 -0.118272
N2    N     N_R   0.500000 0.142800 0.500000 -0.116640
O1    O     O_R   0.316770 0.614620 0.500000 -0.626997
O2    O     O_R   0.683230 0.385380 0.500000 -0.623877
O3    O     O_R   0.683230 0.614620 0.500000 -0.626746
O4    O     O_R   0.316770 0.385380 0.500000 -0.613918
O5    O     O_R   0.500010 0.614710 0.389120 -0.614700
O6    O     O_R   0.499990 0.385290 0.610880 -0.619224
O7    O     O_R   0.499990 0.614710 0.610880 -0.613284
O8    O     O_R   0.500010 0.385290 0.389120 -0.628300
Zn1   Zn    Zn3+2 0.500000 0.653120 0.500000 0.924958
Zn2   Zn    Zn3+2 0.500000 0.346880 0.500000 0.917486
C29   C     C_3   0.279792 0.459403 0.887033 -0.888023
H1    H     H_    0.300623 0.381870 0.930942 0.242874
H2    H     H_    0.251487 0.552426 0.915539 0.234598
H3    H     H_    0.198891 0.422143 0.851039 0.245161
C30   C     C_3   0.728212 0.443933 0.118929 -0.901021
H4    H     H_    0.805470 0.511881 0.139296 0.241078
H5    H     H_    0.752468 0.338650 0.132408 0.243702
H6    H     H_    0.719762 0.450732 0.055854 0.242214
C31   C     C_3   0.283551 0.611308 0.103482 -0.888463
H7    H     H_    0.254624 0.707414 0.128333 0.241861
H8    H     H_    0.299445 0.632505 0.043135 0.237531
H9    H     H_    0.206528 0.537306 0.103953 0.242217
C32   C     C_3   0.731243 0.604239 0.894382 -0.893465
H10   H     H_    0.803191 0.526639 0.892312 0.240612
H11   H     H_    0.765515 0.698603 0.869839 0.244279
H12   H     H_    0.718659 0.626294 0.955274 0.239417
C33   C     C_3   0.273261 0.438793 0.718043 -0.889823
H13   H     H_    0.242719 0.337038 0.734209 0.245380
H14   H     H_    0.200782 0.512462 0.729182 0.238468
H15   H     H_    0.280500 0.436804 0.655556 0.235509
C34   C     C_3   0.721787 0.428330 0.287488 -0.871786
H16   H     H_    0.805426 0.410157 0.256618 0.244876
H17   H     H_    0.746596 0.507955 0.330457 0.227300
H18   H     H_    0.700293 0.334202 0.317240 0.242896
C35   C     C_3   0.271123 0.564845 0.265812 -0.907651
H19   H     H_    0.197085 0.499851 0.238210 0.245454
H20   H     H_    0.275224 0.541528 0.327450 0.217408
H21   H     H_    0.244159 0.671111 0.259608 0.248444
C36   C     C_3   0.734040 0.558392 0.730711 -0.901217
H22   H     H_    0.765003 0.664530 0.735701 0.245438
H23   H     H_    0.806534 0.493634 0.757893 0.244731
H24   H     H_    0.727210 0.531181 0.669250 0.221719
C37   C     C_3   0.622773 0.149774 0.625762 -0.803379
H25   H     H_    0.671087 0.240186 0.607386 0.266992
H26   H     H_    0.551010 0.174421 0.665443 0.251038
H27   H     H_    0.694359 0.095753 0.660326 0.200698
C38   C     C_3   0.346191 0.854126 0.386615 -0.840885
H28   H     H_    0.333739 0.748655 0.398205 0.295158
H29   H     H_    0.251794 0.895332 0.387364 0.201625
H30   H     H_    0.380819 0.863704 0.328754 0.234251
C39   C     C_3   0.386503 0.140588 0.371870 -0.831150
H31   H     H_    0.344295 0.232995 0.389394 0.282258
H32   H     H_    0.461296 0.161248 0.333371 0.247147
H33   H     H_    0.311859 0.086365 0.338122 0.213090
C40   C     C_3   0.646628 0.859132 0.616630 -0.845506
H34   H     H_    0.662960 0.754990 0.602693 0.293605
H35   H     H_    0.741007 0.902935 0.622432 0.192330
H36   H     H_    0.603720 0.865191 0.672199 0.239980
C41   C     C_3   0.113520 0.292735 0.409062 -0.903835
H37   H     H_    0.176192 0.346946 0.372452 0.227970
H38   H     H_    0.160273 0.211188 0.441930 0.260316
H39   H     H_    0.041465 0.247936 0.368298 0.241956
C42   C     C_3   0.885975 0.758839 0.481158 -0.839985
H40   H     H_    0.821308 0.753182 0.429333 0.251926
H41   H     H_    0.839843 0.797747 0.530537 0.249010
H42   H     H_    0.958431 0.832611 0.467482 0.228195
C43   C     C_3   0.875449 0.240970 0.473905 -0.829065
H43   H     H_    0.836200 0.220107 0.529283 0.244150
H44   H     H_    0.803949 0.231620 0.425855 0.249297
H45   H     H_    0.942106 0.159144 0.467653 0.227758
C44   C     C_3   0.128587 0.728616 0.565482 -0.838121
H46   H     H_    0.195600 0.688217 0.609897 0.245500
H47   H     H_    0.175682 0.798535 0.527697 0.257136
H48   H     H_    0.061101 0.786543 0.596731 0.229030

loop_
_geom_bond_atom_site_label_1
_geom_bond_atom_site_label_2
_ccdc_geom_bond_type
C42   H40   S    
C36   H24   S    
C37   H26   S    
C37   H25   S    
C14   C18   A    
C43   H45   S    
C13   C29   S    
C39   H31   S    
C33   H13   S    
C30   H5    S    
C38   H28   S    
C7    C11   A    
O3    Zn1   S    
C10   O7    A    
O4    Zn2   S    
C9    C22   S    
C32   H12   S    
C1    O1    A    
C2    O2    A    
C29   H1    S    
C23   C26   A    
C36   H23   S    
C16   C32   S    
C39   H32   S    
C15   C19   A    
C35   H20   S    
C41   H38   S    
C8    C44   S    
C16   C20   A    
C35   H21   S    
C16   C27   A    
C38   H29   S    
C44   H47   S    
C25   C39   S    
C29   H2    S    
C34   H16   S    
C1    C12   S    
C23   C37   S    
C2    C11   S    
C43   H44   S    
C1    O4    A    
C43   H43   S    
C14   C30   S    
C32   H11   S    
C10   C21   S    
C40   H35   S    
C44   H46   S    
O6    Zn2   S    
C19   C22   A    
C24   C25   A    
C5    C12   A    
C6    C11   A    
C5    C7    A    
C33   H15   S    
C6    C8    A    
C30   H6    S    
C31   H8    S    
C40   H34   S    
C17   C21   A    
C34   H18   S    
O5    Zn1   S    
C23   N2    A    
C8    C12   A    
C6    C42   S    
N1    Zn1   S    
C34   H17   S    
N2    Zn2   S    
C41   H39   S    
C2    O3    A    
C31   H7    S    
C42   H42   S    
O2    Zn2   S    
C37   H27   S    
C20   C36   S    
C3    C4    T    
C39   H33   S    
C40   H36   S    
C38   H30   S    
C25   N2    A    
C7    C43   S    
C18   C22   A    
C31   H9    S    
C18   C34   S    
C32   H10   S    
C44   H48   S    
C13   C17   A    
C3    C27   S    
O7    Zn1   S    
O8    Zn2   S    
C15   C28   A    
C26   C40   S    
C9    O8    A    
C29   H3    S    
O1    Zn1   S    
C19   C35   S    
C15   C31   S    
C36   H22   S    
C33   H14   S    
C30   H4    S    
C24   C38   S    
C24   N1    A    
C20   C21   A    
C26   N1    A    
C42   H41   S    
C35   H19   S    
C4    C28   S    
C9    O5    A    
C13   C27   A    
C10   O6    A    
C14   C28   A    
C41   H37   S    
C5    C41   S    
C17   C33   S    
