data_mof_unit_57169.cif
_audit_creation_date              2012-12-10T17:14:40-0500
_audit_creation_method            fapswitch 2.2
_symmetry_space_group_name_H-M    P1
_symmetry_Int_Tables_number       1
_space_group_crystal_system       triclinic
_cell_length_a                    10.648657
_cell_length_b                    12.953285
_cell_length_c                    11.855578
_cell_angle_alpha                 98.994695
_cell_angle_beta                  93.41407
_cell_angle_gamma                 92.264439
_cell_volume                      1610.3461068

loop_
_atom_site_label
_atom_site_type_symbol
_atom_type_description
_atom_site_fract_x
_atom_site_fract_y
_atom_site_fract_z
_atom_type_partial_charge
C1    C     C_R   0.504837 0.300088 0.479056 0.841499
C2    C     C_R   0.495119 0.699912 0.520951 0.849519
C3    C     C_R   0.447124 0.133835 0.537861 -0.219825
C4    C     C_R   0.552702 0.866166 0.462103 -0.212504
C5    C     C_R   0.459405 0.027450 0.537354 0.172556
C6    C     C_R   0.540425 0.972549 0.462616 0.171166
C7    C     C_R   0.390451 0.393987 0.023894 -0.188821
C8    C     C_R   0.609544 0.606013 0.976103 -0.192759
C9    C     C_R   0.400062 0.402556 0.143791 0.172203
C10   C     C_R   0.599926 0.597450 0.856209 0.170885
C11   C     C_R   0.543128 0.550471 0.155847 0.151528
C12   C     C_R   0.456878 0.449521 0.844148 0.157226
C13   C     C_R   0.538261 0.539796 0.033403 0.002539
C14   C     C_R   0.461743 0.460196 0.966592 -0.000840
C15   C     C_R   0.260126 0.501218 0.500746 0.870334
C16   C     C_R   0.739874 0.498701 0.499249 0.875680
C17   C     C_3   0.046935 0.525789 0.608110 -0.108356
C18   C     C_3   0.953075 0.474059 0.391886 -0.090886
C19   C     C_3   0.960116 0.429356 0.561662 0.362205
C20   C     C_3   0.039914 0.570480 0.438340 0.439156
C21   C     C_3   0.876171 0.497844 0.497780 -0.197744
C22   C     C_3   0.123837 0.501996 0.502217 -0.211018
C23   C     C_3   0.962246 0.595640 0.544489 -0.262628
C24   C     C_3   0.037774 0.404217 0.455487 -0.311643
C25   C     C_R   0.482124 0.812618 0.532171 -0.039419
C26   C     C_R   0.517791 0.187387 0.467855 -0.035566
C27   C     C_R   0.608306 0.024609 0.389347 -0.217460
C28   C     C_R   0.391580 0.975396 0.610665 -0.219306
C29   C     C_R   0.599562 0.132324 0.391718 -0.010317
C30   C     C_R   0.400409 0.867694 0.608372 -0.010283
Cu1   Cu    Cu3+1 0.509400 0.507730 0.615930 0.997646
Cu2   Cu    Cu3+1 0.490600 0.492270 0.384070 0.998860
H1    H     H_    0.930076 0.673876 0.580042 0.196942
H2    H     H_    0.069957 0.326009 0.419855 0.185239
H3    H     H_    0.618653 0.824800 0.407826 0.183445
H4    H     H_    0.381142 0.175204 0.592107 0.172467
H5    H     H_    0.670758 0.981531 0.332163 0.163765
H6    H     H_    0.329153 0.018483 0.667870 0.164760
H7    H     H_    0.324320 0.335462 0.976097 0.220449
H8    H     H_    0.675671 0.664544 0.023899 0.215659
N1    N     N_R   0.523540 0.519360 0.790140 -0.251065
N2    N     N_R   0.476460 0.480640 0.209860 -0.250895
O1    O     O_R   0.506670 0.354460 0.582000 -0.569148
O2    O     O_R   0.493330 0.645540 0.418000 -0.569854
O3    O     O_R   0.490800 0.341410 0.386200 -0.602257
O4    O     O_R   0.509200 0.658590 0.613800 -0.601318
O5    O     O_R   0.324790 0.506500 0.597880 -0.612444
O6    O     O_R   0.675210 0.493500 0.402120 -0.611780
O7    O     O_R   0.308910 0.493440 0.402080 -0.576181
O8    O     O_R   0.691090 0.506560 0.597920 -0.579561
S1    S     S_3+6 0.909910 0.334495 0.645879 0.046634
O9    O     O_2   0.840438 0.387158 0.743893 -0.227256
O10   O     O_2   0.824446 0.251537 0.573921 -0.255690
O11   O     O_3   0.036376 0.279148 0.698109 -0.505822
H9    H     H_    0.083365 0.253760 0.630395 0.324913
S2    S     S_3+6 0.090282 0.665135 0.354116 0.018664
O12   O     O_2   0.178787 0.745980 0.425723 -0.264458
O13   O     O_2   0.155958 0.611882 0.253847 -0.268015
O14   O     O_3   0.963378 0.723054 0.306736 -0.566978
H10   H     H_    0.996824 0.772082 0.258266 0.395053
C31   C     C_2   0.096922 0.553263 0.730444 0.590219
H11   H     H_    0.154499 0.499249 0.768927 0.046206
O15   O     O_2   0.072049 0.635763 0.787575 -0.497120
C32   C     C_2   0.903077 0.446580 0.269552 0.591964
H12   H     H_    0.845559 0.500622 0.231050 0.045805
O16   O     O_2   0.927891 0.364052 0.212439 -0.491883
C33   C     C_2   0.318441 0.817926 0.683662 0.465133
H13   H     H_    0.283087 0.865390 0.757679 0.094765
O17   O     O_2   0.284112 0.725750 0.661859 -0.507540
C34   C     C_2   0.681702 0.182144 0.316614 0.460504
H14   H     H_    0.717016 0.134764 0.242520 0.094204
O18   O     O_2   0.716236 0.274264 0.338687 -0.508303
C35   C     C_2   0.383651 0.359810 0.775334 0.405480
H15   H     H_    0.313899 0.370725 0.709024 0.067846
O19   O     O_2   0.402507 0.270887 0.792002 -0.542212
C36   C     C_2   0.616348 0.640188 0.224649 0.399189
H16   H     H_    0.686162 0.629280 0.290918 0.092804
O20   O     O_2   0.597441 0.729107 0.207995 -0.544975
C37   C     C_2   0.676234 0.675421 0.806346 0.443847
H17   H     H_    0.705920 0.660532 0.720760 0.110484
O21   O     O_2   0.709129 0.760302 0.862954 -0.525739
C38   C     C_2   0.323726 0.324599 0.193656 0.446297
H18   H     H_    0.294112 0.339464 0.279266 0.108142
O22   O     O_2   0.290716 0.239757 0.137021 -0.524020

loop_
_geom_bond_atom_site_label_1
_geom_bond_atom_site_label_2
_ccdc_geom_bond_type
C16   C21   S    
C27   C29   A    
C18   C21   S    
C35   O19   D    
C35   H15   S    
C15   O5    A    
C20   S2    S    
C18   C32   S    
C16   O6    A    
C4    C25   A    
C2    O4    A    
C9    N2    A    
C17   C23   S    
Cu1   O1    S    
C18   C24   S    
C19   C21   S    
C36   O20   D    
C11   C36   S    
C5    C6    A    
S2    O12   D    
C11   N2    A    
Cu2   O3    S    
C31   O15   D    
C17   C31   S    
C1    O1    A    
C15   C22   S    
Cu1   Cu2   S    
C2    O2    A    
C23   H1    S    
Cu1   O4    S    
C34   H14   S    
C30   C33   S    
C9    C38   S    
C4    H3    S    
O14   H10   S    
Cu1   O5    S    
C13   C14   A    
C10   N1    A    
Cu2   O6    S    
C7    C14   A    
C33   H13   S    
C36   H16   S    
C4    C6    A    
C37   O21   D    
C24   H2    S    
S1    O9    D    
S1    O10   D    
C32   O16   D    
C12   N1    A    
C5    C28   A    
C6    C27   A    
C20   C23   S    
C28   H6    S    
Cu2   O2    S    
C20   C22   S    
C38   O22   D    
C21   C23   S    
C1    C26   S    
C22   C24   S    
Cu1   O8    S    
C29   C34   S    
C25   C30   A    
C7    C9    A    
O11   H9    S    
C7    H7    S    
Cu1   N1    S    
C3    C26   A    
C16   O8    A    
C3    C5    A    
C10   C37   S    
C17   C22   S    
S2    O14   S    
S1    O11   S    
C32   H12   S    
C28   C30   A    
C19   C24   S    
C12   C14   A    
C11   C13   A    
C1    O3    A    
C3    H4    S    
C27   H5    S    
C17   C19   S    
S2    O13   D    
C2    C25   S    
C18   C20   S    
C15   O7    A    
C31   H11   S    
Cu2   O7    S    
C37   H17   S    
C8    C13   A    
C19   S1    S    
C26   C29   A    
C8    C10   A    
C38   H18   S    
Cu2   N2    S    
C34   O18   D    
C8    H8    S    
C33   O17   D    
C12   C35   S    
