data_mof_unit_26287.cif
_audit_creation_date              2012-12-10T20:48:46-0500
_audit_creation_method            fapswitch 2.2
_symmetry_space_group_name_H-M    P1
_symmetry_Int_Tables_number       1
_space_group_crystal_system       triclinic
_cell_length_a                    15.769953
_cell_length_b                    8.928075
_cell_length_c                    8.114075
_cell_angle_alpha                 89.979633
_cell_angle_beta                  89.79993
_cell_angle_gamma                 90.01029
_cell_volume                      1142.41675576

loop_
_atom_site_label
_atom_site_type_symbol
_atom_type_description
_atom_site_fract_x
_atom_site_fract_y
_atom_site_fract_z
_atom_type_partial_charge
C1    C     C_R   0.500008 0.218014 0.500017 0.928909
C2    C     C_3   0.049804 0.356202 0.410276 0.318738
C3    C     C_3   0.951056 0.488374 0.681448 0.307624
C4    C     C_3   0.950610 0.356947 0.405248 0.327688
C5    C     C_1   0.750843 0.499664 0.498966 -0.186539
C6    C     C_1   0.249144 0.499505 0.501274 -0.186586
C7    C     C_3   0.082558 0.498091 0.503250 0.051003
C8    C     C_3   0.917284 0.498353 0.499173 0.008250
C9    C     C_3   0.952186 0.638025 0.406359 -0.421323
C10   C     C_3   0.049576 0.641231 0.416134 -0.395413
C11   C     C_3   0.111277 0.209368 0.203992 -0.281436
C12   C     C_1   0.825992 0.499117 0.498596 0.029525
C13   C     C_3   0.098521 0.588471 0.935355 -0.193686
C14   C     C_3   0.869162 0.235565 0.204688 -0.255194
C15   C     C_3   0.902143 0.729656 0.769390 -0.197024
C16   C     C_1   0.173996 0.498935 0.502420 0.046108
C17   C     C_R   0.337851 0.499986 0.500312 0.891101
C18   C     C_R   0.662146 0.500051 0.499706 0.887287
C19   C     C_1   0.500017 0.934781 0.499971 -0.197016
C20   C     C_1   0.500016 0.065195 0.500023 -0.198465
C21   C     C_R   0.500011 0.781962 0.499981 0.932656
C22   C     C_3   0.049847 0.495270 0.684547 0.251518
H1    H     H_    0.070286 0.743314 0.483524 0.201842
H2    H     H_    0.167472 0.176249 0.277963 0.154387
H3    H     H_    0.130364 0.210124 0.072282 0.176072
H4    H     H_    0.042353 0.540295 0.999438 0.242655
H5    H     H_    0.116236 0.693295 0.999893 0.153789
H6    H     H_    0.153393 0.510571 0.943078 0.170565
H7    H     H_    0.811268 0.237528 0.283285 0.150652
H8    H     H_    0.903856 0.128232 0.221274 0.129100
H9    H     H_    0.848773 0.242198 0.074188 0.192302
H10   H     H_    0.846471 0.750177 0.689372 0.141825
H11   H     H_    0.960487 0.779387 0.716444 0.189060
H12   H     H_    0.076574 0.649593 0.289821 0.191691
H13   H     H_    0.889804 0.789751 0.886650 0.159048
H14   H     H_    0.925255 0.744757 0.451717 0.149226
H15   H     H_    0.933135 0.633977 0.274506 0.240715
H16   H     H_    0.935921 0.371914 0.721183 0.038640
H17   H     H_    0.928598 0.255001 0.473674 -0.033427
H18   H     H_    0.074123 0.389006 0.740921 0.018818
H19   H     H_    0.070317 0.256743 0.484355 -0.026272
H20   H     H_    0.059561 0.125721 0.218987 0.153792
N1    N     N_1   0.500000 0.500030 0.073640 -0.031518
N2    N     N_1   0.500000 0.500030 0.926360 -0.031328
O1    O     O_R   0.500000 0.285340 0.636850 -0.616176
O2    O     O_3   0.080092 0.623420 0.769862 -0.602008
O3    O     O_3   0.921960 0.359202 0.238809 -0.536193
O4    O     O_3   0.909687 0.575728 0.805311 -0.563674
O5    O     O_R   0.500000 0.285340 0.363150 -0.616867
O6    O     O_R   0.377140 0.500000 0.636930 -0.614365
O7    O     O_R   0.377140 0.500000 0.363070 -0.613812
O8    O     O_R   0.622860 0.500000 0.636930 -0.609093
O9    O     O_R   0.622860 0.500000 0.363070 -0.612439
O10   O     O_R   0.500000 0.714650 0.636900 -0.614677
O11   O     O_R   0.500000 0.714650 0.363100 -0.615738
O12   O     O_3   0.084081 0.354496 0.247843 -0.567191
Zn1   Zn    Zn3+2 0.500000 0.499990 0.682780 0.992475
Zn2   Zn    Zn3+2 0.500000 0.499990 0.317220 0.990399

loop_
_geom_bond_atom_site_label_1
_geom_bond_atom_site_label_2
_ccdc_geom_bond_type
C17   O6    A    
C7    C10   S    
C2    C4    S    
N1    N2    T    
C13   H6    S    
C14   O3    S    
O9    Zn2   S    
C10   H1    S    
C9    H14   S    
C7    C22   S    
C3    O4    S    
C9    C10   S    
C14   H9    S    
C19   C20   T    
N1    Zn2   S    
C4    H17   S    
C8    C12   S    
N2    Zn1   S    
C4    C8    S    
C22   H18   S    
C17   O7    A    
C9    H15   S    
C18   O8    A    
C15   H10   S    
C10   H12   S    
O7    Zn2   S    
C2    O12   S    
C4    O3    S    
O1    Zn1   S    
C13   O2    S    
C11   O12   S    
C15   O4    S    
C14   H8    S    
C15   H13   S    
C7    C16   S    
C22   O2    S    
C21   O10   A    
C13   H4    S    
O11   Zn2   S    
O8    Zn1   S    
C11   H3    S    
C2    H19   S    
C6    C16   T    
C11   H2    S    
C11   H20   S    
C3    C8    S    
C1    O1    A    
C21   O11   A    
C6    C17   S    
C13   H5    S    
C3    C22   S    
C5    C18   S    
C14   H7    S    
C18   O9    A    
C19   C21   S    
O6    Zn1   S    
C1    O5    A    
C15   H11   S    
O5    Zn2   S    
C2    C7    S    
C3    H16   S    
C8    C9    S    
C1    C20   S    
O10   Zn1   S    
C5    C12   T    
