data_mof_unit_13634.cif
_audit_creation_date              2012-12-10T20:39:55-0500
_audit_creation_method            fapswitch 2.2
_symmetry_space_group_name_H-M    P1
_symmetry_Int_Tables_number       1
_space_group_crystal_system       triclinic
_cell_length_a                    23.435933
_cell_length_b                    10.670736
_cell_length_c                    9.848187
_cell_angle_alpha                 89.88339
_cell_angle_beta                  89.928384
_cell_angle_gamma                 90.092064
_cell_volume                      2462.81113488

loop_
_atom_site_label
_atom_site_type_symbol
_atom_type_description
_atom_site_fract_x
_atom_site_fract_y
_atom_site_fract_z
_atom_type_partial_charge
C1    C     C_R   0.501789 0.259876 0.500112 0.887325
C2    C     C_R   0.971626 0.263184 0.492572 0.093579
C3    C     C_R   0.031055 0.267176 0.492211 -0.125792
C4    C     C_R   0.060357 0.381446 0.494640 -0.069286
C5    C     C_R   0.029804 0.494692 0.497489 -0.021105
C6    C     C_R   0.059326 0.610089 0.499939 -0.012902
C7    C     C_R   0.028876 0.722957 0.502846 -0.157081
C8    C     C_R   0.969630 0.721704 0.503362 -0.156639
C9    C     C_R   0.119960 0.385465 0.494272 0.524468
C10   C     C_R   0.118901 0.609379 0.499563 0.526060
C11   C     C_R   0.238071 0.518820 0.375029 0.155696
C12   C     C_R   0.389268 0.500302 0.499985 0.886241
C13   C     C_R   0.297531 0.519577 0.376757 -0.264538
C14   C     C_R   0.326992 0.500967 0.499180 -0.057320
C15   C     C_R   0.296492 0.482532 0.620172 -0.215902
C16   C     C_R   0.237314 0.481805 0.618739 -0.151452
C17   C     C_R   0.208224 0.499753 0.496629 0.336252
C18   C     C_R   0.762192 0.499111 0.622529 -0.105369
C19   C     C_R   0.702973 0.500970 0.622984 -0.212757
C20   C     C_R   0.672953 0.498807 0.499661 -0.040451
C21   C     C_R   0.702898 0.494830 0.376116 -0.213441
C22   C     C_R   0.762114 0.492854 0.376114 -0.105167
C23   C     C_R   0.501943 0.740077 0.499890 0.887389
C24   C     C_R   0.791554 0.494978 0.499213 0.336536
C25   C     C_R   0.511072 0.063562 0.623319 0.146263
C26   C     C_R   0.511150 0.128557 0.500667 -0.105629
C27   C     C_R   0.522421 0.065104 0.378934 -0.215831
C28   C     C_R   0.522562 0.935516 0.378827 -0.215968
C29   C     C_R   0.511425 0.871368 0.500446 -0.104199
C30   C     C_R   0.511289 0.935740 0.623239 0.129720
C31   C     C_3   0.470615 0.927757 0.740034 -0.469184
C32   C     C_3   0.470194 0.069747 0.739742 -0.492111
C33   C     C_R   0.475392 0.403507 0.071730 0.213944
C34   C     C_R   0.610716 0.499959 0.499884 0.870845
C35   C     C_R   0.528839 0.588957 0.071735 -0.132378
C36   C     C_R   0.528868 0.588933 0.927637 -0.135218
C37   C     C_R   0.475147 0.403828 0.928996 0.217714
C38   C     C_3   0.413751 0.367278 0.924923 -0.518931
C39   C     C_3   0.414367 0.365165 0.078840 -0.498541
C40   C     C_R   0.880419 0.605414 0.501434 0.502388
C41   C     C_R   0.879774 0.381188 0.496030 0.498275
C42   C     C_R   0.939923 0.377033 0.495468 -0.057922
C43   C     C_R   0.969756 0.492854 0.497958 -0.039466
C44   C     C_R   0.939798 0.607551 0.500963 -0.006790
H1    H     H_    0.680829 0.504100 0.719512 0.162961
H2    H     H_    0.680699 0.493044 0.279751 0.163067
H3    H     H_    0.785211 0.489829 0.280869 0.134591
H4    H     H_    0.527026 0.114401 0.283249 0.170588
H5    H     H_    0.527239 0.886710 0.283111 0.165830
H6    H     H_    0.428860 0.885668 0.711631 0.211514
H7    H     H_    0.490846 0.887043 0.832118 0.201358
H8    H     H_    0.428240 0.110043 0.710377 0.203569
H9    H     H_    0.489986 0.111162 0.831888 0.204720
H10   H     H_    0.551208 0.662082 0.125956 0.144406
H11   H     H_    0.054278 0.179413 0.490025 0.201511
H12   H     H_    0.551277 0.661999 0.872958 0.147775
H13   H     H_    0.386424 0.442837 0.883072 0.213554
H14   H     H_    0.407008 0.273361 0.879485 0.201545
H15   H     H_    0.386742 0.438171 0.124770 0.215113
H16   H     H_    0.409111 0.269625 0.122322 0.205599
H17   H     H_    0.050674 0.812540 0.504752 0.195796
H18   H     H_    0.947316 0.810520 0.505641 0.195587
H19   H     H_    0.320357 0.535161 0.282603 0.153080
H20   H     H_    0.318182 0.467831 0.715555 0.155681
H21   H     H_    0.213904 0.467106 0.712336 0.144111
H22   H     H_    0.785352 0.500890 0.717595 0.134603
N1    N     N_R   0.852170 0.493790 0.498943 -0.356280
N2    N     N_R   0.147580 0.498182 0.496695 -0.348234
N3    N     N_R   0.499610 0.499140 0.142800 -0.107319
N4    N     N_R   0.499610 0.499180 0.857150 -0.106040
O1    O     O_R   0.500010 0.316790 0.614690 -0.614834
O2    O     O_2   0.848558 0.275010 0.493846 -0.571793
O3    O     O_2   0.150251 0.278004 0.491166 -0.551075
O4    O     O_2   0.148119 0.718481 0.502307 -0.550186
O5    O     O_R   0.500000 0.316760 0.385350 -0.622669
O6    O     O_R   0.416160 0.499980 0.614700 -0.621497
O7    O     O_R   0.416150 0.499940 0.385360 -0.619572
O8    O     O_R   0.500000 0.683240 0.614650 -0.620404
O9    O     O_R   0.499990 0.683210 0.385310 -0.625207
O10   O     O_R   0.583850 0.500060 0.614640 -0.621972
O11   O     O_R   0.583840 0.500020 0.385300 -0.622972
O12   O     O_2   0.850829 0.713864 0.504182 -0.552555
Zn1   Zn    Zn3+2 0.500000 0.500020 0.653130 0.948994
Zn2   Zn    Zn3+2 0.500000 0.499980 0.346870 0.947506
N5    N     N_3   0.945625 0.141541 0.489952 -0.449022
H23   H     H_    0.920765 0.129536 0.577201 0.242191
H24   H     H_    0.920594 0.133349 0.402662 0.242666
N6    N     N_3   0.207749 0.536665 0.250396 -0.445248
H25   H     H_    0.220668 0.466938 0.182597 0.187623
H26   H     H_    0.219934 0.623255 0.209671 0.200012

loop_
_geom_bond_atom_site_label_1
_geom_bond_atom_site_label_2
_ccdc_geom_bond_type
C27   H4    S    
C10   O4    S    
C41   C42   A    
C19   C20   A    
C7    C8    A    
C41   N1    A    
N5    H23   S    
C26   C27   A    
C29   C30   A    
C18   C24   A    
C23   C29   S    
C28   C29   A    
C5    C6    A    
O5    Zn2   S    
C15   C16   A    
C2    N5    S    
C18   C19   A    
C7    H17   S    
C24   N1    S    
C34   O10   A    
C38   H14   S    
C3    H11   S    
O8    Zn1   S    
C33   C39   S    
C32   H8    S    
C35   C36   A    
C16   C17   A    
C40   N1    A    
C15   H20   S    
C34   O11   A    
C13   C14   A    
C33   N3    A    
C20   C34   S    
C25   C32   S    
C22   H3    S    
C5    C43   A    
C37   N4    A    
C35   H10   S    
C9    O3    S    
O10   Zn1   S    
O6    Zn1   S    
C36   N4    A    
O1    Zn1   S    
N5    H24   S    
C38   C39   S    
C1    O5    A    
C40   O12   S    
C31   H7    S    
O7    Zn2   S    
C25   C26   A    
C33   C37   A    
C43   C44   A    
C37   C38   S    
C36   H12   S    
C38   H13   S    
C28   H5    S    
C31   C32   S    
C13   H19   S    
C11   N6    S    
C39   H15   S    
C12   O7    A    
C1    O1    A    
C20   C21   A    
N4    Zn1   S    
C41   O2    S    
N6    H26   S    
C12   O6    A    
C1    C26   S    
C22   C24   A    
C42   C43   A    
C31   H6    S    
C3    C4    A    
C32   H9    S    
O11   Zn2   S    
C21   H2    S    
C25   C30   A    
C11   C17   A    
C17   N2    S    
C8    C44   A    
C12   C14   S    
C4    C5    A    
C6    C10   A    
C19   H1    S    
C6    C7    A    
C10   N2    A    
C18   H22   S    
C2    C3    A    
C9    N2    A    
N3    Zn2   S    
C11   C13   A    
C30   C31   S    
O9    Zn2   S    
C2    C42   A    
C39   H16   S    
C23   O8    A    
C40   C44   A    
N6    H25   S    
C35   N3    A    
C27   C28   A    
C14   C15   A    
C16   H21   S    
C23   O9    A    
C4    C9    A    
C21   C22   A    
C8    H18   S    
