data_mof_unit_57439.cif
_audit_creation_date              2012-12-10T17:42:11-0500
_audit_creation_method            fapswitch 2.2
_symmetry_space_group_name_H-M    P1
_symmetry_Int_Tables_number       1
_space_group_crystal_system       triclinic
_cell_length_a                    15.105387
_cell_length_b                    13.680082
_cell_length_c                    10.734026
_cell_angle_alpha                 89.934942
_cell_angle_beta                  89.878001
_cell_angle_gamma                 90.239795
_cell_volume                      2218.08470652

loop_
_atom_site_label
_atom_site_type_symbol
_atom_type_description
_atom_site_fract_x
_atom_site_fract_y
_atom_site_fract_z
_atom_type_partial_charge
C1    C     C_R   0.328709 0.500040 0.491418 0.878518
C2    C     C_3   0.582943 0.445564 0.927893 -0.372317
C3    C     C_R   0.815786 0.592167 0.506417 0.382128
C4    C     C_R   0.768784 0.502440 0.509442 -0.184065
C5    C     C_R   0.815243 0.414086 0.518129 -0.326946
C6    C     C_R   0.907558 0.413731 0.517466 0.108960
C7    C     C_R   0.954103 0.502287 0.499904 0.031074
C8    C     C_R   0.908069 0.591488 0.492410 0.006548
C9    C     C_R   0.954115 0.326094 0.532202 -0.192766
C10   C     C_R   0.046427 0.326337 0.530454 -0.189781
C11   C     C_R   0.093067 0.413554 0.508705 0.114715
C12   C     C_R   0.500468 0.500196 0.259587 0.782759
C13   C     C_R   0.046930 0.501630 0.490404 0.029877
C14   C     C_R   0.093243 0.588753 0.461393 -0.009553
C15   C     C_R   0.046300 0.677213 0.455864 -0.127507
C16   C     C_R   0.955103 0.678633 0.472198 -0.217154
C17   C     C_R   0.185162 0.414660 0.508596 -0.315128
C18   C     C_R   0.231919 0.500395 0.478508 -0.205258
C19   C     C_R   0.185209 0.585075 0.439902 0.388008
C20   C     C_R   0.450106 0.792952 0.585701 0.045677
C21   C     C_R   0.448990 0.206407 0.584420 0.006191
C22   C     C_R   0.549852 0.793523 0.414222 0.037694
C23   C     C_R   0.550966 0.207030 0.415570 0.005737
C24   C     C_R   0.551442 0.896618 0.412616 -0.017423
C25   C     C_R   0.551996 0.103924 0.413296 -0.005038
C26   C     C_R   0.671632 0.500502 0.503853 0.828320
C27   C     C_R   0.500062 0.948117 0.500042 0.072833
C28   C     C_R   0.500063 0.051793 0.500061 0.095462
C29   C     C_R   0.448663 0.896008 0.587442 -0.019792
C30   C     C_R   0.448103 0.103289 0.586816 -0.006680
C31   C     C_R   0.603085 0.949200 0.326264 -0.187832
C32   C     C_R   0.603468 0.051944 0.326720 -0.207433
C33   C     C_R   0.396737 0.050681 0.673500 -0.205955
C34   C     C_R   0.397142 0.947949 0.673952 -0.174714
C35   C     C_R   0.500412 0.500127 0.740400 0.742846
C36   C     C_3   0.503916 0.607253 0.071040 -0.356763
C37   C     C_3   0.415818 0.450206 0.072154 -0.360472
C38   C     C_3   0.503634 0.607201 0.928410 -0.378766
C39   C     C_3   0.415857 0.450055 0.928417 -0.388839
C40   C     C_3   0.582865 0.445456 0.071734 -0.392812
C41   C     C_3   0.500749 0.500792 0.121710 0.147410
C42   C     C_3   0.500732 0.500688 0.878225 0.162883
Cu1   Cu    Cu3+1 0.499990 0.597420 0.500010 0.991254
Cu2   Cu    Cu3+1 0.499990 0.402580 0.500010 0.929609
H1    H     H_    0.564639 0.645225 0.104804 0.156511
H2    H     H_    0.411964 0.373555 0.106707 0.170031
H3    H     H_    0.081330 0.258169 0.544482 0.142984
H4    H     H_    0.220468 0.348322 0.532201 0.175694
H5    H     H_    0.079717 0.746546 0.443057 0.210051
H6    H     H_    0.921501 0.748315 0.467093 0.186042
H7    H     H_    0.410948 0.751744 0.652211 0.139522
H8    H     H_    0.409121 0.247143 0.650100 0.123077
H9    H     H_    0.589107 0.752759 0.347860 0.139539
H10   H     H_    0.590824 0.248251 0.349880 0.124929
H11   H     H_    0.643216 0.910895 0.258448 0.140160
H12   H     H_    0.643880 0.090725 0.259220 0.136041
H13   H     H_    0.356355 0.088961 0.741043 0.137803
H14   H     H_    0.357062 0.909146 0.741821 0.146684
H15   H     H_    0.445832 0.649290 0.105173 0.218149
H16   H     H_    0.356062 0.488979 0.106889 0.196773
H17   H     H_    0.445123 0.648754 0.894667 0.173537
H18   H     H_    0.356110 0.488762 0.893643 0.161292
H19   H     H_    0.564066 0.645506 0.893709 0.166184
H20   H     H_    0.412130 0.373333 0.894310 0.166663
H21   H     H_    0.644577 0.480755 0.106445 0.154033
H22   H     H_    0.582487 0.368634 0.106042 0.168831
H23   H     H_    0.644583 0.481150 0.892897 0.146227
H24   H     H_    0.582812 0.368796 0.893640 0.174183
H25   H     H_    0.779619 0.345365 0.525982 0.178640
H26   H     H_    0.919177 0.257645 0.546585 0.141464
N1    N     N_R   0.499930 0.743810 0.499950 -0.185122
N2    N     N_R   0.499930 0.256190 0.499950 -0.182685
O1    O     O_R   0.370250 0.582280 0.500040 -0.510722
O2    O     O_R   0.370250 0.417720 0.500040 -0.599001
O3    O     O_R   0.499970 0.582270 0.317700 -0.567091
O4    O     O_R   0.499970 0.417730 0.317700 -0.599740
O5    O     O_R   0.629730 0.582260 0.499980 -0.540136
O6    O     O_R   0.629730 0.417740 0.499980 -0.595589
O7    O     O_R   0.500000 0.582270 0.682320 -0.607448
O8    O     O_R   0.500000 0.417730 0.682320 -0.594146
S1    S     S_3+6 0.237059 0.678261 0.347768 -0.019810
O9    O     O_2   0.314180 0.637547 0.276448 -0.326347
O10   O     O_2   0.172412 0.719384 0.255367 -0.305572
O11   O     O_3   0.272058 0.768431 0.442017 -0.551628
H27   H     H_    0.303312 0.815104 0.386482 0.372215
O12   O     O_3   0.771738 0.680581 0.514565 -0.572951
C43   C     C_3   0.770495 0.709299 0.641158 0.076230
H28   H     H_    0.838975 0.718964 0.677649 0.135763
H29   H     H_    0.734919 0.654272 0.699619 0.133456
C44   C     C_3   0.722881 0.806511 0.653769 -0.771569
H30   H     H_    0.651854 0.797225 0.631062 0.251182
H31   H     H_    0.728210 0.833230 0.751118 0.191495
H32   H     H_    0.752814 0.861589 0.590101 0.248661

loop_
_geom_bond_atom_site_label_1
_geom_bond_atom_site_label_2
_ccdc_geom_bond_type
Cu1   O1    S    
C43   H28   S    
C27   C29   A    
C17   H4    S    
C36   H15   S    
C6    C9    A    
S1    O9    D    
C7    C8    A    
C25   C28   A    
C39   H20   S    
C1    C18   S    
C26   O6    A    
C44   H32   S    
C1    O2    A    
C16   H6    S    
C38   C42   S    
C20   H7    S    
C2    H24   S    
C5    C6    A    
Cu1   O7    S    
C15   C16   A    
C35   O8    A    
C18   C19   A    
C35   O7    A    
Cu2   O4    S    
C35   C42   S    
C5    H25   S    
C33   H13   S    
C24   C27   A    
C20   N1    A    
C39   C42   S    
C9    C10   A    
C38   H17   S    
C25   C32   A    
C23   C25   A    
C8    C16   A    
C40   H22   S    
C13   C14   A    
C3    O12   S    
C36   C41   S    
C23   N2    A    
S1    O10   D    
C17   C18   A    
C22   H9    S    
C20   C29   A    
Cu1   O3    S    
C26   O5    A    
C21   N2    A    
Cu2   O8    S    
O11   H27   S    
C3    C8    A    
O12   C43   S    
C29   C34   A    
Cu1   Cu2   S    
C12   C41   S    
C44   H31   S    
C31   C32   A    
C33   C34   A    
C36   H1    S    
C9    H26   S    
Cu2   O2    S    
C40   C41   S    
C2    H23   S    
C40   H21   S    
C12   O4    A    
C22   C24   A    
C43   C44   S    
C3    C4    A    
C22   N1    A    
C10   H3    S    
S1    O11   S    
C23   H10   S    
C38   H19   S    
C39   H18   S    
C11   C17   A    
Cu1   N1    S    
C30   C33   A    
C14   C19   A    
C4    C5    A    
C4    C26   S    
C6    C7    A    
Cu1   O5    S    
C21   C30   A    
C1    O1    A    
Cu2   O6    S    
C24   C31   A    
C28   C30   A    
C37   C39   S    
C11   C13   A    
C44   H30   S    
C2    C42   S    
C36   C38   S    
Cu2   N2    S    
C15   H5    S    
C37   C41   S    
C37   H16   S    
C10   C11   A    
C2    C40   S    
C7    C13   A    
C12   O3    A    
C27   C28   A    
C34   H14   S    
C43   H29   S    
C14   C15   A    
C31   H11   S    
C37   H2    S    
C19   S1    S    
C32   H12   S    
C21   H8    S    
