data_mof_unit_60934.cif
_audit_creation_date              2012-12-10T17:01:22-0500
_audit_creation_method            fapswitch 2.2
_symmetry_space_group_name_H-M    P1
_symmetry_Int_Tables_number       1
_space_group_crystal_system       triclinic
_cell_length_a                    20.075169
_cell_length_b                    22.513906
_cell_length_c                    15.091955
_cell_angle_alpha                 89.930671
_cell_angle_beta                  90.44562
_cell_angle_gamma                 90.019447
_cell_volume                      6820.90629262

loop_
_atom_site_label
_atom_site_type_symbol
_atom_type_description
_atom_site_fract_x
_atom_site_fract_y
_atom_site_fract_z
_atom_type_partial_charge
C1    C     C_R   0.373007 0.885568 0.485023 0.517339
C2    C     C_R   0.266236 0.754295 0.540375 0.041963
C3    C     C_R   0.766102 0.745512 0.540376 0.041934
C4    C     C_R   0.781285 0.242230 0.516441 0.044049
C5    C     C_R   0.310279 0.198142 0.548869 -0.116906
C6    C     C_R   0.309968 0.802030 0.549110 -0.114706
C7    C     C_R   0.809853 0.697787 0.549103 -0.114912
C8    C     C_R   0.832300 0.284145 0.513823 -0.119559
C9    C     C_R   0.294240 0.174095 0.393351 -0.128219
C10   C     C_R   0.294914 0.825578 0.393159 -0.127942
C11   C     C_R   0.794758 0.674446 0.393182 -0.128853
C12   C     C_R   0.373002 0.114426 0.484974 0.512434
C13   C     C_R   0.754703 0.357754 0.456550 -0.121175
C14   C     C_R   0.251476 0.222461 0.383535 -0.134779
C15   C     C_R   0.252307 0.777109 0.383328 -0.132859
C16   C     C_R   0.752126 0.722902 0.383361 -0.133156
C17   C     C_R   0.703028 0.316531 0.460915 -0.132603
C18   C     C_R   0.519688 0.002651 0.163447 0.026272
C19   C     C_R   0.019682 0.497269 0.163457 0.026906
C20   C     C_R   0.475713 0.999288 0.834577 0.011364
C21   C     C_R   0.975679 0.500511 0.834573 0.012381
C22   C     C_R   0.413572 0.973935 0.966365 -0.134917
C23   C     C_R   0.872488 0.385983 0.485841 0.512844
C24   C     C_R   0.913586 0.525939 0.966263 -0.133908
C25   C     C_R   0.416476 0.977647 0.873782 0.044055
C26   C     C_R   0.916482 0.522206 0.873698 0.044992
C27   C     C_R   0.529885 0.016819 0.887052 -0.148065
C28   C     C_R   0.029811 0.482915 0.887117 -0.148125
C29   C     C_R   0.627323 0.113705 0.514867 0.494644
C30   C     C_R   0.627191 0.886141 0.515097 0.494571
C31   C     C_R   0.127205 0.613806 0.515098 0.495119
C32   C     C_R   0.127181 0.386141 0.515074 0.494644
C33   C     C_R   0.526891 0.012064 0.978908 0.044837
C34   C     C_R   0.872988 0.614406 0.485006 0.516275
C35   C     C_R   0.026832 0.487704 0.978958 0.045427
C36   C     C_R   0.468138 0.990829 0.018821 0.013377
C37   C     C_R   0.968127 0.509023 0.018783 0.013792
C38   C     C_R   0.464745 0.986741 0.110874 -0.120620
C39   C     C_R   0.964760 0.513186 0.110815 -0.119039
C40   C     C_R   0.578532 0.022464 0.123398 -0.126771
C41   C     C_R   0.078477 0.477359 0.123495 -0.127864
C42   C     C_R   0.581973 0.027528 0.031536 -0.128065
C43   C     C_R   0.081891 0.472219 0.031655 -0.128711
C44   C     C_R   0.514416 0.000230 0.259970 0.500404
C45   C     C_R   0.737749 0.758806 0.456475 0.046638
C46   C     C_R   0.014416 0.499756 0.259970 0.500513
C47   C     C_R   0.484646 0.999908 0.739231 0.544772
C48   C     C_R   0.984654 0.500026 0.739233 0.544472
C49   C     C_R   0.324369 0.162275 0.475709 0.025610
C50   C     C_R   0.324474 0.837677 0.475743 0.025941
C51   C     C_R   0.824371 0.662252 0.475741 0.025480
C52   C     C_R   0.819222 0.341878 0.484023 0.027641
C53   C     C_R   0.677593 0.840281 0.522362 0.038304
C54   C     C_R   0.678987 0.158520 0.519981 0.038248
C55   C     C_R   0.177594 0.340307 0.522270 0.039040
C56   C     C_R   0.715814 0.258771 0.491080 0.046761
C57   C     C_R   0.177680 0.659581 0.522364 0.038987
C58   C     C_R   0.749738 0.779804 0.614394 -0.130369
C59   C     C_R   0.794825 0.183876 0.543171 -0.131426
C60   C     C_R   0.250437 0.280353 0.614057 -0.131331
C61   C     C_R   0.249845 0.719902 0.614407 -0.130100
C62   C     C_R   0.704762 0.826470 0.605577 -0.122507
C63   C     C_R   0.743946 0.141925 0.543543 -0.123340
C64   C     C_R   0.205312 0.326907 0.605309 -0.122803
C65   C     C_R   0.204837 0.673258 0.605590 -0.121629
C66   C     C_R   0.694566 0.807108 0.447695 -0.118202
C67   C     C_R   0.237483 0.258650 0.456471 0.046441
C68   C     C_R   0.664621 0.216886 0.494843 -0.118425
C69   C     C_R   0.194146 0.306840 0.447725 -0.119812
C70   C     C_R   0.194705 0.692828 0.447682 -0.118018
C71   C     C_2   0.356777 0.959356 0.821043 0.573230
C72   C     C_2   0.856822 0.540554 0.820885 0.574761
C73   C     C_R   0.237909 0.741109 0.456458 0.046639
C74   C     C_R   0.266395 0.245767 0.540176 0.042757
H1    H     H_    0.333082 0.188652 0.612732 0.130254
H2    H     H_    0.270812 0.729750 0.679130 0.117049
H3    H     H_    0.770721 0.769874 0.679111 0.117028
H4    H     H_    0.844791 0.170519 0.562184 0.112590
H5    H     H_    0.672137 0.817510 0.383916 0.106905
H6    H     H_    0.614317 0.228882 0.475083 0.106410
H7    H     H_    0.171306 0.316951 0.384095 0.103661
H8    H     H_    0.172277 0.682516 0.383900 0.106812
H9    H     H_    0.368637 0.958023 0.997972 0.155182
H10   H     H_    0.868684 0.541907 0.997805 0.155534
H11   H     H_    0.269792 0.914308 0.818001 0.341432
H12   H     H_    0.332328 0.811781 0.613134 0.136184
H13   H     H_    0.769948 0.585722 0.817646 0.341334
H14   H     H_    0.305111 0.146854 0.336149 0.134146
H15   H     H_    0.306137 0.852670 0.335817 0.132984
H16   H     H_    0.805970 0.647449 0.335842 0.132737
H17   H     H_    0.743954 0.402433 0.433903 0.137995
H18   H     H_    0.730398 0.732230 0.318881 0.113067
H19   H     H_    0.653282 0.329713 0.440632 0.112566
H20   H     H_    0.229327 0.231482 0.319208 0.110545
H21   H     H_    0.230600 0.767858 0.318839 0.113140
H22   H     H_    0.691038 0.851860 0.663585 0.117243
H23   H     H_    0.832240 0.687971 0.613118 0.136179
H24   H     H_    0.755105 0.096498 0.562225 0.117506
H25   H     H_    0.191919 0.352541 0.663219 0.114030
H26   H     H_    0.191061 0.647793 0.663604 0.117442
H27   H     H_    0.419406 0.970900 0.141590 0.126532
H28   H     H_    0.919458 0.529096 0.141461 0.127014
H29   H     H_    0.621370 0.035132 0.163153 0.137563
H30   H     H_    0.121294 0.464673 0.163307 0.134828
H31   H     H_    0.882330 0.271747 0.534250 0.123906
H32   H     H_    0.627530 0.043538 0.001733 0.111125
H33   H     H_    0.127412 0.456143 0.001921 0.108562
H34   H     H_    0.575132 0.032580 0.855898 0.104158
H35   H     H_    0.075032 0.467117 0.856023 0.101114
H36   H     H_    0.271859 0.270741 0.678628 0.112436
O1    O     O_3   0.500000 1.000000 0.500000 -0.444046
O2    O     O_R   0.135640 0.430410 0.463140 -0.542066
O3    O     O_R   0.456890 1.000000 0.295720 -0.551824
O4    O     O_R   0.956890 0.500000 0.295720 -0.549168
O5    O     O_R   0.488070 0.049450 0.698020 -0.530806
O6    O     O_R   0.488070 0.950550 0.698020 -0.521857
O7    O     O_R   0.988070 0.549450 0.698020 -0.522193
O8    O     O_R   0.988070 0.450550 0.698020 -0.530278
O9    O     O_R   0.370630 0.069610 0.433010 -0.540030
O10   O     O_R   0.370630 0.930390 0.433010 -0.541861
O11   O     O_R   0.870630 0.569610 0.433010 -0.544527
O12   O     O_3   0.000000 0.500000 0.500000 -0.444107
O13   O     O_R   0.870630 0.430390 0.433010 -0.541892
O14   O     O_R   0.574320 0.880940 0.560740 -0.542889
O15   O     O_R   0.574320 0.119060 0.560740 -0.543976
O16   O     O_R   0.074320 0.380940 0.560740 -0.545551
O17   O     O_R   0.074320 0.619060 0.560740 -0.543048
O18   O     O_R   0.566990 0.000000 0.308240 -0.544434
O19   O     O_R   0.066990 0.500000 0.308240 -0.546255
O20   O     O_2   0.349276 0.975986 0.744444 -0.517609
O21   O     O_R   0.308030 0.923643 0.860019 -0.711646
O22   O     O_2   0.849270 0.523891 0.744369 -0.515960
O23   O     O_R   0.419410 0.880950 0.543120 -0.530921
O24   O     O_R   0.808167 0.576354 0.859701 -0.711559
O25   O     O_R   0.419410 0.119050 0.543120 -0.538761
O26   O     O_R   0.919410 0.380950 0.543120 -0.535265
O27   O     O_R   0.919410 0.619050 0.543120 -0.530438
O28   O     O_R   0.635640 0.069590 0.463140 -0.541881
O29   O     O_R   0.635640 0.930410 0.463140 -0.542701
O30   O     O_R   0.135640 0.569590 0.463140 -0.541143
Zn1   Zn    Zn3+2 0.583120 1.000000 0.434770 0.931480
Zn2   Zn    Zn3+2 0.083120 0.500000 0.434770 0.931451
Zn3   Zn    Zn3+2 0.425830 0.000000 0.416880 0.948799
Zn4   Zn    Zn3+2 0.925830 0.500000 0.416880 0.948218
Zn5   Zn    Zn3+2 0.495530 0.070660 0.574170 0.958179
Zn6   Zn    Zn3+2 0.495530 0.929340 0.574170 0.969086
Zn7   Zn    Zn3+2 0.995530 0.570660 0.574170 0.968688
Zn8   Zn    Zn3+2 0.995530 0.429340 0.574170 0.959456

loop_
_geom_bond_atom_site_label_1
_geom_bond_atom_site_label_2
_ccdc_geom_bond_type
C58   C62   A    
C21   C26   A    
C68   H6    S    
C62   H22   S    
C26   C72   S    
O11   Zn4   S    
O12   Zn4   S    
C4    C8    A    
C8    H31   S    
O26   Zn8   S    
C46   O19   A    
C12   C49   S    
C19   C46   S    
C27   C33   A    
C47   O5    A    
C29   O28   A    
C60   C74   A    
C34   C51   S    
C23   O26   A    
C33   C42   A    
C35   C37   A    
C24   C26   A    
C63   H24   S    
C3    C7    A    
C10   C15   A    
O1    Zn5   S    
C9    H14   S    
C15   H21   S    
C54   C68   A    
C20   C25   A    
C32   O16   A    
C12   O9    A    
C33   C36   A    
O9    Zn3   S    
O7    Zn7   S    
C11   C16   A    
O2    Zn2   S    
C5    C74   A    
C18   C40   A    
C58   H3    S    
C64   H25   S    
C10   H15   S    
O25   Zn5   S    
C22   C25   A    
O13   Zn4   S    
C14   C67   A    
C25   C71   S    
C31   O17   A    
C57   C70   A    
C35   C43   A    
O18   Zn1   S    
C8    C52   A    
C32   C55   S    
C2    C61   A    
O1    Zn3   S    
C21   C48   S    
C7    H23   S    
C40   C42   A    
C13   H17   S    
C41   C43   A    
H13   O24   S    
C5    C49   A    
C2    C6    A    
O10   Zn3   S    
C1    O23   A    
C59   H4    S    
C72   O22   D    
C61   H2    S    
C47   O6    A    
C30   C53   S    
C46   O4    A    
C9    C49   A    
C28   C35   A    
O1    Zn6   S    
O16   Zn8   S    
C48   O8    A    
O19   Zn2   S    
C56   C68   A    
O14   Zn6   S    
C3    C45   A    
O3    Zn3   S    
C67   C69   A    
C1    O10   A    
O4    Zn4   S    
C5    H1    S    
C9    C14   A    
C66   H5    S    
C18   C44   S    
C12   O25   A    
C13   C52   A    
C53   C62   A    
C72   O24   S    
C55   C64   A    
C70   C73   A    
C24   C37   A    
C67   C74   A    
C43   H33   S    
O12   Zn7   S    
C6    C50   A    
C53   C66   A    
C42   H32   S    
C17   C56   A    
C55   C69   A    
C2    C73   A    
C19   C39   A    
C69   H7    S    
C15   C73   A    
C21   C28   A    
C30   O14   A    
C44   O3    A    
C16   H18   S    
C34   O11   A    
O12   Zn8   S    
C17   H19   S    
O12   Zn2   S    
C10   C50   A    
C39   H28   S    
C29   O15   A    
C1    C50   S    
C44   O18   A    
C30   O29   A    
C32   O2    A    
O27   Zn7   S    
C65   H26   S    
C57   C65   A    
O28   Zn1   S    
C16   C45   A    
C23   O13   A    
C48   O7    A    
O30   Zn2   S    
C20   C27   A    
C28   H35   S    
C38   H27   S    
C22   C36   A    
O5    Zn5   S    
C34   O27   A    
C59   C63   A    
C6    H12   S    
C41   H30   S    
C13   C17   A    
C60   C64   A    
C29   C54   S    
C22   H9    S    
C31   C57   S    
C36   C38   A    
C24   H10   S    
C7    C51   A    
C37   C39   A    
O15   Zn5   S    
H11   O21   S    
C40   H29   S    
O6    Zn6   S    
O29   Zn1   S    
C11   H16   S    
C23   C52   S    
C27   H34   S    
C4    C59   A    
O8    Zn8   S    
C11   C51   A    
C18   C38   A    
C70   H8    S    
C20   C47   S    
C60   H36   S    
O1    Zn1   S    
C71   O21   S    
C3    C58   A    
C61   C65   A    
C54   C63   A    
C45   C66   A    
O23   Zn6   S    
C31   O30   A    
C14   H20   S    
C4    C56   A    
C19   C41   A    
O17   Zn7   S    
C71   O20   D    
