data_mof_unit_5179.cif
_audit_creation_date              2012-10-26T20:00:57-0400
_audit_creation_method            fapswitch 2.2
_symmetry_space_group_name_H-M    P1
_symmetry_Int_Tables_number       1
_space_group_crystal_system       triclinic
_cell_length_a                    11.864386
_cell_length_b                    12.968323
_cell_length_c                    13.408332
_cell_angle_alpha                 95.605214
_cell_angle_beta                  74.397142
_cell_angle_gamma                 99.578021
_cell_volume                      1956.25489456

loop_
_atom_site_label
_atom_site_type_symbol
_atom_type_description
_atom_site_fract_x
_atom_site_fract_y
_atom_site_fract_z
_atom_type_partial_charge
C1    C     C_R   0.521708 0.700343 0.499451 0.540028
C2    C     C_R   0.393891 0.481178 0.809471 -0.019440
C3    C     C_R   0.470662 0.185850 0.490821 -0.002836
C4    C     C_R   0.434911 0.490300 0.695802 0.527761
C5    C     C_R   0.535746 0.814039 0.497597 -0.001770
C6    C     C_R   0.633937 0.985262 0.539906 -0.142822
C7    C     C_R   0.626624 0.876918 0.533355 -0.146600
C8    C     C_R   0.456809 0.860421 0.461826 -0.133405
C9    C     C_R   0.461410 0.968682 0.470464 0.046763
C10   C     C_R   0.550372 0.031512 0.510411 0.048293
C11   C     C_R   0.554484 0.139585 0.520137 -0.139844
C12   C     C_R   0.442146 0.480152 0.976271 0.016091
C13   C     C_R   0.381766 0.123272 0.451984 -0.136372
C14   C     C_R   0.377519 0.015009 0.441352 -0.143798
C15   C     C_R   0.926364 0.566338 0.621156 -0.165052
C16   C     C_R   0.479754 0.299571 0.497265 0.536040
C17   C     C_R   0.817046 0.573577 0.603418 0.140786
C18   C     C_R   0.867978 0.465174 0.447603 0.134545
C19   C     C_R   0.980947 0.460007 0.465087 0.001336
C20   C     C_R   0.013686 0.520001 0.547330 -0.000527
C21   C     C_R   0.134516 0.536056 0.551229 0.148896
C22   C     C_R   0.180068 0.410697 0.410015 0.028634
C23   C     C_R   0.469416 0.457076 0.867512 0.017442
C24   C     C_R   0.064087 0.398961 0.400707 -0.184646
C25   C     C_R   0.564324 0.503409 0.303392 0.537914
C26   C     C_R   0.724481 0.433605 0.027332 -0.139779
C27   C     C_R   0.598983 0.494727 0.188764 -0.005886
C28   C     C_R   0.281991 0.506549 0.861805 -0.128524
C29   C     C_R   0.247076 0.515162 0.970029 -0.000776
C30   C     C_R   0.327944 0.505230 0.026589 -0.116475
C31   C     C_3   0.172114 0.619821 0.628903 -0.219255
C32   C     C_3   0.164143 0.730718 0.602198 -0.313838
C33   C     C_3   0.211141 0.814170 0.675403 -0.457394
C34   C     C_R   0.529578 0.474927 0.030246 0.027834
C35   C     C_3   0.742028 0.645428 0.681001 -0.218474
C36   C     C_3   0.808389 0.756296 0.695835 -0.344167
C37   C     C_3   0.727002 0.825921 0.770113 -0.463063
C38   C     C_3   0.857061 0.431755 0.338632 -0.205277
C39   C     C_3   0.785285 0.322078 0.329356 -0.264224
C40   C     C_3   0.841907 0.257070 0.233029 -0.479179
C41   C     C_3   0.123278 0.535772 0.024904 -0.255788
C42   C     C_3   0.107058 0.648204 0.012252 -0.298505
C43   C     C_3   0.980776 0.667596 0.065048 -0.453994
C44   C     C_R   0.636684 0.437521 0.976405 0.051944
C45   C     C_R   0.653955 0.401591 0.872979 -0.153541
C46   C     C_R   0.570442 0.408863 0.820024 -0.129526
C47   C     C_R   0.514666 0.506182 0.135887 -0.131695
C48   C     C_R   0.705588 0.461867 0.132601 -0.154639
Cu1   Cu    Cu3+1 0.386470 0.492430 0.492410 0.904370
Cu2   Cu    Cu3+1 0.613530 0.507570 0.507590 0.891932
H1    H     H_    0.772960 0.453840 0.169434 0.111362
H2    H     H_    0.806829 0.405918 0.986242 0.097173
H3    H     H_    0.436986 0.538573 0.179527 0.120279
H4    H     H_    0.221605 0.520680 0.818475 0.116613
H5    H     H_    0.585607 0.374242 0.741818 0.155363
H6    H     H_    0.690930 0.842342 0.557641 0.129720
H7    H     H_    0.156745 0.804145 0.756347 0.142767
H8    H     H_    0.304612 0.808670 0.671699 0.161459
H9    H     H_    0.206767 0.893170 0.652594 0.153876
H10   H     H_    0.215557 0.744021 0.521331 0.169809
H11   H     H_    0.072137 0.740758 0.606644 0.151075
H12   H     H_    0.316795 0.158052 0.428338 0.124991
H13   H     H_    0.119048 0.603247 0.708944 0.085885
H14   H     H_    0.262034 0.620699 0.632958 0.218689
H15   H     H_    0.648303 0.830776 0.741995 0.149328
H16   H     H_    0.696909 0.793991 0.848366 0.158348
H17   H     H_    0.775783 0.906122 0.776418 0.146138
H18   H     H_    0.883518 0.754026 0.729568 0.155321
H19   H     H_    0.843859 0.792317 0.619688 0.158322
H20   H     H_    0.664532 0.658000 0.657572 0.217212
H21   H     H_    0.711191 0.608969 0.757119 0.143399
H22   H     H_    0.855111 0.299107 0.161633 0.144831
H23   H     H_    0.703580 0.032598 0.569355 0.102113
H24   H     H_    0.928545 0.239573 0.238070 0.144538
H25   H     H_    0.783259 0.181681 0.227354 0.150869
H26   H     H_    0.776953 0.277561 0.398368 0.168584
H27   H     H_    0.695525 0.329458 0.324072 0.194387
H28   H     H_    0.829973 0.495470 0.307561 0.154859
H29   H     H_    0.945152 0.434525 0.282557 0.093299
H30   H     H_    0.297804 0.514271 0.109820 0.094774
H31   H     H_    0.972422 0.750276 0.057352 0.143304
H32   H     H_    0.917475 0.615802 0.027824 0.159435
H33   H     H_    0.958064 0.652525 0.148810 0.150966
H34   H     H_    0.308610 0.967627 0.410992 0.099846
H35   H     H_    0.169396 0.704195 0.047271 0.165273
H36   H     H_    0.126454 0.663141 0.928638 0.153062
H37   H     H_    0.058873 0.479162 0.992753 0.135794
H38   H     H_    0.103577 0.522664 0.109017 0.131787
H39   H     H_    0.622762 0.187526 0.551001 0.112881
H40   H     H_    0.391593 0.812397 0.427776 0.113569
H41   H     H_    0.242148 0.363831 0.359527 0.124703
H42   H     H_    0.943495 0.601020 0.692901 0.098478
H43   H     H_    0.040875 0.340810 0.343517 0.097657
H44   H     H_    0.732588 0.367653 0.832601 0.105744
N1    N     N_R   0.215880 0.481050 0.481000 -0.226869
N2    N     N_R   0.784100 0.518950 0.519000 -0.221305
O1    O     O_R   0.419710 0.645650 0.494620 -0.517269
O2    O     O_R   0.611450 0.658430 0.507430 -0.515149
O3    O     O_R   0.357340 0.490460 0.641450 -0.519268
O4    O     O_R   0.549080 0.503250 0.654260 -0.525752
O5    O     O_R   0.388550 0.341570 0.492570 -0.498089
O6    O     O_R   0.580290 0.354350 0.505380 -0.516910
O7    O     O_R   0.450920 0.496750 0.345740 -0.503337
O8    O     O_R   0.642660 0.509540 0.358550 -0.513433

loop_
_geom_bond_atom_site_label_1
_geom_bond_atom_site_label_2
_ccdc_geom_bond_type
C27   C48   A    
Cu2   O8    S    
C33   H8    S    
C43   H33   S    
C22   N1    A    
C35   C36   S    
C14   H34   S    
C26   C44   A    
C45   C46   A    
C36   H19   S    
C21   C31   S    
C12   C23   A    
C1    C5    S    
C39   H27   S    
C36   C37   S    
C32   H11   S    
Cu1   O5    S    
C38   C39   S    
C38   H29   S    
C18   N2    A    
C18   C19   A    
C41   C42   S    
C15   H42   S    
C48   H1    S    
C13   H12   S    
C19   C20   A    
C35   H20   S    
C8    C9    A    
C37   H15   S    
C46   H5    S    
C22   H41   S    
C42   H36   S    
C9    C10   A    
C3    C13   A    
C26   C48   A    
C47   H3    S    
C30   H30   S    
C35   H21   S    
C33   H9    S    
C23   C46   A    
C13   C14   A    
C7    H6    S    
C45   H44   S    
C15   C20   A    
C41   H37   S    
Cu2   O2    S    
C31   H13   S    
C34   C44   A    
C1    O1    A    
C39   C40   S    
C17   N2    A    
C28   H4    S    
C25   O7    A    
C38   H28   S    
C12   C30   A    
C2    C4    S    
C9    C14   A    
C6    C10   A    
C29   C30   A    
C26   H2    S    
Cu1   O3    S    
C11   H39   S    
C31   C32   S    
C37   H16   S    
C42   H35   S    
C39   H26   S    
Cu1   N1    S    
C16   O6    A    
Cu2   O6    S    
C4    O4    A    
C43   H31   S    
C22   C24   A    
C8    H40   S    
C42   C43   S    
C32   H10   S    
C12   C34   A    
C44   C45   A    
C6    H23   S    
C5    C7    A    
C27   C47   A    
C15   C17   A    
C41   H38   S    
C28   C29   A    
C33   H7    S    
C40   H22   S    
C29   C41   S    
C31   H14   S    
C1    O2    A    
Cu1   O7    S    
C5    C8    A    
C36   H18   S    
C25   O8    A    
C6    C7    A    
C25   C27   S    
C21   N1    A    
Cu2   O4    S    
C40   H25   S    
C32   C33   S    
C19   C24   A    
C18   C38   S    
C24   H43   S    
Cu2   N2    S    
C37   H17   S    
C40   H24   S    
C3    C11   A    
C10   C11   A    
Cu1   O1    S    
C16   O5    A    
C20   C21   A    
Cu1   Cu2   S    
C4    O3    A    
C2    C23   A    
C43   H32   S    
C2    C28   A    
C34   C47   A    
C17   C35   S    
C3    C16   S    
