data_mof_unit_20147.cif
_audit_creation_date              2013-03-05T15:50:13-0500
_audit_creation_method            fapswitch 2.2
_symmetry_space_group_name_H-M    P1
_symmetry_Int_Tables_number       1
_space_group_crystal_system       triclinic
_cell_length_a                    14.416792
_cell_length_b                    16.317782
_cell_length_c                    9.714991
_cell_angle_alpha                 90.246664
_cell_angle_beta                  90.02346
_cell_angle_gamma                 90.373646
_cell_volume                      2285.38230788

loop_
_atom_site_label
_atom_site_type_symbol
_atom_site_description
_atom_site_fract_x
_atom_site_fract_y
_atom_site_fract_z
_atom_type_partial_charge
O1    O     O_R   0.409820 0.909830 0.618810 -0.600546
O2    O     O_R   0.409820 0.090170 0.618810 -0.588205
O3    O     O_R   0.909820 0.409830 0.618810 -0.586365
O4    O     O_R   0.909820 0.590170 0.618810 -0.595988
O5    O     O_R   0.409840 0.909830 0.381240 -0.578707
O6    O     O_R   0.409840 0.090170 0.381240 -0.571332
O7    O     O_R   0.909840 0.409830 0.381240 -0.576147
O8    O     O_R   0.909840 0.590170 0.381240 -0.581217
C1    C     C_R   0.378695 0.882601 0.501993 0.762267
C2    C     C_R   0.375237 0.113450 0.500773 0.785607
C3    C     C_R   0.885756 0.378154 0.499706 0.791287
C4    C     C_R   0.879012 0.617511 0.502325 0.765388
Cu1   Cu    Cu3+1 0.499990 0.000000 0.640660 0.933930
Cu2   Cu    Cu3+1 0.999990 0.500000 0.640660 0.938954
Cu3   Cu    Cu3+1 0.500010 0.000000 0.359340 0.959471
Cu4   Cu    Cu3+1 0.000010 0.500000 0.359340 0.954219
O9    O     O_R   0.590170 0.090170 0.618760 -0.611348
O10   O     O_R   0.590170 0.909830 0.618760 -0.596386
O11   O     O_R   0.090170 0.590170 0.618760 -0.599334
O12   O     O_R   0.090170 0.409830 0.618760 -0.588932
O13   O     O_R   0.590190 0.090180 0.381190 -0.565435
O14   O     O_R   0.590190 0.909820 0.381190 -0.578561
O15   O     O_R   0.090190 0.590180 0.381190 -0.581711
O16   O     O_R   0.090190 0.409820 0.381190 -0.568455
C5    C     C_R   0.615740 0.121160 0.502225 0.787958
C6    C     C_R   0.612181 0.876988 0.499570 0.766712
C7    C     C_R   0.111126 0.623503 0.499448 0.763600
C8    C     C_R   0.121456 0.383151 0.499643 0.755730
H1    H     H_    0.271256 0.169046 0.287371 0.159863
H2    H     H_    0.319559 0.793989 0.290569 0.179103
H3    H     H_    0.823919 0.708707 0.293434 0.180613
H4    H     H_    0.772434 0.329080 0.295361 0.158294
C9    C     C_R   0.288903 0.180687 0.759741 -0.186792
C10   C     C_R   0.270462 0.827800 0.766306 -0.173480
C11   C     C_R   0.770945 0.670437 0.766579 -0.154985
C12   C     C_R   0.877442 0.258994 0.727954 -0.160112
H5    H     H_    0.298004 0.115934 0.773687 0.161813
H6    H     H_    0.335409 0.855474 0.794047 0.211639
H7    H     H_    0.833583 0.639601 0.793325 0.212436
H8    H     H_    0.947439 0.281347 0.711790 0.173627
C13   C     C_R   0.282973 0.229397 0.877265 0.197639
C14   C     C_R   0.208494 0.812845 0.875958 0.141963
C15   C     C_R   0.710297 0.685155 0.877475 0.131971
C16   C     C_R   0.851927 0.232841 0.859444 0.112469
C17   C     C_R   0.625603 0.724845 0.854152 0.054600
C18   C     C_R   0.759868 0.206447 0.881226 0.062845
C19   C     C_R   0.261943 0.312276 0.862776 0.085761
C20   C     C_R   0.121373 0.776979 0.849974 0.060638
C21   C     C_R   0.608612 0.756601 0.723757 -0.186462
C22   C     C_R   0.701617 0.193158 0.767235 -0.206630
C23   C     C_R   0.245342 0.344232 0.733532 -0.261759
C24   C     C_R   0.104080 0.746187 0.718847 -0.184492
H9    H     H_    0.541858 0.784219 0.704705 0.201633
H10   H     H_    0.630931 0.175435 0.787921 0.220897
H11   H     H_    0.236426 0.408457 0.722497 0.132445
H12   H     H_    0.037007 0.718672 0.697799 0.198133
C25   C     C_R   0.675731 0.753035 0.618257 0.047597
C26   C     C_R   0.731124 0.211677 0.632211 0.052406
C27   C     C_R   0.237508 0.293032 0.619338 0.089181
C28   C     C_R   0.172366 0.749047 0.615339 0.045350
C29   C     C_R   0.275859 0.214600 0.627955 0.059875
C30   C     C_R   0.250504 0.800835 0.630142 0.052805
C31   C     C_R   0.752426 0.699998 0.631642 0.054101
C32   C     C_R   0.812673 0.258544 0.619068 0.049332
C33   C     C_R   0.300256 0.174558 0.504461 -0.104825
C34   C     C_R   0.304520 0.819543 0.508527 -0.088142
C35   C     C_R   0.806194 0.681315 0.509813 -0.090405
C36   C     C_R   0.824530 0.306317 0.499729 -0.088678
C37   C     C_R   0.259647 0.201092 0.381696 -0.207607
C38   C     C_R   0.281624 0.780815 0.384063 -0.222517
C39   C     C_R   0.785271 0.721412 0.386508 -0.212658
C40   C     C_R   0.766578 0.293023 0.386372 -0.211275
H13   H     H_    0.705478 0.812541 0.286027 0.177238
H14   H     H_    0.655717 0.224191 0.299114 0.202660
H15   H     H_    0.164708 0.282640 0.286094 0.214599
H16   H     H_    0.199410 0.690377 0.282954 0.181726
C41   C     C_R   0.717707 0.781158 0.381791 -0.229114
C42   C     C_R   0.697943 0.233919 0.389695 -0.226788
C43   C     C_R   0.201004 0.268323 0.380200 -0.208834
C44   C     C_R   0.213179 0.721259 0.379089 -0.225390
C45   C     C_R   0.667255 0.801432 0.499184 -0.083727
C46   C     C_R   0.680444 0.190879 0.510258 -0.092751
C47   C     C_R   0.190545 0.316561 0.498595 -0.103842
C48   C     C_R   0.164213 0.700178 0.497267 -0.083438
C49   C     C_R   0.674586 0.968979 0.132024 0.176309
C50   C     C_R   0.173411 0.539923 0.136464 0.183222
C51   C     C_R   0.740928 0.927405 0.049429 0.166370
C52   C     C_R   0.238948 0.585268 0.056901 0.149565
C53   C     C_R   0.737992 0.938351 0.908549 -0.225321
C54   C     C_R   0.233411 0.580602 0.915433 -0.247893
H17   H     H_    0.795814 0.920017 0.844341 0.174277
H18   H     H_    0.290417 0.602041 0.851982 0.181884
C55   C     C_R   0.664806 0.979337 0.850420 -0.173453
C56   C     C_R   0.161781 0.537921 0.854878 -0.198280
H19   H     H_    0.673346 0.997226 0.745733 0.206398
H20   H     H_    0.173027 0.519024 0.752252 0.195490
C57   C     C_R   0.582300 0.990845 0.923707 0.203381
C58   C     C_R   0.080570 0.518617 0.925643 0.212315
C59   C     C_R   0.584349 0.988587 0.072575 0.165988
C60   C     C_R   0.083191 0.518456 0.074577 0.171288
N1    N     N_R   0.501200 1.000000 0.147910 -0.175487
N2    N     N_R   0.001200 0.500000 0.147910 -0.178815
C61   C     C_R   0.419992 0.002665 0.071650 0.281914
C62   C     C_R   0.921549 0.486196 0.070685 0.264745
H21   H     H_    0.356738 0.002847 0.868268 0.122627
H22   H     H_    0.859783 0.471551 0.867637 0.145657
C63   C     C_R   0.421159 0.002602 0.924924 -0.052136
C64   C     C_R   0.922923 0.484535 0.924321 -0.046791
N3    N     N_R   0.501270 0.000000 0.852040 -0.206781
N4    N     N_R   0.001270 0.500000 0.852040 -0.204060
C65   C     C_3   0.302676 0.192464 0.014607 -0.861174
H23   H     H_    0.369444 0.159465 0.010003 0.248788
H24   H     H_    0.310636 0.239676 0.096037 0.241191
H25   H     H_    0.245046 0.150260 0.041729 0.229860
C66   C     C_3   0.237045 0.832335 0.020522 -0.943356
H26   H     H_    0.311599 0.848918 0.026558 0.277683
H27   H     H_    0.193352 0.882467 0.061334 0.227542
H28   H     H_    0.226023 0.777724 0.085601 0.235255
C67   C     C_3   0.737265 0.659296 0.020256 -0.910847
H29   H     H_    0.809140 0.635585 0.024450 0.269217
H30   H     H_    0.733569 0.712873 0.090182 0.230582
H31   H     H_    0.688398 0.611540 0.057463 0.221257
C68   C     C_3   0.921742 0.238044 0.974876 -0.852904
H32   H     H_    0.991034 0.258271 0.937656 0.270589
H33   H     H_    0.898531 0.282691 0.053790 0.229013
H34   H     H_    0.929664 0.176846 0.022841 0.223700
C69   C     C_2   0.555931 0.736571 0.965580 0.318279
H35   H     H_    0.565421 0.709142 0.065962 0.091638
O17   O     O_2   0.486579 0.777642 0.946778 -0.584652
C70   C     C_2   0.722443 0.195544 0.021540 0.281962
H36   H     H_    0.767833 0.199459 0.110159 0.080380
O18   O     O_2   0.639597 0.183903 0.040148 -0.580466
C71   C     C_2   0.235681 0.361757 0.980014 0.286856
H37   H     H_    0.276722 0.415027 0.007155 0.077855
O19   O     O_2   0.164744 0.344130 0.041915 -0.577193
C72   C     C_2   0.050101 0.767008 0.959740 0.319740
H38   H     H_    0.060015 0.794069 0.060803 0.089719
O20   O     O_2   0.978812 0.728094 0.938628 -0.580608
C73   C     C_3   0.326242 0.002662 0.138694 -0.856870
H39   H     H_    0.269778 0.004899 0.061272 0.188512
H40   H     H_    0.314713 0.947408 0.200915 0.259480
H41   H     H_    0.316821 0.057078 0.201383 0.248594
C74   C     C_3   0.829465 0.469253 0.134955 -0.823664
H42   H     H_    0.772538 0.493358 0.070623 0.191956
H43   H     H_    0.819830 0.402428 0.135636 0.209531
H44   H     H_    0.821759 0.497320 0.237589 0.276260
C75   C     C_3   0.722367 0.023775 0.235893 -0.733522
H45   H     H_    0.716771 0.000379 0.342070 0.232217
H46   H     H_    0.798046 0.030799 0.217231 0.190895
H47   H     H_    0.699495 0.087006 0.221389 0.252839
C76   C     C_3   0.222029 0.487876 0.244011 -0.720716
H48   H     H_    0.216978 0.510633 0.350522 0.223653
H49   H     H_    0.203325 0.423491 0.232390 0.263483
H50   H     H_    0.297855 0.483156 0.226500 0.181134
C77   C     C_3   0.828333 0.889812 0.106950 -0.887792
H51   H     H_    0.889930 0.925385 0.072223 0.235165
H52   H     H_    0.829075 0.888988 0.220972 0.234095
H53   H     H_    0.835122 0.825980 0.068958 0.267298
C78   C     C_3   0.329256 0.619443 0.113947 -0.893886
H54   H     H_    0.330546 0.621573 0.227911 0.238162
H55   H     H_    0.387888 0.580644 0.079147 0.233619
H56   H     H_    0.341566 0.682333 0.075182 0.270232

loop_
_geom_bond_atom_site_label_1
_geom_bond_atom_site_label_2
_geom_bond_distance
_ccdc_geom_bond_type
C74   H44   1.101404 S    
C58   N4    1.379697 A    
C77   H52   1.107903 S    
C28   C48   1.398679 A    
C70   O18   1.221794 D    
C75   H45   1.104233 S    
O10   C6    1.313722 A    
O3    C3    1.310940 A    
C39   C41   1.383510 A    
C44   C48   1.391298 A    
C71   H37   1.079991 S    
C68   H32   1.111149 S    
H4    C40   1.067228 S    
C34   C38   1.400282 A    
C33   C37   1.399944 A    
O7    C3    1.309725 A    
H21   C63   1.079431 S    
C22   H10   1.076724 S    
Cu1   O10   1.980648 S    
C32   C36   1.409709 A    
C7    C48   1.462655 S    
C75   H46   1.111344 S    
C27   C47   1.410111 A    
C26   C46   1.430138 A    
Cu2   N4    2.053631 S    
C73   H41   1.083872 S    
C50   C52   1.426215 A    
C68   H33   1.108644 S    
C56   C58   1.392956 A    
C74   H42   1.106690 S    
C10   C30   1.421026 A    
C21   C25   1.411106 A    
C28   C30   1.410750 A    
C76   H50   1.109511 S    
O2    Cu1   1.981746 S    
C1    C34   1.480751 S    
C40   C42   1.377737 A    
C24   C28   1.408248 A    
C57   C59   1.447177 A    
O6    Cu3   1.980551 S    
C24   H12   1.082497 S    
H14   C42   1.080405 S    
Cu3   O14   1.981964 S    
C65   H23   1.106846 S    
C66   H27   1.107841 S    
C10   C14   1.411616 A    
Cu1   N3    2.053631 S    
C76   H48   1.100464 S    
C78   H55   1.111315 S    
C25   C31   1.414866 A    
O15   C7    1.303411 A    
O4    C4    1.297485 A    
C11   C15   1.408592 A    
C23   H11   1.062568 S    
C36   C40   1.397383 A    
C56   H20   1.055244 S    
C67   H30   1.106432 S    
O8    Cu4   1.980551 S    
C19   C71   1.445314 S    
C77   H53   1.108505 S    
O4    Cu2   1.981746 S    
C63   N3    1.355769 A    
H2    C38   1.082068 S    
C16   C18   1.409012 A    
C54   C56   1.372650 A    
C23   C27   1.390044 A    
H1    C37   1.066917 S    
C49   C51   1.422415 A    
C26   C32   1.404497 A    
C78   H56   1.107916 S    
C4    C35   1.484933 S    
C31   C35   1.447536 A    
C27   C29   1.400286 A    
C30   C34   1.447855 A    
C38   C44   1.381128 A    
C22   C26   1.412515 A    
Cu2   O12   1.980648 S    
C12   H8    1.082526 S    
C75   H47   1.094906 S    
O1    C1    1.295898 A    
C72   O20   1.221383 D    
C68   H34   1.110355 S    
C19   C23   1.383019 A    
H16   C44   1.077074 S    
O12   C8    1.315584 A    
C9    H5    1.074728 S    
C17   C69   1.489639 S    
C11   H7    1.069136 S    
C69   O17   1.221398 D    
O5    C1    1.333241 A    
C49   C59   1.461083 A    
C61   C73   1.500576 S    
C57   N3    1.369033 A    
C42   C46   1.390609 A    
C54   H18   1.084576 S    
C78   H54   1.107702 S    
C17   C21   1.392957 A    
O8    C4    1.333731 A    
C66   H28   1.105524 S    
C60   N2    1.411867 A    
C13   C19   1.395599 A    
C62   C74   1.492009 S    
C65   H24   1.107271 S    
C14   C20   1.404520 A    
Cu3   N1    2.054120 S    
N2    C62   1.388050 A    
C15   C17   1.404643 A    
O3    Cu2   1.967752 S    
Cu4   N2    2.054120 S    
O7    Cu4   1.969286 S    
C59   N1    1.417655 A    
C52   C54   1.378392 A    
C6    C45   1.470783 S    
C58   C60   1.447383 A    
Cu1   Cu3   2.733020 S    
O14   C6    1.310502 A    
C5    C46   1.468278 S    
Cu2   Cu4   2.733020 S    
C12   C16   1.397242 A    
C53   H17   1.084250 S    
C69   H35   1.083757 S    
O2    C2    1.309056 A    
C55   C57   1.399814 A    
C62   C64   1.422210 A    
O11   C7    1.316905 A    
C3    C36   1.462794 S    
C73   H39   1.108980 S    
O16   C8    1.312736 A    
N1    C61   1.386245 A    
C2    C33   1.475770 S    
C74   H43   1.098408 S    
O13   C5    1.328901 A    
C10   H6    1.070736 S    
Cu2   O11   1.969379 S    
C20   C72   1.489831 S    
C49   C75   1.508608 S    
C72   H38   1.083841 S    
C18   C70   1.477282 S    
C11   C31   1.424520 A    
C67   H29   1.109231 S    
C51   C77   1.512918 S    
Cu4   O15   1.967967 S    
C18   C22   1.404796 A    
C16   C68   1.508307 S    
Cu1   O9    1.969379 S    
O9    C5    1.294671 A    
C51   C53   1.381678 A    
C70   H36   1.082602 S    
C9    C13   1.391331 A    
C50   C76   1.522838 S    
C43   C47   1.399701 A    
C50   C60   1.472271 A    
C73   H40   1.099440 S    
C55   H19   1.066260 S    
Cu3   O13   1.967967 S    
H22   C64   1.082976 S    
C52   C78   1.516728 S    
C9    C29   1.409976 A    
C21   H9    1.081555 S    
H3    C39   1.082291 S    
C67   H31   1.108931 S    
C64   N4    1.353153 A    
C65   H25   1.108265 S    
C35   C39   1.401109 A    
C76   H49   1.088358 S    
C53   C55   1.375287 A    
C25   C45   1.409173 A    
O5    Cu3   1.969286 S    
C37   C43   1.389525 A    
O6    C2    1.319413 A    
C29   C33   1.409469 A    
C14   C66   1.495656 S    
C20   C24   1.389262 A    
O1    Cu1   1.967752 S    
Cu4   O16   1.981964 S    
C41   C45   1.392743 A    
C13   C65   1.494333 S    
C77   H51   1.111121 S    
C71   O19   1.220003 D    
H13   C41   1.078892 S    
C61   C63   1.425549 A    
C12   C32   1.410672 A    
H15   C43   1.080395 S    
C66   H26   1.108132 S    
C15   C67   1.503345 S    
C8    C47   1.478836 S    
