data_mof_unit_45655.cif
_audit_creation_date              2012-12-10T20:44:07-0500
_audit_creation_method            fapswitch 2.2
_symmetry_space_group_name_H-M    P1
_symmetry_Int_Tables_number       1
_space_group_crystal_system       triclinic
_cell_length_a                    17.401874
_cell_length_b                    10.685361
_cell_length_c                    9.86823
_cell_angle_alpha                 90.608492
_cell_angle_beta                  90.091547
_cell_angle_gamma                 90.703443
_cell_volume                      1834.70653895

loop_
_atom_site_label
_atom_site_type_symbol
_atom_type_description
_atom_site_fract_x
_atom_site_fract_y
_atom_site_fract_z
_atom_type_partial_charge
C1    C     C_R   0.497489 0.260005 0.499481 0.875950
C2    C     C_R   0.114199 0.438210 0.498811 0.140629
C3    C     C_R   0.486702 0.065591 0.622313 0.130383
C4    C     C_R   0.353454 0.498786 0.500319 0.848224
C5    C     C_R   0.485283 0.128529 0.499692 -0.097658
C6    C     C_R   0.469493 0.062944 0.378941 -0.218849
C7    C     C_R   0.469384 0.933442 0.379719 -0.220966
C8    C     C_R   0.485131 0.871392 0.501256 -0.114402
C9    C     C_R   0.486357 0.937872 0.623314 0.135255
C10   C     C_3   0.542798 0.934548 0.737463 -0.421493
C11   C     C_3   0.543262 0.076055 0.736053 -0.529213
C12   C     C_R   0.884336 0.414750 0.495358 -0.073687
C13   C     C_R   0.470994 0.399833 0.068916 0.114131
C14   C     C_R   0.537329 0.591030 0.073819 -0.194845
C15   C     C_R   0.539384 0.589598 0.929254 0.519210
C16   C     C_R   0.497590 0.740102 0.500458 0.877193
C17   C     C_R   0.472580 0.398811 0.926843 0.112333
C18   C     C_3   0.395256 0.339795 0.913605 -0.534892
C19   C     C_3   0.391230 0.343709 0.067951 -0.254007
C20   C     C_R   0.646868 0.496930 0.499854 0.890502
C21   C     C_R   0.845256 0.423052 0.619587 0.510718
C22   C     C_R   0.768342 0.455716 0.620431 -0.294801
C23   C     C_1   0.965670 0.412047 0.498439 0.072049
C24   C     C_R   0.729336 0.475064 0.498650 -0.136524
C25   C     C_R   0.767848 0.461768 0.374736 -0.250039
C26   C     C_R   0.845514 0.430827 0.371167 -0.059633
C27   C     C_3   0.888154 0.283967 0.776547 0.101122
C28   C     C_3   0.815373 0.240594 0.851206 -0.364519
C29   C     C_3   0.824511 0.109509 0.908315 -0.947433
C30   C     C_3   0.659000 0.667667 0.875118 0.079494
C31   C     C_3   0.693932 0.776842 0.957152 -0.414872
C32   C     C_3   0.781276 0.767464 0.964426 -0.876596
C33   C     C_2   0.328847 0.429084 0.116848 1.016771
C34   C     C_1   0.033846 0.419741 0.499486 -0.013708
C35   C     C_2   0.884282 0.417184 0.237216 0.912571
C36   C     C_R   0.159966 0.371481 0.587942 -0.149216
C37   C     C_R   0.238651 0.393564 0.589777 -0.186324
C38   C     C_R   0.271061 0.482138 0.502229 -0.001894
C39   C     C_R   0.224738 0.550263 0.414699 -0.139073
C40   C     C_R   0.145999 0.527966 0.412751 -0.113408
H1    H     H_    0.462383 0.883120 0.284521 0.179232
H2    H     H_    0.389100 0.248791 0.113150 0.136710
H3    H     H_    0.737087 0.473917 0.280288 0.195767
H4    H     H_    0.134922 0.302849 0.655428 0.136886
H5    H     H_    0.274375 0.339847 0.657147 0.139810
H6    H     H_    0.249487 0.620291 0.348831 0.132097
H7    H     H_    0.109937 0.580812 0.345018 0.138886
H8    H     H_    0.462640 0.110626 0.283452 0.165813
H9    H     H_    0.938129 0.274347 0.845708 0.175398
H10   H     H_    0.899482 0.221725 0.687390 0.117020
H11   H     H_    0.802856 0.306839 0.935628 0.265173
H12   H     H_    0.516761 0.896176 0.831232 0.240467
H13   H     H_    0.765695 0.239308 0.780377 0.202564
H14   H     H_    0.836207 0.041311 0.825359 0.266874
H15   H     H_    0.770648 0.080766 0.960234 0.266877
H16   H     H_    0.872374 0.108283 0.982890 0.276325
H17   H     H_    0.684288 0.670019 0.771937 0.178060
H18   H     H_    0.676287 0.576820 0.920730 0.119196
H19   H     H_    0.678779 0.866921 0.909402 0.232029
H20   H     H_    0.670732 0.777011 0.061734 0.218709
H21   H     H_    0.797929 0.678117 0.012110 0.305519
H22   H     H_    0.804939 0.846150 0.026567 0.264589
H23   H     H_    0.598609 0.893547 0.706620 0.213612
H24   H     H_    0.806479 0.772345 0.861226 0.263936
H25   H     H_    0.282937 0.601651 0.114968 0.326241
H26   H     H_    0.970235 0.341683 0.127555 0.345903
H27   H     H_    0.517887 0.118351 0.828827 0.207712
H28   H     H_    0.599354 0.117368 0.704508 0.207032
H29   H     H_    0.564856 0.666198 0.130264 0.150692
H30   H     H_    0.353825 0.400992 0.860768 0.228292
H31   H     H_    0.398243 0.243146 0.871453 0.188455
H32   H     H_    0.739189 0.464066 0.716826 0.160305
N1    N     N_R   0.499490 0.499140 0.142800 -0.114946
N2    N     N_R   0.499490 0.499180 0.857150 -0.127903
O1    O     O_R   0.500010 0.316790 0.614690 -0.617893
O2    O     O_3   0.578546 0.682502 0.860905 -0.644121
O3    O     O_2   0.275746 0.385873 0.183091 -0.637011
O4    O     O_R   0.329927 0.555602 0.081684 -0.804369
O5    O     O_2   0.857618 0.467874 0.137326 -0.659114
O6    O     O_R   0.950089 0.344264 0.223896 -0.805376
O7    O     O_R   0.500000 0.316760 0.385350 -0.626536
O8    O     O_R   0.389120 0.500020 0.614710 -0.620462
O9    O     O_R   0.389110 0.499990 0.385370 -0.593828
O10   O     O_R   0.500000 0.683240 0.614650 -0.564127
O11   O     O_R   0.499990 0.683210 0.385310 -0.626968
O12   O     O_R   0.610890 0.500010 0.614630 -0.620642
O13   O     O_R   0.610880 0.499980 0.385290 -0.618911
O14   O     O_3   0.883589 0.411893 0.741824 -0.633760
Zn1   Zn    Zn3+2 0.500010 0.500020 0.653130 0.978623
Zn2   Zn    Zn3+2 0.499990 0.499980 0.346870 0.962679

loop_
_geom_bond_atom_site_label_1
_geom_bond_atom_site_label_2
_ccdc_geom_bond_type
C18   H30   S    
C40   H7    S    
C20   O13   A    
C10   H23   S    
C10   H12   S    
C25   H3    S    
C7    C8    A    
C12   C23   S    
O8    Zn1   S    
C6    H8    S    
C1    C5    S    
C5    C6    A    
N2    Zn1   S    
C36   C37   A    
N1    Zn2   S    
C30   C31   S    
C28   H11   S    
C33   O4    S    
C29   H14   S    
C1    O7    A    
C30   H17   S    
C35   O6    S    
C16   O10   A    
C18   C19   S    
C31   H19   S    
C20   C24   S    
C8    C9    A    
C20   O12   A    
C9    C10   S    
C19   H2    S    
C2    C34   S    
C15   O2    S    
C21   O14   S    
C8    C16   S    
C21   C22   A    
C22   H32   S    
C11   H27   S    
C13   C19   S    
C1    O1    A    
C14   N1    A    
C24   C25   A    
C32   H24   S    
C19   C33   S    
C39   C40   A    
C29   H15   S    
C25   C26   A    
C12   C21   A    
C12   C26   A    
C31   H20   S    
C37   C38   A    
C3    C9    A    
C30   O2    S    
C31   C32   S    
O11   Zn2   S    
C23   C34   T    
C17   C18   S    
C39   H6    S    
O7    Zn2   S    
C13   N1    A    
C16   O11   A    
C14   H29   S    
C22   C24   A    
C36   H4    S    
O10   Zn1   S    
C37   H5    S    
C11   H28   S    
C2    C36   A    
C18   H31   S    
O9    Zn2   S    
C28   C29   S    
H25   O4    S    
C17   N2    A    
C4    C38   S    
C3    C5    A    
O12   Zn1   S    
C32   H21   S    
C28   H13   S    
C27   H10   S    
C6    C7    A    
C29   H16   S    
H26   O6    S    
C13   C17   A    
C32   H22   S    
C33   O3    D    
C38   C39   A    
C4    O9    A    
C30   H18   S    
C35   O5    D    
C7    H1    S    
C27   O14   S    
C3    C11   S    
C10   C11   S    
O1    Zn1   S    
C2    C40   A    
C26   C35   S    
C15   N2    A    
C4    O8    A    
O13   Zn2   S    
C27   C28   S    
C14   C15   A    
C27   H9    S    
