data_mof_unit_64972.cif
_audit_creation_date              2012-12-10T19:00:53-0500
_audit_creation_method            fapswitch 2.2
_symmetry_space_group_name_H-M    P1
_symmetry_Int_Tables_number       1
_space_group_crystal_system       triclinic
_cell_length_a                    10.641879
_cell_length_b                    14.271851
_cell_length_c                    13.24485
_cell_angle_alpha                 89.997689
_cell_angle_beta                  89.8372
_cell_angle_gamma                 89.999287
_cell_volume                      2011.61057602

loop_
_atom_site_label
_atom_site_type_symbol
_atom_type_description
_atom_site_fract_x
_atom_site_fract_y
_atom_site_fract_z
_atom_type_partial_charge
C1    C     C_R   0.499997 0.326241 0.500002 0.845847
C2    C     C_R   0.737043 0.468452 0.499774 0.919796
C3    C     C_R   0.500000 0.673696 0.499998 0.973084
C4    C     C_3   0.073612 0.413161 0.608139 0.389727
C5    C     C_3   0.077371 0.398475 0.400530 0.350506
C6    C     C_3   0.922649 0.398837 0.599857 0.350558
C7    C     C_3   0.926383 0.412649 0.392199 0.389531
C8    C     C_3   0.070783 0.557998 0.491848 -0.487958
C9    C     C_3   0.929138 0.558000 0.507763 -0.487786
C10   C     C_3   0.123942 0.456308 0.500544 -0.008452
C11   C     C_3   0.876032 0.456253 0.499558 -0.008462
C12   C     C_1   0.500006 0.957778 0.499998 0.006412
C13   C     C_1   0.500003 0.225730 0.500005 -0.222629
C14   C     C_1   0.500006 0.141253 0.500005 -0.009662
C15   C     C_1   0.500007 0.042276 0.500001 0.003222
C16   C     C_3   0.105540 0.481483 0.699902 -0.821728
C17   C     C_3   0.145553 0.431359 0.299793 -0.814072
C18   C     C_3   0.854434 0.432040 0.700460 -0.813675
C19   C     C_3   0.894302 0.480510 0.300087 -0.821758
C20   C     C_3   0.144915 0.322173 0.640459 -0.926044
C21   C     C_3   0.121092 0.293720 0.402276 -0.931085
C22   C     C_3   0.879075 0.294042 0.598578 -0.931090
C23   C     C_1   0.500004 0.858783 0.499996 -0.007821
C24   C     C_3   0.855178 0.321464 0.360391 -0.926228
C25   C     C_1   0.500002 0.774276 0.499995 -0.247902
C26   C     C_1   0.500000 0.499915 0.169149 0.049565
C27   C     C_1   0.500000 0.499915 0.830851 0.049485
C28   C     C_1   0.499999 0.499868 0.049549 -0.054156
C29   C     C_1   0.500000 0.499868 0.950451 -0.054124
C30   C     C_R   0.262923 0.468509 0.500249 0.920002
H1    H     H_    0.115201 0.607037 0.546306 0.203270
H2    H     H_    0.143461 0.507851 0.286493 0.230339
H3    H     H_    0.755031 0.408568 0.705093 0.254369
H4    H     H_    0.894044 0.396879 0.767932 0.215239
H5    H     H_    0.856337 0.508593 0.713375 0.230373
H6    H     H_    0.793876 0.489430 0.283196 0.258453
H7    H     H_    0.937190 0.550777 0.305594 0.218162
H8    H     H_    0.924142 0.450865 0.226701 0.217474
H9    H     H_    0.136439 0.261591 0.590650 0.234566
H10   H     H_    0.247185 0.335486 0.648378 0.243709
H11   H     H_    0.110255 0.297789 0.715227 0.249966
H12   H     H_    0.092995 0.589905 0.417771 0.196770
H13   H     H_    0.063856 0.245256 0.445005 0.230808
H14   H     H_    0.118425 0.261340 0.325860 0.250727
H15   H     H_    0.219812 0.288237 0.428684 0.223022
H16   H     H_    0.936485 0.245449 0.556174 0.230870
H17   H     H_    0.881642 0.261973 0.675152 0.250626
H18   H     H_    0.780407 0.288376 0.572090 0.223164
H19   H     H_    0.863957 0.261045 0.410402 0.234733
H20   H     H_    0.752854 0.334642 0.352633 0.243300
H21   H     H_    0.889658 0.296858 0.285656 0.250052
H22   H     H_    0.906883 0.590193 0.581687 0.196684
H23   H     H_    0.884705 0.606814 0.453075 0.203345
H24   H     H_    0.205921 0.490705 0.716752 0.258480
H25   H     H_    0.062424 0.551649 0.694055 0.218036
H26   H     H_    0.075832 0.452093 0.773446 0.217477
H27   H     H_    0.245018 0.408013 0.295317 0.254372
H28   H     H_    0.106059 0.395870 0.232480 0.215351
N1    N     N_1   0.500000 0.499980 0.261870 -0.076727
N2    N     N_1   0.500000 0.499980 0.738130 -0.076796
O1    O     O_R   0.500000 0.373720 0.576470 -0.620794
O2    O     O_R   0.500000 0.373720 0.423530 -0.620829
O3    O     O_R   0.314810 0.499990 0.576450 -0.613128
O4    O     O_R   0.314810 0.499990 0.423550 -0.606379
O5    O     O_R   0.685190 0.499990 0.576450 -0.606367
O6    O     O_R   0.685190 0.499990 0.423550 -0.612993
O7    O     O_R   0.500000 0.626290 0.576440 -0.582140
O8    O     O_R   0.500000 0.626290 0.423560 -0.582109
Zn1   Zn    Zn3+2 0.500000 0.500010 0.602090 0.935665
Zn2   Zn    Zn3+2 0.500000 0.500010 0.397910 0.935756

loop_
_geom_bond_atom_site_label_1
_geom_bond_atom_site_label_2
_ccdc_geom_bond_type
C4    C16   S    
C1    C13   S    
C22   H18   S    
C16   H26   S    
C19   H8    S    
O4    Zn2   S    
C27   C29   S    
C21   H14   S    
C9    C11   S    
C18   H5    S    
C10   C30   S    
C21   H15   S    
C3    O8    A    
C6    C11   S    
C12   C15   T    
C17   H28   S    
C27   N2    T    
C2    O5    A    
C1    O2    A    
C24   H21   S    
C22   H17   S    
C20   H9    S    
C16   H25   S    
C5    C10   S    
C21   H13   S    
C30   O3    A    
C5    C17   S    
C7    C11   S    
C18   H4    S    
C12   C23   S    
C30   O4    A    
O6    Zn2   S    
C9    H22   S    
N2    Zn1   S    
O5    Zn1   S    
C2    C11   S    
O8    Zn2   S    
C28   C29   T    
C22   H16   S    
C8    H12   S    
C20   H11   S    
C7    C19   S    
C19   H6    S    
C23   C25   T    
C4    C20   S    
C24   H20   S    
C20   H10   S    
C6    C18   S    
C16   H24   S    
C9    H23   S    
C18   H3    S    
N1    Zn2   S    
C4    C10   S    
C7    C24   S    
C6    C22   S    
C3    C25   S    
C5    C21   S    
O2    Zn2   S    
C4    C6    S    
C26   N1    T    
O1    Zn1   S    
C24   H19   S    
C5    C7    S    
C17   H2    S    
C14   C15   S    
C19   H7    S    
C2    O6    A    
C13   C14   T    
C8    H1    S    
C26   C28   S    
C8    C10   S    
C3    O7    A    
O3    Zn1   S    
C17   H27   S    
C8    C9    S    
O7    Zn1   S    
C1    O1    A    
