data_mof_unit_6869.cif
_audit_creation_date              2012-10-26T18:30:23-0400
_audit_creation_method            fapswitch 2.2
_symmetry_space_group_name_H-M    P1
_symmetry_Int_Tables_number       1
_space_group_crystal_system       triclinic
_cell_length_a                    10.712894
_cell_length_b                    13.087556
_cell_length_c                    11.737452
_cell_angle_alpha                 99.480515
_cell_angle_beta                  91.99823
_cell_angle_gamma                 92.134534
_cell_volume                      1620.64915708

loop_
_atom_site_label
_atom_site_type_symbol
_atom_type_description
_atom_site_fract_x
_atom_site_fract_y
_atom_site_fract_z
_atom_type_partial_charge
C1    C     C_R   0.501095 0.299353 0.478073 0.533997
C2    C     C_R   0.611759 0.585308 0.851644 0.036799
C3    C     C_R   0.563207 0.532442 0.153411 0.289490
C4    C     C_R   0.451202 0.454726 0.845743 0.290415
C5    C     C_R   0.549890 0.530951 0.031762 -0.015892
C6    C     C_R   0.454909 0.467010 0.968497 -0.013258
C7    C     C_R   0.259299 0.499789 0.501433 0.544023
C8    C     C_R   0.740397 0.501611 0.498570 0.547965
C9    C     C_3   0.036367 0.422565 0.552734 -0.127428
C10   C     C_3   0.961716 0.580650 0.446443 -0.151984
C11   C     C_3   0.951155 0.409985 0.440807 -0.116952
C12   C     C_R   0.496773 0.700741 0.521883 0.526023
C13   C     C_3   0.047582 0.593422 0.558173 -0.155140
C14   C     C_3   0.876810 0.502644 0.496327 0.032106
C15   C     C_3   0.122262 0.500630 0.503135 0.029435
C16   C     C_3   0.961516 0.515335 0.605731 0.158274
C17   C     C_3   0.037373 0.488335 0.393463 0.162923
C18   C     C_R   0.487767 0.814486 0.535976 -0.055451
C19   C     C_R   0.504889 0.185698 0.463160 -0.052286
C20   C     C_R   0.530573 0.015405 0.347441 0.137633
C21   C     C_R   0.454719 0.984500 0.649540 0.132299
C22   C     C_R   0.529119 0.123763 0.355923 -0.003273
C23   C     C_R   0.480911 0.138525 0.558671 -0.165356
C24   C     C_R   0.461033 0.876616 0.642495 -0.001370
C25   C     C_3   0.989985 0.507519 0.813188 -0.319489
C26   C     C_3   0.015142 0.411297 0.187165 -0.326956
C27   C     C_R   0.436725 0.832089 0.748132 0.098288
C28   C     C_R   0.525934 0.846451 0.840426 -0.068511
C29   C     C_R   0.500091 0.809639 0.942641 -0.116733
C30   C     C_R   0.385270 0.758635 0.953532 -0.100651
C31   C     C_R   0.295879 0.744724 0.862103 -0.106144
C32   C     C_R   0.321361 0.781492 0.759690 -0.058707
C33   C     C_R   0.552555 0.168892 0.250205 0.092720
C34   C     C_R   0.506301 0.861579 0.439220 -0.162104
C35   C     C_R   0.666820 0.221535 0.238759 -0.062490
C36   C     C_R   0.691388 0.257993 0.135990 -0.106758
C37   C     C_R   0.602608 0.241806 0.044148 -0.106799
C38   C     C_R   0.488744 0.189561 0.055209 -0.118794
C39   C     C_R   0.463459 0.153227 0.157758 -0.063815
C40   C     C_3   0.686516 0.960742 0.203577 -0.310699
C41   C     C_3   0.287119 0.064687 0.758837 -0.314754
C42   C     C_3   0.265115 0.360114 0.749086 -0.286118
C43   C     C_3   0.691156 0.685997 0.240867 -0.292481
C44   C     C_R   0.480582 0.031085 0.551874 0.007882
C45   C     C_R   0.505365 0.968892 0.445355 0.013683
C46   C     C_R   0.370004 0.413010 0.028762 -0.195470
C47   C     C_R   0.630589 0.588544 0.971027 -0.193934
C48   C     C_R   0.380817 0.422769 0.149202 0.022076
Cu1   Cu    Cu3+1 0.509400 0.507730 0.615930 0.970237
Cu2   Cu    Cu3+1 0.490600 0.492270 0.384070 0.968701
H1    H     H_    0.910351 0.335786 0.392379 0.089121
H2    H     H_    0.706138 0.638433 0.014432 0.099537
H3    H     H_    0.877640 0.607388 0.740344 0.238376
H4    H     H_    0.940774 0.524163 0.895504 0.131448
H5    H     H_    0.079308 0.554154 0.822601 0.125142
H6    H     H_    0.007279 0.423434 0.796548 0.146033
H7    H     H_    0.119824 0.546122 0.257137 0.252530
H8    H     H_    0.064458 0.407924 0.105043 0.123728
H9    H     H_    0.922073 0.442833 0.175950 0.130772
H10   H     H_    0.005197 0.331294 0.206631 0.144774
H11   H     H_    0.615029 0.886261 0.833158 0.093261
H12   H     H_    0.086097 0.667442 0.608642 0.093664
H13   H     H_    0.569873 0.819217 0.012657 0.102429
H14   H     H_    0.365795 0.729753 0.032642 0.104114
H15   H     H_    0.206488 0.706515 0.871089 0.088978
H16   H     H_    0.251173 0.772388 0.690038 0.077507
H17   H     H_    0.736866 0.232652 0.308744 0.079722
H18   H     H_    0.779532 0.297837 0.126907 0.088276
H19   H     H_    0.621722 0.270164 0.964665 0.107139
H20   H     H_    0.419494 0.178262 0.984838 0.102690
H21   H     H_    0.375134 0.112232 0.164960 0.103981
H22   H     H_    0.505653 0.888128 0.208685 0.235401
H23   H     H_    0.061262 0.356593 0.595583 0.085320
H24   H     H_    0.727204 0.883700 0.194848 0.113432
H25   H     H_    0.746702 0.015492 0.266768 0.146614
H26   H     H_    0.687549 0.987008 0.118392 0.156801
H27   H     H_    0.477513 0.107408 0.787293 0.234159
H28   H     H_    0.261306 0.114922 0.694912 0.133799
H29   H     H_    0.265169 0.104489 0.846246 0.125996
H30   H     H_    0.229939 0.990863 0.739775 0.155351
H31   H     H_    0.421493 0.295656 0.812439 0.211412
H32   H     H_    0.209895 0.311840 0.800304 0.079510
H33   H     H_    0.252953 0.324295 0.656872 0.156356
H34   H     H_    0.929298 0.643261 0.400793 0.104041
H35   H     H_    0.229646 0.439331 0.761950 0.163672
H36   H     H_    0.753657 0.539428 0.181601 0.220489
H37   H     H_    0.778599 0.711866 0.203824 0.089012
H38   H     H_    0.700969 0.710205 0.335890 0.168016
H39   H     H_    0.611435 0.724105 0.204926 0.126642
H40   H     H_    0.523187 0.813272 0.358818 0.135245
H41   H     H_    0.460786 0.187032 0.638564 0.151552
H42   H     H_    0.670535 0.633688 0.807470 0.121563
H43   H     H_    0.314549 0.381070 0.193938 0.152482
H44   H     H_    0.294615 0.363611 0.984184 0.100508
N1    N     N_R   0.523540 0.519360 0.790140 -0.200709
N2    N     N_R   0.476460 0.480640 0.209860 -0.206096
N3    N     N_2   0.912692 0.534600 0.720622 -0.482861
N4    N     N_2   0.086854 0.477140 0.278854 -0.496549
N5    N     N_2   0.558671 0.954812 0.239476 -0.530260
N6    N     N_2   0.418926 0.044255 0.755284 -0.521766
N7    N     N_2   0.396151 0.361567 0.781492 -0.471625
N8    N     N_2   0.675172 0.574480 0.214370 -0.454771
O1    O     O_R   0.506670 0.354460 0.582000 -0.474017
O2    O     O_R   0.493330 0.645540 0.418000 -0.499267
O3    O     O_R   0.490800 0.341410 0.386200 -0.502946
O4    O     O_R   0.509200 0.658590 0.613800 -0.506664
O5    O     O_R   0.324790 0.506500 0.597880 -0.506662
O6    O     O_R   0.675210 0.493500 0.402120 -0.478313
O7    O     O_R   0.308910 0.493440 0.402080 -0.492822
O8    O     O_R   0.691090 0.506560 0.597920 -0.490442

loop_
_geom_bond_atom_site_label_1
_geom_bond_atom_site_label_2
_ccdc_geom_bond_type
C38   H20   S    
Cu2   O2    S    
C37   H19   S    
C35   C36   A    
C42   H32   S    
C25   H6    S    
C40   N5    S    
C29   H13   S    
Cu1   O5    S    
H31   N7    S    
C5    C47   A    
C29   C30   A    
C18   C24   A    
C43   H38   S    
C36   C37   A    
C9    C16   S    
C12   O2    A    
C30   H14   S    
C5    C6    A    
C11   C14   S    
C16   N3    S    
C10   C17   S    
C4    N1    A    
H27   N6    S    
C31   H15   S    
C11   C17   S    
C13   H12   S    
Cu2   O3    S    
C24   C27   S    
C3    N2    A    
C48   N2    A    
C17   N4    S    
C1    O1    A    
C20   C45   A    
C28   H11   S    
C7    C15   S    
C7    O5    A    
Cu2   O6    S    
C9    H23   S    
C41   H30   S    
C8    O6    A    
C38   C39   A    
C46   C48   A    
C1    C19   S    
C48   H43   S    
C19   C22   A    
C25   H4    S    
C4    C6    A    
C10   C14   S    
C41   H28   S    
C34   C45   A    
C21   N6    S    
H3    N3    S    
Cu2   O7    S    
C23   C44   A    
C40   H26   S    
C19   C23   A    
C34   H40   S    
Cu1   O1    S    
C37   C38   A    
C8    O8    A    
C21   C44   A    
C18   C34   A    
C31   C32   A    
C46   H44   S    
C35   H17   S    
C4    N7    S    
C41   N6    S    
C42   H35   S    
C33   C39   A    
Cu1   N1    S    
C2    H42   S    
C26   H8    S    
Cu1   O4    S    
C26   N4    S    
C3    N8    S    
C25   N3    S    
C20   C22   A    
C9    C11   S    
C23   H41   S    
C21   C24   A    
H36   N8    S    
C42   N7    S    
C44   C45   A    
C32   H16   S    
C26   H9    S    
C15   C17   S    
C22   C33   S    
C28   C29   A    
C8    C14   S    
C6    C46   A    
C27   C32   A    
C42   H33   S    
C25   H5    S    
C3    C5    A    
C10   C13   S    
C2    N1    A    
C41   H29   S    
C36   H18   S    
C47   H2    S    
C2    C47   A    
C40   H25   S    
C43   H37   S    
C13   C15   S    
C9    C15   S    
C43   N8    S    
C12   O4    A    
Cu2   N2    S    
C30   C31   A    
C20   N5    S    
H7    N4    S    
C10   H34   S    
C33   C35   A    
C40   H24   S    
C14   C16   S    
C43   H39   S    
C11   H1    S    
C7    O7    A    
Cu1   Cu2   S    
C13   C16   S    
C12   C18   S    
C27   C28   A    
C39   H21   S    
C26   H10   S    
C1    O3    A    
Cu1   O8    S    
H22   N5    S    
