data_mof_unit_48422.cif
_audit_creation_date              2012-12-10T20:21:40-0500
_audit_creation_method            fapswitch 2.2
_symmetry_space_group_name_H-M    P1
_symmetry_Int_Tables_number       1
_space_group_crystal_system       triclinic
_cell_length_a                    19.313987
_cell_length_b                    18.695154
_cell_length_c                    8.951812
_cell_angle_alpha                 89.997464
_cell_angle_beta                  94.825945
_cell_angle_gamma                 90.009502
_cell_volume                      3220.84303621

loop_
_atom_site_label
_atom_site_type_symbol
_atom_type_description
_atom_site_fract_x
_atom_site_fract_y
_atom_site_fract_z
_atom_type_partial_charge
C1    C     C_R   0.365902 0.499993 0.500463 0.889918
C2    C     C_R   0.634098 0.500006 0.499536 0.889919
C3    C     C_R   0.538821 0.728454 0.610820 0.484937
C4    C     C_R   0.461179 0.271546 0.389180 0.484936
C5    C     C_R   0.461180 0.728446 0.389179 0.484920
C6    C     C_R   0.538820 0.271553 0.610821 0.484920
C7    C     C_R   0.538095 0.803997 0.610759 -0.288926
C8    C     C_R   0.461905 0.196003 0.389241 -0.288930
C9    C     C_R   0.461910 0.803990 0.389240 -0.288907
C10   C     C_R   0.538090 0.196010 0.610760 -0.288912
C11   C     C_R   0.500003 0.842808 0.500000 -0.054729
C12   C     C_R   0.499997 0.157192 0.500000 -0.054725
C13   C     C_R   0.439263 0.962388 0.455467 -0.165282
C14   C     C_R   0.560736 0.037612 0.544533 -0.165282
C15   C     C_R   0.560737 0.962409 0.544535 -0.165211
C16   C     C_R   0.439262 0.037591 0.455465 -0.165213
C17   C     C_R   0.499998 0.076549 0.499999 0.171316
C18   C     C_R   0.500001 0.923451 0.500001 0.171317
C19   C     C_R   0.499724 0.500001 0.218696 0.945655
C20   C     C_R   0.500276 0.499999 0.781304 0.945655
C21   C     C_1   0.499911 0.500001 0.065309 -0.047261
C22   C     C_1   0.500089 0.499999 0.934691 -0.047262
C23   C     C_R   0.745397 0.435011 0.497136 -0.137394
C24   C     C_R   0.254603 0.564989 0.502861 -0.137394
C25   C     C_R   0.254567 0.434932 0.501578 -0.136332
C26   C     C_R   0.745433 0.565068 0.498419 -0.136337
C27   C     C_R   0.817067 0.435079 0.496894 -0.173265
C28   C     C_R   0.182932 0.564921 0.503100 -0.173267
C29   C     C_R   0.182892 0.434956 0.501668 -0.174110
C30   C     C_R   0.817107 0.565044 0.498327 -0.174114
C31   C     C_R   0.853014 0.500073 0.497812 0.105268
C32   C     C_R   0.146985 0.499926 0.502181 0.105267
C33   C     C_R   0.709247 0.500027 0.498385 -0.032184
C34   C     C_R   0.290753 0.499973 0.501613 -0.032185
C35   C     C_R   0.967791 0.543434 0.600930 -0.171676
C36   C     C_R   0.032209 0.456566 0.399063 -0.171675
C37   C     C_R   0.039527 0.543343 0.602146 -0.176667
C38   C     C_R   0.960473 0.456657 0.397847 -0.176667
C39   C     C_R   0.071822 0.499906 0.501219 0.106571
C40   C     C_R   0.928178 0.500094 0.498774 0.106572
H1    H     H_    0.718510 0.384159 0.496764 0.187166
H2    H     H_    0.281489 0.615841 0.503234 0.187166
H3    H     H_    0.281447 0.384094 0.501596 0.187499
H4    H     H_    0.718553 0.615906 0.498402 0.187499
H5    H     H_    0.844538 0.384537 0.497781 0.144088
H6    H     H_    0.155461 0.615463 0.502213 0.144088
H7    H     H_    0.155499 0.384401 0.502647 0.143804
H8    H     H_    0.844500 0.615599 0.497346 0.143803
H9    H     H_    0.943240 0.576530 0.680632 0.144996
H10   H     H_    0.056759 0.423470 0.319361 0.144997
H11   H     H_    0.069847 0.576399 0.682705 0.142999
H12   H     H_    0.930152 0.423600 0.317287 0.142999
H13   H     H_    0.391126 0.934700 0.422826 0.152295
H14   H     H_    0.608874 0.065300 0.577174 0.152296
H15   H     H_    0.608876 0.934738 0.577177 0.152298
H16   H     H_    0.391124 0.065262 0.422824 0.152298
N1    N     N_R   0.500000 0.689440 0.500000 -0.220665
N2    N     N_R   0.500000 0.310560 0.500000 -0.220665
O1    O     O_R   0.398180 0.560840 0.499960 -0.597445
O2    O     O_R   0.601820 0.439160 0.500040 -0.597445
O3    O     O_R   0.601820 0.560840 0.500040 -0.597464
O4    O     O_R   0.398180 0.439160 0.499960 -0.597467
O5    O     O_R   0.500000 0.560800 0.285330 -0.563109
O6    O     O_R   0.500000 0.439200 0.714670 -0.563109
O7    O     O_R   0.500000 0.560800 0.714670 -0.563145
O8    O     O_R   0.500000 0.439200 0.285330 -0.563145
Zn1   Zn    Zn3+2 0.500000 0.581210 0.500000 1.088600
Zn2   Zn    Zn3+2 0.500000 0.418790 0.500000 1.088599
S1    S     S_3+6 0.587096 0.691180 0.770348 0.039616
O9    O     O_2   0.537315 0.672430 0.883802 -0.252973
O10   O     O_2   0.628555 0.626446 0.736995 -0.299871
O11   O     O_3   0.643101 0.752460 0.847583 -0.583519
H17   H     H_    0.660852 0.731836 0.945333 0.388481
S2    S     S_3+6 0.412905 0.308820 0.229652 0.039617
O12   O     O_2   0.371446 0.373555 0.263003 -0.299847
O13   O     O_2   0.462686 0.327569 0.116198 -0.252996
O14   O     O_3   0.356899 0.247540 0.152418 -0.583515
H18   H     H_    0.339170 0.268150 0.054637 0.388479
S3    S     S_3+6 0.412890 0.691165 0.229665 0.039812
O15   O     O_2   0.462662 0.672383 0.116229 -0.253108
O16   O     O_2   0.371388 0.626451 0.263060 -0.299264
O17   O     O_3   0.356923 0.752450 0.152373 -0.583366
H19   H     H_    0.339181 0.731827 0.054612 0.388215
S4    S     S_3+6 0.587110 0.308835 0.770335 0.039811
O18   O     O_2   0.628612 0.373549 0.736939 -0.299259
O19   O     O_2   0.537338 0.327617 0.883771 -0.253115
O20   O     O_3   0.643077 0.247549 0.847627 -0.583370
H20   H     H_    0.660816 0.268170 0.945390 0.388218
H21   H     H_    0.566079 0.833301 0.700831 0.218716
H22   H     H_    0.433920 0.166699 0.299170 0.218711
H23   H     H_    0.433926 0.833290 0.299172 0.218717
H24   H     H_    0.566074 0.166710 0.700828 0.218716

loop_
_geom_bond_atom_site_label_1
_geom_bond_atom_site_label_2
_ccdc_geom_bond_type
C15   C18   A    
O8    Zn2   S    
O20   H20   S    
C11   C18   S    
C24   H2    S    
C6    N2    A    
S4    O20   S    
C4    C8    A    
C1    O4    A    
C9    H23   S    
C26   H4    S    
O14   H18   S    
C7    C11   A    
C28   H6    S    
S2    O13   D    
C13   C18   A    
C29   H7    S    
O6    Zn2   S    
C30   H8    S    
C3    S1    S    
S4    O19   D    
C29   C32   A    
C3    C7    A    
C1    O1    A    
C30   C31   A    
C37   H11   S    
C2    O2    A    
C38   H12   S    
C7    H21   S    
C31   C40   S    
C19   O8    A    
C32   C39   S    
S1    O10   D    
O1    Zn1   S    
C19   O5    A    
C16   C17   A    
O7    Zn1   S    
S2    O14   S    
C12   C17   S    
C35   H9    S    
C23   C27   A    
C5    S3    S    
C4    S2    S    
C2    O3    A    
C25   C34   A    
C27   H5    S    
C10   H24   S    
C21   C22   T    
C14   C17   A    
C25   H3    S    
N1    Zn1   S    
C1    C34   S    
C13   H13   S    
C25   C29   A    
O5    Zn1   S    
C6    S4    S    
S2    O12   D    
C27   C31   A    
C20   O7    A    
C28   C32   A    
S4    O18   D    
S3    O16   D    
C23   C33   A    
C24   C34   A    
C15   H15   S    
C20   O6    A    
S1    O11   S    
C16   H16   S    
C5    C9    A    
O3    Zn1   S    
C26   C33   A    
C8    C12   A    
C9    C11   A    
C10   C12   A    
C3    N1    A    
C2    C33   S    
N2    Zn2   S    
C14   H14   S    
C20   C22   S    
C26   C30   A    
C8    H22   S    
C36   H10   S    
C35   C37   A    
C19   C21   S    
C36   C39   A    
C24   C28   A    
O11   H17   S    
C6    C10   A    
S3    O17   S    
O4    Zn2   S    
C23   H1    S    
C5    N1    A    
C36   C38   A    
C35   C40   A    
C37   C39   A    
C38   C40   A    
S1    O9    D    
S3    O15   D    
O2    Zn2   S    
O17   H19   S    
C13   C16   A    
C4    N2    A    
C14   C15   A    
