data_mof_unit_37708.cif
_audit_creation_date              2012-12-11T14:15:23-0500
_audit_creation_method            fapswitch 2.2
_symmetry_space_group_name_H-M    P1
_symmetry_Int_Tables_number       1
_space_group_crystal_system       triclinic
_cell_length_a                    11.094444
_cell_length_b                    12.635518
_cell_length_c                    23.445997
_cell_angle_alpha                 90.037027
_cell_angle_beta                  96.389468
_cell_angle_gamma                 69.163826
_cell_volume                      3050.0405524

loop_
_atom_site_label
_atom_site_type_symbol
_atom_type_description
_atom_site_fract_x
_atom_site_fract_y
_atom_site_fract_z
_atom_type_partial_charge
C1    C     C_R   0.150050 0.617434 0.429147 0.537996
C2    C     C_R   0.791987 0.501296 0.301668 -0.033224
C3    C     C_R   0.793528 0.694936 0.310634 -0.033887
C4    C     C_R   0.782957 0.707521 0.249947 0.030207
C5    C     C_R   0.767217 0.618591 0.216752 0.063619
C6    C     C_R   0.728496 0.636782 0.158103 -0.070540
C7    C     C_R   0.728701 0.827194 0.162164 -0.122405
C8    C     C_R   0.779224 0.807672 0.219983 0.017210
C9    C     C_1   0.234800 0.163233 0.122715 0.040407
C10   C     C_2   0.178125 0.232762 0.226330 -0.060476
C11   C     C_2   0.155938 0.162818 0.263479 0.414257
C12   C     C_R   0.810713 0.573799 0.400635 0.541879
C13   C     C_1   0.133182 0.196723 0.321234 0.024593
C14   C     C_1   0.208588 0.198017 0.169404 0.045145
C15   C     C_1   0.116848 0.230493 0.368924 0.001201
C16   C     C_1   0.168122 0.747343 0.123501 0.002444
C17   C     C_2   0.157653 0.675729 0.228388 0.363941
C18   C     C_2   0.239203 0.686663 0.273301 0.015996
C19   C     C_1   0.221790 0.658517 0.330687 0.028171
C20   C     C_1   0.160829 0.714090 0.170711 0.024289
C21   C     C_1   0.196707 0.637980 0.377202 0.031762
C22   C     C_1   0.613044 0.765904 0.861803 -0.021441
C23   C     C_R   0.101335 0.281649 0.423572 0.538767
C24   C     C_2   0.638105 0.755220 0.751357 0.409717
C25   C     C_2   0.635715 0.663236 0.724050 -0.090027
C26   C     C_1   0.660723 0.649943 0.665261 0.063799
C27   C     C_1   0.629197 0.760592 0.811908 -0.023087
C28   C     C_1   0.693014 0.632971 0.617878 0.077801
C29   C     C_R   0.266090 0.061495 0.838496 -0.009605
C30   C     C_R   0.112951 0.194105 0.632719 -0.028920
C31   C     C_R   0.014654 0.135219 0.709665 -0.023207
C32   C     C_R   0.002320 0.184312 0.654401 -0.072267
C33   C     C_R   0.236737 0.133730 0.661457 -0.016043
C34   C     C_R   0.104118 0.591527 0.594248 0.592241
C35   C     C_R   0.247826 0.097600 0.718982 -0.041065
C36   C     C_R   0.135936 0.101896 0.744413 0.017102
C37   C     C_R   0.148246 0.077709 0.804127 0.343039
C38   C     C_R   0.377460 0.054122 0.811611 -0.086982
C39   C     C_R   0.368056 0.066911 0.752648 -0.111436
C40   C     C_R   0.115441 0.744234 0.854994 -0.053188
C41   C     C_R   0.120262 0.593548 0.657189 -0.025365
C42   C     C_R   0.245163 0.522767 0.750199 -0.016651
C43   C     C_R   0.224427 0.511216 0.691043 0.305603
C44   C     C_R   0.028477 0.679462 0.683786 0.337131
C45   C     C_R   0.747949 0.602319 0.565402 0.554098
C46   C     C_R   0.051063 0.695267 0.742237 0.021636
C47   C     C_R   0.162546 0.618469 0.775672 -0.139938
C48   C     C_R   0.192705 0.643656 0.832526 -0.147149
C49   C     C_R   0.999645 0.813736 0.823190 -0.082353
C50   C     C_R   0.968428 0.790720 0.767120 0.440144
C51   C     C_R   0.265469 0.110541 0.069305 0.558028
C52   C     C_R   0.604259 0.773172 0.079712 0.551792
C53   C     C_R   0.189215 0.787154 0.069598 0.549487
C54   C     C_R   0.274256 0.052519 0.901811 0.579739
C55   C     C_R   0.574296 0.777054 0.918161 0.537607
C56   C     C_R   0.099970 0.274272 0.584077 0.536361
C57   C     C_R   0.163052 0.786683 0.907320 0.542127
C58   C     C_R   0.693501 0.744843 0.132733 -0.024044
C59   C     C_R   0.795669 0.591552 0.336970 -0.085669
C60   C     C_R   0.778400 0.515424 0.242389 0.362510
Cr1   Cr    Cr6+3 0.189770 0.415650 0.511620 1.110392
Cr2   Cr    Cr6+3 0.930400 0.667320 0.496770 1.122317
Cr3   Cr    Cr6+3 0.879870 0.417010 0.491650 1.072421
Cr4   Cr    Cr6+3 0.149500 0.973980 0.985330 1.108709
Cr5   Cr    Cr6+3 0.457000 0.976510 0.994660 1.061430
Cr6   Cr    Cr6+3 0.411170 0.724270 0.995270 1.046993
H1    H     H_    0.710115 0.570311 0.133474 0.202689
H2    H     H_    0.627465 0.592184 0.747287 0.082269
H3    H     H_    0.454560 0.062932 0.733905 0.206450
H4    H     H_    0.281042 0.590011 0.857935 0.159744
H5    H     H_    0.712104 0.908165 0.140840 0.144689
H6    H     H_    0.937405 0.891424 0.840010 0.208346
H7    H     H_    0.176503 0.315940 0.239050 0.101982
O1    O     O_R   0.196340 0.303200 0.448500 -0.497205
O2    O     O_R   0.811960 0.658090 0.547150 -0.454715
O3    O     O_R   0.757930 0.506140 0.547110 -0.499261
O4    O     O_R   0.988670 0.321620 0.556040 -0.500537
O5    O     O_3   0.000020 0.499990 0.500010 -0.333658
O6    O     O_R   0.113660 0.883270 0.047820 -0.493645
O7    O     O_R   0.186930 0.068530 0.043990 -0.481265
O8    O     O_R   0.377770 0.089040 0.054220 -0.499148
O9    O     O_R   0.562800 0.872960 0.056970 -0.494550
O10   O     O_R   0.555390 0.700940 0.062700 -0.507809
O11   O     O_R   0.295020 0.731920 0.049950 -0.488834
O12   O     O_R   0.199310 0.519670 0.454880 -0.494858
O13   O     O_R   0.094290 0.884230 0.921550 -0.483685
O14   O     O_R   0.168980 0.069410 0.926940 -0.412014
O15   O     O_R   0.358400 0.089990 0.927950 -0.509845
O16   O     O_R   0.544850 0.873850 0.939920 -0.507712
O17   O     O_R   0.536020 0.701900 0.936430 -0.501736
O18   O     O_R   0.277070 0.732810 0.932890 -0.507762
O19   O     O_3   0.339220 0.891590 0.991750 -0.295749
O20   O     O_R   0.045660 0.691380 0.441680 -0.497004
O21   O     O_R   0.811930 0.659460 0.430950 -0.481663
O22   O     O_R   0.757900 0.507620 0.421760 -0.490579
O23   O     O_R   0.988630 0.322990 0.439840 -0.500063
O24   O     O_R   0.196380 0.301720 0.573850 -0.456088
O25   O     O_R   0.199350 0.518300 0.571080 -0.429523
O26   O     O_R   0.045700 0.689900 0.567030 -0.438073
F1    F     F_    0.067497 0.629169 0.236798 -0.653733
F2    F     F_    0.642010 0.846416 0.722036 -0.537232
F3    F     F_    0.044138 0.078345 0.829781 -0.620651
C61   C     C_1   0.502776 0.041471 0.842341 0.292716
N1    N     N_1   0.603241 0.032491 0.866249 -0.219843
C62   C     C_1   0.900090 0.126646 0.730888 0.347545
N2    N     N_1   0.808453 0.120249 0.747572 -0.127222
C63   C     C_1   0.874954 0.224745 0.620995 0.249701
N3    N     N_1   0.773255 0.256619 0.594589 -0.214024
C64   C     C_1   0.352206 0.111563 0.632510 0.280664
N4    N     N_1   0.444203 0.093616 0.609562 -0.177195
C65   C     C_1   0.354446 0.437404 0.783249 0.275912
N5    N     N_1   0.441774 0.368981 0.809605 -0.247900
F4    F     F_    0.864624 0.868717 0.735989 -0.499104
F5    F     F_    0.307924 0.420795 0.666808 -0.592572
F6    F     F_    0.919350 0.750440 0.652053 -0.530635
F7    F     F_    0.769611 0.429152 0.209308 -0.627758
C66   C     C_1   0.828314 0.890902 0.245339 0.237972
N6    N     N_1   0.868099 0.957664 0.265112 -0.194346
C67   C     C_1   0.795874 0.393414 0.324309 0.307322
N7    N     N_1   0.797825 0.307124 0.341840 -0.215739
C68   C     C_1   0.784679 0.792877 0.344666 0.270707
N8    N     N_1   0.777000 0.870992 0.371934 -0.220198
F8    F     F_    0.158713 0.058234 0.248023 -0.589998
C69   C     C_1   0.339337 0.732466 0.266312 0.205723
N9    N     N_1   0.419553 0.768953 0.260700 -0.254444

loop_
_geom_bond_atom_site_label_1
_geom_bond_atom_site_label_2
_ccdc_geom_bond_type
Cr5   O19   S    
C54   O15   A    
C1    C21   S    
Cr4   O7    S    
C6    C58   A    
C35   C36   A    
C9    C51   S    
C24   C27   S    
C4    C8    A    
C7    C8    A    
Cr6   O17   S    
C31   C32   A    
C57   O13   A    
Cr5   O16   S    
C34   C41   S    
C53   O11   A    
C36   C37   A    
C53   O6    A    
C24   F2    S    
C55   O17   A    
C43   F5    S    
C7    H5    S    
C5    C6    A    
Cr1   O12   S    
C10   H7    S    
C2    C60   A    
Cr3   O3    S    
C40   C49   A    
Cr3   O22   S    
C17   C20   S    
C23   O23   A    
C18   C19   S    
C51   O7    A    
C34   O25   A    
Cr6   O10   S    
C16   C53   S    
C12   C59   S    
C65   N5    T    
C44   F6    S    
C49   H6    S    
C29   C38   A    
C63   N3    T    
C12   O22   A    
C57   O18   A    
C51   O8    A    
C7    C58   A    
C5    C60   A    
C15   C23   S    
C31   C62   S    
C12   O21   A    
C25   H2    S    
C56   O24   A    
Cr4   O13   S    
C44   C46   A    
C8    C66   S    
C17   C18   D    
C1    O12   A    
C38   C39   A    
Cr1   O24   S    
C28   C45   S    
C24   C25   D    
C10   C14   S    
C2    C59   A    
Cr6   O19   S    
C37   F3    S    
C25   C26   S    
C30   C56   S    
Cr3   O23   S    
C32   C63   S    
C56   O4    A    
C52   O10   A    
C35   C39   A    
C9    C14   T    
C38   C61   S    
Cr5   O8    S    
C47   C48   A    
Cr1   O5    S    
C16   C20   T    
C41   C44   A    
C34   O26   A    
C39   H3    S    
C52   O9    A    
C68   N8    T    
C22   C55   S    
C52   C58   S    
C6    H1    S    
C22   C27   T    
C13   C15   T    
Cr4   O6    S    
Cr2   O2    S    
C60   F7    S    
C33   C64   S    
C42   C43   A    
Cr4   O19   S    
C23   O1    A    
C3    C4    A    
Cr5   O15   S    
Cr3   O4    S    
C40   C48   A    
C46   C47   A    
C40   C57   S    
Cr4   O14   S    
C30   C33   A    
C19   C21   T    
Cr2   O5    S    
C42   C65   S    
C11   F8    S    
C41   C43   A    
C48   H4    S    
C4    C5    A    
C67   N7    T    
Cr6   O18   S    
Cr1   O1    S    
C62   N2    T    
C46   C50   A    
C26   C28   T    
C45   O2    A    
C50   F4    S    
Cr2   O21   S    
C55   O16   A    
C64   N4    T    
C30   C32   A    
C11   C13   S    
Cr1   O25   S    
Cr5   O9    S    
C54   O14   A    
C2    C67   S    
C45   O3    A    
C33   C35   A    
C42   C47   A    
C17   F1    S    
C10   C11   D    
Cr6   O11   S    
Cr2   O26   S    
C1    O20   A    
C49   C50   A    
C29   C54   S    
Cr2   O20   S    
C29   C37   A    
C61   N1    T    
C31   C36   A    
C66   N6    T    
C3    C68   S    
C18   C69   S    
C69   N9    T    
Cr3   O5    S    
C3    C59   A    
