data_mof_unit_34299.cif
_audit_creation_date              2013-03-05T15:48:38-0500
_audit_creation_method            fapswitch 2.2
_symmetry_space_group_name_H-M    P1
_symmetry_Int_Tables_number       1
_space_group_crystal_system       triclinic
_cell_length_a                    10.085601
_cell_length_b                    10.60457
_cell_length_c                    23.13328
_cell_angle_alpha                 91.861417
_cell_angle_beta                  83.543128
_cell_angle_gamma                 95.330053
_cell_volume                      2447.25261564

loop_
_atom_site_label
_atom_site_type_symbol
_atom_site_description
_atom_site_fract_x
_atom_site_fract_y
_atom_site_fract_z
_atom_type_partial_charge
O1    O     O_R   0.431060 0.692470 0.504730 -0.563572
O2    O     O_R   0.568940 0.307530 0.495270 -0.588143
O3    O     O_R   0.651120 0.659650 0.489640 -0.623967
O4    O     O_R   0.348880 0.340350 0.510360 -0.580197
C1    C     C_R   0.554858 0.734209 0.499257 0.767915
C2    C     C_R   0.445774 0.266650 0.509045 0.866072
O5    O     O_R   0.389950 0.516450 0.591390 -0.575206
O6    O     O_R   0.610050 0.483550 0.408610 -0.574261
O7    O     O_R   0.610020 0.483630 0.576300 -0.554264
O8    O     O_R   0.389980 0.516370 0.423700 -0.525012
C3    C     C_R   0.503060 0.502876 0.610777 1.042091
C4    C     C_R   0.499328 0.505617 0.388703 0.913853
Zn1   Zn    Zn3+2 0.353060 0.521920 0.510080 1.068478
Zn2   Zn    Zn3+2 0.646940 0.478080 0.489920 1.046450
C5    C     C_R   0.406652 0.569801 0.129971 0.647953
C6    C     C_R   0.604747 0.662842 0.876253 0.642244
N1    N     N_R   0.503541 0.647439 0.153651 -0.317918
N2    N     N_R   0.495177 0.602978 0.853854 -0.323657
C7    C     C_R   0.597550 0.720893 0.119463 0.609626
C8    C     C_R   0.383217 0.560265 0.888946 0.614061
C9    C     C_R   0.602412 0.710661 0.058351 -0.165560
C10   C     C_R   0.384342 0.562389 0.949563 -0.170106
C11   C     C_R   0.495352 0.639468 0.034158 -0.103938
C12   C     C_R   0.493526 0.630545 0.973417 -0.099406
C13   C     C_R   0.391123 0.575146 0.070780 -0.165727
C14   C     C_R   0.601499 0.688485 0.936415 -0.161978
C15   C     C_R   0.709693 0.769850 0.021072 0.385425
C16   C     C_R   0.279539 0.499080 0.986594 0.380225
C17   C     C_R   0.705515 0.764511 0.960479 0.235692
C18   C     C_R   0.279101 0.511399 0.047138 0.213482
O9    O     O_2   0.329326 0.483573 0.163421 -0.530587
O10   O     O_2   0.717460 0.693374 0.840438 -0.509441
O11   O     O_2   0.685289 0.802695 0.144773 -0.488686
O12   O     O_2   0.271597 0.516433 0.864823 -0.480706
C19   C     C_R   0.478800 0.453715 0.771929 -0.226261
C20   C     C_R   0.626216 0.596958 0.233461 -0.226695
H1    H     H_    0.456976 0.378174 0.802936 0.205102
H2    H     H_    0.715160 0.590743 0.202890 0.213655
C21   C     C_R   0.475362 0.426276 0.712816 0.239745
C22   C     C_R   0.624887 0.552351 0.289484 0.264848
C23   C     C_R   0.512411 0.524371 0.672927 -0.351324
C24   C     C_R   0.503411 0.542062 0.327007 -0.390516
C25   C     C_R   0.549864 0.648698 0.693085 0.346190
C26   C     C_R   0.387135 0.583398 0.307118 0.340678
C27   C     C_R   0.526842 0.678943 0.752828 0.296594
C28   C     C_R   0.396143 0.649007 0.254736 0.261586
C29   C     C_R   0.499594 0.578983 0.792299 0.043137
C30   C     C_R   0.511996 0.641201 0.215101 0.056378
C31   C     C_2   0.580963 0.871936 0.502920 0.196405
C32   C     C_2   0.421189 0.134349 0.527189 0.135519
C33   C     C_2   0.511320 0.937259 0.545987 0.224159
C34   C     C_2   0.523606 0.074614 0.544435 0.256434
N3    N     N_2   0.842710 0.448880 0.476480 -0.191246
N4    N     N_2   0.157290 0.551120 0.523520 -0.191891
C35   C     C_2   0.925678 0.464701 0.515775 0.330802
C36   C     C_2   0.075688 0.469596 0.498482 0.367098
H3    H     H_    0.115828 0.610683 0.555257 0.164985
H4    H     H_    0.884943 0.446938 0.433909 0.161860
O13   O     O_3   0.816654 0.838806 0.043285 -0.545774
C37   C     C_3   0.915367 0.755966 0.050807 0.163620
H5    H     H_    0.940917 0.697906 0.010754 0.163348
H6    H     H_    0.880741 0.690650 0.087214 0.174794
C38   C     C_3   0.042395 0.833909 0.065148 -0.588162
H7    H     H_    0.022358 0.887483 0.106789 0.273611
H8    H     H_    0.122434 0.770733 0.069330 0.221262
H9    H     H_    0.077749 0.901696 0.029901 0.251723
O14   O     O_3   0.174263 0.427606 0.964260 -0.542463
C39   C     C_3   0.212344 0.303760 0.951251 0.135800
H10   H     H_    0.243973 0.259913 0.990025 0.156957
H11   H     H_    0.296382 0.304417 0.915651 0.146260
C40   C     C_3   0.093654 0.221068 0.931461 -0.589553
H12   H     H_    0.061615 0.260696 0.891935 0.266339
H13   H     H_    0.122366 0.123586 0.921136 0.223788
H14   H     H_    0.008639 0.216724 0.966519 0.269069
N5    N     N_R   0.800105 0.845918 0.924374 0.269535
O15   O     O_R   0.928351 0.842442 0.925474 -0.350908
O16   O     O_R   0.757381 0.929928 0.892895 -0.299747
N6    N     N_R   0.160215 0.467544 0.084022 0.260310
O17   O     O_R   0.104412 0.352928 0.078209 -0.347506
O18   O     O_R   0.102751 0.545177 0.121480 -0.348743
N7    N     N_R   0.432773 0.299655 0.694468 0.245397
O19   O     O_R   0.353068 0.281060 0.654019 -0.455104
O20   O     O_R   0.456936 0.203261 0.723823 -0.285821
N8    N     N_R   0.746136 0.510698 0.305649 0.227653
O21   O     O_R   0.854099 0.588542 0.302440 -0.371764
O22   O     O_R   0.754717 0.390738 0.313071 -0.403449
O23   O     O_3   0.598063 0.742878 0.654138 -0.559172
C41   C     C_3   0.735010 0.731258 0.635061 0.082322
H15   H     H_    0.754942 0.761344 0.589170 0.188971
H16   H     H_    0.763300 0.633105 0.636056 0.188453
C42   C     C_3   0.826454 0.815715 0.671085 -0.698600
H17   H     H_    0.811408 0.786653 0.717194 0.281228
H18   H     H_    0.932534 0.805852 0.654219 0.205456
H19   H     H_    0.805960 0.916262 0.668221 0.300165
O24   O     O_3   0.261678 0.542727 0.333599 -0.527340
C43   C     C_3   0.229770 0.416625 0.313946 0.107896
H20   H     H_    0.258510 0.350980 0.345575 0.166264
H21   H     H_    0.282251 0.391906 0.270450 0.161818
C44   C     C_3   0.080740 0.394709 0.308717 -0.526360
H22   H     H_    0.055279 0.452811 0.273188 0.310805
H23   H     H_    0.053362 0.293497 0.298053 0.183103
H24   H     H_    0.022901 0.421037 0.350125 0.260516
N9    N     N_R   0.523048 0.808848 0.773464 0.268586
O25   O     O_R   0.440370 0.836529 0.818428 -0.333619
O26   O     O_R   0.590012 0.901550 0.744506 -0.250386
N10   N     N_R   0.284793 0.712936 0.239245 0.248323
O27   O     O_R   0.303525 0.795082 0.197848 -0.371105
O28   O     O_R   0.169871 0.704491 0.271293 -0.280585
N11   N     N_R   0.642642 0.140794 0.563859 0.225365
O29   O     O_R   0.631552 0.235868 0.600319 -0.369071
O30   O     O_R   0.755170 0.088369 0.557087 -0.415664
N12   N     N_R   0.431379 0.880398 0.595756 0.200908
O31   O     O_R   0.441983 0.934341 0.646563 -0.261651
O32   O     O_R   0.322699 0.807768 0.589364 -0.392244
O33   O     O_3   0.298739 0.067332 0.520512 -0.641868
C45   C     C_3   0.211094 0.084726 0.571754 0.183743
H25   H     H_    0.185976 0.184619 0.576685 0.154380
H26   H     H_    0.255888 0.060215 0.611250 0.232710
C46   C     C_3   0.081773 0.999186 0.569466 -0.766278
H27   H     H_    0.102599 0.898176 0.567460 0.278694
H28   H     H_    0.012520 0.016590 0.609076 0.223551
H29   H     H_    0.031665 0.018720 0.530958 0.260798
O34   O     O_3   0.672726 0.939211 0.462793 -0.602134
C47   C     C_3   0.676427 0.883714 0.406307 0.082030
H30   H     H_    0.573646 0.856464 0.394011 0.127501
H31   H     H_    0.734654 0.799275 0.403371 0.191728
C48   C     C_3   0.746245 0.979281 0.362741 -0.684152
H32   H     H_    0.849645 0.008008 0.373397 0.254039
H33   H     H_    0.751406 0.936399 0.318180 0.233644
H34   H     H_    0.689719 0.064588 0.363963 0.258407
O35   O     O_3   0.129180 0.388318 0.455092 -0.576734
C49   C     C_3   0.065690 0.263516 0.460974 0.069577
H35   H     H_    0.963417 0.256104 0.447200 0.148147
H36   H     H_    0.058715 0.233299 0.506694 0.140679
C50   C     C_3   0.144289 0.170507 0.422441 -0.707224
H37   H     H_    0.112298 0.071997 0.435958 0.242373
H38   H     H_    0.123834 0.176732 0.376632 0.207680
H39   H     H_    0.253398 0.189880 0.425097 0.268732
O36   O     O_3   0.875698 0.481497 0.573528 -0.615346
C51   C     C_3   0.928070 0.395535 0.608719 0.068646
H40   H     H_    0.038209 0.414771 0.608977 0.129873
H41   H     H_    0.905074 0.296129 0.593470 0.200998
C52   C     C_3   0.865555 0.408624 0.671373 -0.680063
H42   H     H_    0.754952 0.392710 0.673741 0.276126
H43   H     H_    0.902268 0.337501 0.698451 0.233021
H44   H     H_    0.893703 0.504724 0.689133 0.233387

loop_
_geom_bond_atom_site_label_1
_geom_bond_atom_site_label_2
_geom_bond_distance
_ccdc_geom_bond_type
C52   H44   1.110509 S    
O23   C41   1.417258 S    
C38   H8    1.109986 S    
C33   N12   1.444026 S    
N3    H4    1.028424 S    
C50   H39   1.108743 S    
C22   N8    1.429794 S    
O24   C43   1.418445 S    
N1    C30   1.437634 S    
C35   C36   1.517346 S    
C19   C29   1.400177 A    
N2    C29   1.434840 S    
N12   O32   1.299511 A    
N7    O19   1.299389 A    
O34   C47   1.413641 S    
C21   C23   1.409204 A    
O5    C3    1.293450 A    
C37   C38   1.521734 S    
O1    C1    1.279182 A    
C19   H1    1.083396 S    
C12   C14   1.412905 A    
N11   O30   1.301238 A    
N6    O18   1.301482 A    
C5    C13   1.399136 A    
C15   C17   1.406229 A    
N10   O27   1.301743 A    
O33   C45   1.414560 S    
C31   O34   1.397966 S    
C43   C44   1.517230 S    
C35   O36   1.385831 S    
C45   H25   1.111239 S    
C37   H6    1.112592 S    
C32   O33   1.388098 S    
C27   C29   1.408990 A    
O4    Zn1   1.922221 S    
C4    C24   1.485838 S    
C27   N9    1.445697 S    
C49   H35   1.108554 S    
C31   C33   1.361603 D    
C43   H21   1.118111 S    
C32   C34   1.363106 D    
C11   C12   1.407321 A    
C51   C52   1.521574 S    
C20   C30   1.396767 A    
C8    O12   1.349816 S    
C50   H37   1.108643 S    
C9    C15   1.416864 A    
C38   H9    1.110778 S    
O13   C37   1.415831 S    
C10   C16   1.415520 A    
C23   C25   1.416177 A    
C1    C31   1.461231 S    
O2    C2    1.285476 A    
C24   C26   1.417401 A    
N12   O31   1.301276 A    
N7    O20   1.301564 A    
C26   C28   1.406769 A    
C28   C30   1.408874 A    
N3    C35   1.299909 D    
C6    C14   1.406683 A    
N4    C36   1.304889 D    
O14   C39   1.415966 S    
C49   C50   1.524803 S    
C20   C22   1.392220 A    
C16   O14   1.384635 S    
N8    O21   1.300540 A    
C21   N7    1.436826 S    
O4    C2    1.303997 A    
C7    O11   1.348803 S    
C42   H17   1.109953 S    
C40   H13   1.110666 S    
O7    Zn2   1.991031 S    
N6    O17   1.300569 A    
C39   H10   1.114220 S    
C2    C32   1.468426 S    
C33   C34   1.451608 S    
C37   H5    1.114777 S    
C19   C21   1.392416 A    
N5    O15   1.300504 A    
C48   H33   1.110868 S    
C42   H18   1.109992 S    
N5    O16   1.301413 A    
C44   H22   1.109435 S    
C41   C42   1.522540 S    
O6    C4    1.298096 A    
C43   H20   1.105557 S    
C44   H24   1.105918 S    
N9    O26   1.299609 A    
C51   H40   1.111258 S    
C46   H27   1.109078 S    
O7    C3    1.295494 A    
C46   H28   1.109300 S    
O8    C4    1.304326 A    
C47   C48   1.520782 S    
C49   H36   1.107860 S    
C44   H23   1.110024 S    
C8    C10   1.403027 A    
C9    C11   1.416376 A    
C50   H38   1.107328 S    
C10   C12   1.415066 A    
O1    Zn1   1.906189 S    
O35   C49   1.419420 S    
C20   H2    1.083724 S    
C47   H31   1.111786 S    
Zn1   N4    2.015020 S    
C46   H29   1.106596 S    
C13   C18   1.416205 A    
C52   H43   1.110447 S    
O6    Zn2   1.961715 S    
C7    C9    1.410053 A    
C41   H16   1.106145 S    
O3    C1    1.303770 A    
O8    Zn1   1.991033 S    
C40   H14   1.110727 S    
O36   C51   1.416718 S    
C5    O9    1.349402 S    
C17   N5    1.437919 S    
O3    Zn2   1.922220 S    
C6    O10   1.349354 S    
C45   C46   1.522952 S    
C25   O23   1.383940 S    
C16   C18   1.401976 A    
C52   H42   1.108017 S    
C48   H34   1.111187 S    
C40   H12   1.110723 S    
C25   C27   1.407032 A    
C26   O24   1.379760 S    
C15   O13   1.384271 S    
N11   O29   1.298035 A    
C42   H19   1.110242 S    
N10   O28   1.301088 A    
C34   N11   1.442235 S    
C39   C40   1.521076 S    
C28   N10   1.448093 S    
C22   C24   1.417227 A    
N1    C7    1.365787 A    
C45   H26   1.112006 S    
C3    C23   1.460521 S    
N2    C8    1.364517 A    
C11   C13   1.411413 A    
O2    Zn2   1.906190 S    
C36   O35   1.396379 S    
C38   H7    1.110633 S    
C18   N6    1.440169 S    
O5    Zn1   1.961715 S    
Zn2   N3    2.015018 S    
C41   H15   1.109650 S    
C14   C17   1.416152 A    
C6    N2    1.367401 A    
N9    O25   1.301536 A    
C39   H11   1.113088 S    
N8    O22   1.301260 A    
C51   H41   1.112780 S    
C5    N1    1.369115 A    
C48   H32   1.111315 S    
C47   H30   1.115484 S    
N4    H3    1.030903 S    
