data_mof_unit_28448.cif
_audit_creation_date              2012-12-10T17:57:23-0500
_audit_creation_method            fapswitch 2.2
_symmetry_space_group_name_H-M    P1
_symmetry_Int_Tables_number       1
_space_group_crystal_system       triclinic
_cell_length_a                    9.589663
_cell_length_b                    10.827902
_cell_length_c                    13.462387
_cell_angle_alpha                 90.256468
_cell_angle_beta                  73.502967
_cell_angle_gamma                 89.983201
_cell_volume                      1340.3197879

loop_
_atom_site_label
_atom_site_type_symbol
_atom_type_description
_atom_site_fract_x
_atom_site_fract_y
_atom_site_fract_z
_atom_type_partial_charge
C1    C     C_R   0.499894 0.737713 0.500307 0.777976
C2    C     C_R   0.439742 0.564194 0.977680 0.083621
C3    C     C_R   0.483744 0.563888 0.867795 0.034790
C4    C     C_R   0.546523 0.551073 0.031159 0.093646
C5    C     C_R   0.694441 0.545567 0.973799 0.170154
C6    C     C_R   0.736028 0.574578 0.869014 -0.262510
C7    C     C_R   0.631082 0.589482 0.817713 -0.179697
C8    C     C_R   0.510909 0.533757 0.138644 -0.252564
C9    C     C_R   0.763102 0.494992 0.128314 -0.212640
C10   C     C_R   0.379460 0.536343 0.813303 -0.220174
C11   C     C_R   0.626845 0.936092 0.499614 -0.186899
C12   C     C_R   0.423126 0.510796 0.699663 0.803337
C13   C     C_R   0.626868 0.063865 0.499544 -0.186088
C14   C     C_R   0.499664 0.128337 0.500790 -0.017229
C15   C     C_R   0.372271 0.063943 0.502512 -0.190277
C16   C     C_R   0.372278 0.936160 0.502511 -0.183930
C17   C     C_R   0.499651 0.871687 0.500842 -0.012083
C18   C     C_R   0.906857 0.591909 0.548235 -0.033942
C19   C     C_R   0.054645 0.591218 0.549137 -0.005313
C20   C     C_R   0.093913 0.409083 0.450327 -0.049519
C21   C     C_R   0.945519 0.408912 0.450624 -0.026384
C22   C     C_R   0.499865 0.262302 0.500271 0.784791
C23   C     C_R   0.577034 0.500586 0.300513 0.800769
C24   C     C_R   0.799098 0.511068 0.021729 -0.215413
C25   C     C_R   0.618727 0.509521 0.187599 -0.040991
C26   C     C_R   0.230990 0.528873 0.870704 0.438366
C27   C     C_R   0.189042 0.561043 0.975650 -0.234830
C28   C     C_R   0.290998 0.574696 0.029286 -0.270136
Cu1   Cu    Cu3+1 0.359340 0.499980 0.500000 0.950524
Cu2   Cu    Cu3+1 0.640660 0.500020 0.500000 0.937954
H1    H     H_    0.847369 0.470670 0.163921 0.151541
H2    H     H_    0.726446 0.111840 0.498333 0.145577
H3    H     H_    0.272672 0.111988 0.503765 0.145234
H4    H     H_    0.272700 0.888176 0.503738 0.144790
H5    H     H_    0.837242 0.667001 0.585697 0.103040
H6    H     H_    0.093989 0.664469 0.588935 0.124674
H7    H     H_    0.165137 0.336120 0.410114 0.122054
H8    H     H_    0.906246 0.335805 0.410645 0.116391
H9    H     H_    0.849733 0.584493 0.826387 0.189450
H10   H     H_    0.906933 0.492397 0.974982 0.178242
H11   H     H_    0.399715 0.536976 0.185812 0.155256
H12   H     H_    0.249700 0.593351 0.111137 0.151678
H13   H     H_    0.077188 0.570615 0.019217 0.150301
H14   H     H_    0.668007 0.622348 0.739575 0.172921
H15   H     H_    0.726395 0.888062 0.498495 0.145415
N1    N     N_R   0.147940 0.499970 0.499970 -0.162108
N2    N     N_R   0.852060 0.500060 0.499990 -0.154653
O1    O     O_R   0.381250 0.680340 0.500010 -0.593571
O2    O     O_R   0.618820 0.680370 0.500010 -0.596382
O3    O     O_R   0.323240 0.499950 0.650980 -0.525995
O4    O     O_R   0.560810 0.499980 0.650980 -0.589409
O5    O     O_R   0.381180 0.319630 0.499990 -0.594017
O6    O     O_R   0.618750 0.319660 0.499990 -0.589091
O7    O     O_R   0.439190 0.500020 0.349020 -0.586143
O8    O     O_R   0.676760 0.500050 0.349020 -0.580500
O9    O     O_3   0.125564 0.492728 0.824787 -0.591654
C29   C     C_3   0.117355 0.362145 0.827374 0.065625
H16   H     H_    0.078240 0.328681 0.908709 0.128952
H17   H     H_    0.224999 0.318870 0.789631 0.141620
C30   C     C_3   0.011485 0.318814 0.769093 -0.764823
H18   H     H_    0.045606 0.353824 0.688392 0.266276
H19   H     H_    0.009687 0.216315 0.766946 0.192847
H20   H     H_    0.900171 0.352556 0.808438 0.241153

loop_
_geom_bond_atom_site_label_1
_geom_bond_atom_site_label_2
_ccdc_geom_bond_type
C12   O3    A    
Cu2   O4    S    
C1    O1    A    
C23   O8    A    
C6    C7    A    
C20   H7    S    
C18   H5    S    
C13   H2    S    
C1    C17   S    
C14   C15   A    
Cu1   N1    S    
C4    C8    A    
C18   N2    A    
C14   C22   S    
C2    C3    A    
C29   H16   S    
C19   N1    A    
C9    C25   A    
C9    C24   A    
C3    C10   A    
C13   C14   A    
C8    H11   S    
C8    C25   A    
C11   C13   A    
C10   C26   A    
C26   C27   A    
Cu1   Cu2   S    
C5    C24   A    
C10   C12   S    
Cu1   O3    S    
C30   H20   S    
C2    C4    A    
C22   O5    A    
C24   H10   S    
Cu2   O2    S    
C22   O6    A    
C3    C7    A    
C19   H6    S    
C23   C25   S    
C5    C6    A    
Cu2   O6    S    
C20   N1    A    
C11   H15   S    
C29   H17   S    
Cu1   O7    S    
C9    H1    S    
Cu1   O1    S    
C15   C16   A    
C27   H13   S    
Cu2   N2    S    
C4    C5    A    
C12   O4    A    
C20   C21   A    
C23   O7    A    
C30   H19   S    
C18   C19   A    
Cu2   O8    S    
C28   H12   S    
C27   C28   A    
O9    C29   S    
C6    H9    S    
C30   H18   S    
C29   C30   S    
C2    C28   A    
C16   H4    S    
C7    H14   S    
C1    O2    A    
C15   H3    S    
C11   C17   A    
C21   H8    S    
C16   C17   A    
C21   N2    A    
Cu1   O5    S    
C26   O9    S    
