data_mof_unit_20947.cif
_audit_creation_date              2012-12-10T19:07:37-0500
_audit_creation_method            fapswitch 2.2
_symmetry_space_group_name_H-M    P1
_symmetry_Int_Tables_number       1
_space_group_crystal_system       triclinic
_cell_length_a                    10.861488
_cell_length_b                    10.797027
_cell_length_c                    9.56941
_cell_angle_alpha                 89.904288
_cell_angle_beta                  89.421417
_cell_angle_gamma                 90.573218
_cell_volume                      1122.10659895

loop_
_atom_site_label
_atom_site_type_symbol
_atom_type_description
_atom_site_fract_x
_atom_site_fract_y
_atom_site_fract_z
_atom_type_partial_charge
C1    C     C_R   0.500815 0.262574 0.500219 0.780370
C2    C     C_R   0.934669 0.511821 0.618282 0.021115
C3    C     C_3   0.931471 0.445113 0.756042 -0.028686
C4    C     C_3   0.070763 0.461141 0.759622 -0.452661
C5    C     C_R   0.467743 0.063599 0.619261 0.092647
C6    C     C_R   0.508340 0.129547 0.501935 -0.078481
C7    C     C_R   0.561371 0.065560 0.389248 -0.223973
C8    C     C_R   0.561174 0.936415 0.389411 -0.215675
C9    C     C_R   0.506668 0.870944 0.501277 -0.094994
C10   C     C_R   0.465243 0.936121 0.618343 0.048847
C11   C     C_3   0.344294 0.930805 0.696250 -0.049599
C12   C     C_R   0.262742 0.499118 0.500519 0.798492
C13   C     C_3   0.348239 0.072106 0.697122 -0.479331
C14   C     C_R   0.579181 0.574928 0.072242 0.264219
C15   C     C_R   0.428590 0.419106 0.075326 -0.084832
C16   C     C_R   0.428347 0.419294 0.926569 -0.080119
C17   C     C_R   0.580312 0.573963 0.925202 0.248599
C18   C     C_3   0.589254 0.711602 0.918149 -0.494458
C19   C     C_3   0.586473 0.712767 0.076440 -0.520667
C20   C     C_R   0.500731 0.737520 0.500000 0.792700
C21   C     C_R   0.737426 0.491859 0.498764 0.786475
C22   C     C_R   0.061543 0.522028 0.620013 0.076767
C23   C     C_R   0.129904 0.498513 0.499401 -0.124357
C24   C     C_R   0.068859 0.470645 0.375114 -0.238599
C25   C     C_R   0.940862 0.458708 0.372176 0.146026
C26   C     C_R   0.871482 0.483703 0.495741 -0.152740
Cu1   Cu    Cu3+1 0.499990 0.499980 0.640670 0.930261
Cu2   Cu    Cu3+1 0.500010 0.500020 0.359330 0.929103
H1    H     H_    0.121183 0.451318 0.280649 0.165370
H2    H     H_    0.353376 0.890097 0.802315 0.154252
H3    H     H_    0.275584 0.117596 0.634579 0.187889
H4    H     H_    0.360592 0.111344 0.803430 0.171703
H5    H     H_    0.368830 0.355312 0.131756 0.135318
H6    H     H_    0.368260 0.355825 0.871721 0.131326
H7    H     H_    0.678634 0.743741 0.872752 0.192788
H8    H     H_    0.506566 0.754317 0.872251 0.213134
H9    H     H_    0.673968 0.747011 0.122113 0.183319
H10   H     H_    0.501467 0.755212 0.119788 0.218337
H11   H     H_    0.881956 0.500378 0.835492 0.160590
H12   H     H_    0.101779 0.527275 0.841244 0.174558
H13   H     H_    0.123715 0.373483 0.755513 0.193284
H14   H     H_    0.599994 0.114935 0.300155 0.155161
H15   H     H_    0.600879 0.888328 0.301210 0.153496
N1    N     N_R   0.500790 0.500930 0.147930 -0.182022
N2    N     N_R   0.500790 0.500890 0.852020 -0.183267
O1    O     O_R   0.500000 0.319640 0.618810 -0.583992
O2    O     O_R   0.500010 0.319680 0.381230 -0.592458
O3    O     O_R   0.319650 0.499970 0.618810 -0.580843
O4    O     O_R   0.319660 0.500010 0.381230 -0.586507
O5    O     O_R   0.499990 0.680320 0.618770 -0.583327
O6    O     O_R   0.500000 0.680360 0.381190 -0.580312
O7    O     O_R   0.680340 0.499990 0.618770 -0.585165
O8    O     O_R   0.680350 0.500030 0.381190 -0.571643
C27   C     C_3   0.886117 0.411860 0.237621 -0.377196
C28   C     C_3   0.869844 0.518659 0.135775 -0.799689
H16   H     H_    0.809033 0.487724 0.050681 0.220733
H17   H     H_    0.827224 0.599231 0.188497 0.258811
H18   H     H_    0.960339 0.547865 0.091001 0.233065
H19   H     H_    0.948336 0.342648 0.188910 0.180672
H20   H     H_    0.798561 0.360290 0.255044 0.210496
C29   C     C_3   0.888403 0.308661 0.745752 -0.339461
C30   C     C_3   0.899368 0.241223 0.885187 -0.871792
H21   H     H_    0.994787 0.248041 0.925230 0.253007
H22   H     H_    0.834499 0.280959 0.962880 0.254319
H23   H     H_    0.875375 0.141841 0.871110 0.241211
H24   H     H_    0.790463 0.304743 0.713875 0.215857
H25   H     H_    0.943348 0.258867 0.665152 0.201662
C31   C     C_3   0.237525 0.874432 0.611802 -0.339941
C32   C     C_3   0.115380 0.884065 0.691078 -0.849810
H26   H     H_    0.120743 0.834958 0.792918 0.247346
H27   H     H_    0.091925 0.982600 0.709691 0.254706
H28   H     H_    0.040980 0.840519 0.628704 0.241298
H29   H     H_    0.229721 0.921156 0.508618 0.206871
H30   H     H_    0.255856 0.774848 0.592844 0.200401

loop_
_geom_bond_atom_site_label_1
_geom_bond_atom_site_label_2
_ccdc_geom_bond_type
Cu1   O3    S    
C8    C9    A    
C21   C26   S    
Cu2   O2    S    
C13   H4    S    
C8    H15   S    
C12   O3    A    
C12   O4    A    
C7    C8    A    
C27   H20   S    
Cu1   O7    S    
C12   C23   S    
C17   N2    A    
C15   N1    A    
C20   O6    A    
C5    C6    A    
Cu2   O6    S    
C1    O1    A    
C4    H13   S    
C31   H30   S    
C15   C16   A    
C18   C19   S    
C7    H14   S    
C32   H27   S    
C24   H1    S    
C30   H22   S    
C19   H9    S    
C16   H6    S    
C29   H24   S    
C4    H12   S    
C11   H2    S    
C31   C32   S    
C2    C22   A    
C20   O5    A    
C23   C24   A    
C18   H7    S    
C5    C13   S    
Cu1   O5    S    
Cu1   N2    S    
C3    H11   S    
C14   C17   A    
C32   H26   S    
C27   H19   S    
C3    C29   S    
C1    C6    S    
C24   C25   A    
C1    O2    A    
C31   H29   S    
Cu2   N1    S    
C32   H28   S    
C30   H21   S    
C19   H10   S    
C4    C22   S    
Cu2   O4    S    
C29   H25   S    
C9    C20   S    
C28   H16   S    
C17   C18   S    
C2    C26   A    
C25   C27   S    
Cu1   O1    S    
C28   H17   S    
C3    C4    S    
C11   C31   S    
C14   N1    A    
C9    C10   A    
C27   C28   S    
C30   H23   S    
C14   C19   S    
C13   H3    S    
C16   N2    A    
Cu2   O8    S    
C6    C7    A    
C2    C3    S    
C25   C26   A    
C5    C10   A    
C21   O8    A    
C11   C13   S    
C29   C30   S    
C10   C11   S    
C28   H18   S    
Cu1   Cu2   S    
C22   C23   A    
C18   H8    S    
C15   H5    S    
C21   O7    A    
