data_mof_unit_41709.cif
_audit_creation_date              2012-12-10T20:41:45-0500
_audit_creation_method            fapswitch 2.2
_symmetry_space_group_name_H-M    P1
_symmetry_Int_Tables_number       1
_space_group_crystal_system       triclinic
_cell_length_a                    15.07216
_cell_length_b                    15.119371
_cell_length_c                    9.87159
_cell_angle_alpha                 90.438174
_cell_angle_beta                  89.804926
_cell_angle_gamma                 90.008273
_cell_volume                      2249.47467818

loop_
_atom_site_label
_atom_site_type_symbol
_atom_type_description
_atom_site_fract_x
_atom_site_fract_y
_atom_site_fract_z
_atom_type_partial_charge
C1    C     C_R   0.381699 0.878328 0.499957 0.871670
C2    C     C_R   0.380046 0.119935 0.500432 0.872874
C3    C     C_R   0.877821 0.382185 0.499945 0.869800
C4    C     C_R   0.880142 0.620033 0.500442 0.867660
C5    C     C_3   0.193698 0.129002 0.659640 -0.517016
C6    C     C_3   0.239087 0.832533 0.727587 -0.506727
C7    C     C_3   0.695384 0.630602 0.663477 -0.501623
C8    C     C_3   0.819248 0.253893 0.738526 -0.516721
C9    C     C_R   0.423333 0.985428 0.071567 0.198912
C10   C     C_R   0.924435 0.480926 0.071392 0.207504
C11   C     C_R   0.577122 0.004118 0.071933 -0.264999
C12   C     C_R   0.076809 0.508698 0.072336 -0.280950
C13   C     C_R   0.577713 0.001857 0.926851 0.554261
C14   C     C_R   0.077770 0.509298 0.926005 0.569139
C15   C     C_R   0.423346 0.985445 0.929314 0.113842
C16   C     C_R   0.924474 0.480816 0.929262 0.118997
C17   C     C_3   0.340971 0.039465 0.925116 -0.508632
C18   C     C_3   0.839202 0.530187 0.924906 -0.512973
C19   C     C_3   0.341091 0.039805 0.078862 -0.473459
C20   C     C_3   0.838974 0.530107 0.078679 -0.487198
C21   C     C_R   0.618115 0.121950 0.500182 0.876135
C22   C     C_R   0.620814 0.881166 0.499641 0.876566
C23   C     C_R   0.121655 0.618290 0.500131 0.877675
C24   C     C_R   0.120747 0.381112 0.499613 0.878335
C25   C     C_R   0.258564 0.196529 0.609897 0.129459
C26   C     C_R   0.286259 0.777940 0.622962 0.127157
C27   C     C_R   0.759799 0.697703 0.611051 0.121637
C28   C     C_R   0.770134 0.294348 0.623212 0.126001
C29   C     C_R   0.317934 0.189807 0.502200 -0.095708
C30   C     C_R   0.324891 0.803680 0.501227 -0.103714
C31   C     C_R   0.818212 0.690072 0.502271 -0.089452
C32   C     C_R   0.801739 0.326962 0.500747 -0.098119
C33   C     C_R   0.319806 0.253762 0.400143 -0.227008
C34   C     C_R   0.310289 0.754309 0.382597 -0.232568
C35   C     C_R   0.819292 0.753267 0.399080 -0.231648
C36   C     C_R   0.757024 0.307324 0.379871 -0.231275
C37   C     C_R   0.754949 0.818540 0.398463 -0.229763
C38   C     C_R   0.692460 0.242286 0.380058 -0.227862
C39   C     C_R   0.255461 0.319047 0.399500 -0.223489
C40   C     C_R   0.245521 0.689444 0.382728 -0.235890
C41   C     C_R   0.690857 0.819497 0.501226 -0.089319
C42   C     C_R   0.673588 0.197868 0.501111 -0.106570
C43   C     C_R   0.190574 0.319231 0.501094 -0.094087
C44   C     C_R   0.196290 0.675204 0.501420 -0.101888
C45   C     C_R   0.696540 0.762428 0.610342 0.123284
C46   C     C_R   0.706518 0.230175 0.623448 0.116197
C47   C     C_R   0.195271 0.261245 0.609143 0.167447
C48   C     C_R   0.222162 0.714320 0.622952 0.161014
C49   C     C_3   0.626000 0.702796 0.663888 -0.486552
C50   C     C_3   0.748707 0.182475 0.738703 -0.407557
C51   C     C_3   0.124240 0.201114 0.659807 -0.494735
C52   C     C_3   0.167529 0.762158 0.726852 -0.472549
H1    H     H_    0.368840 0.251542 0.319642 0.160284
H2    H     H_    0.344528 0.769174 0.288811 0.169296
H3    H     H_    0.867614 0.750396 0.317627 0.160902
H4    H     H_    0.775914 0.337106 0.284548 0.167797
H5    H     H_    0.352607 0.106537 0.123549 0.216559
H6    H     H_    0.284598 0.002651 0.123471 0.198279
H7    H     H_    0.846244 0.597268 0.123981 0.217406
H8    H     H_    0.784820 0.489380 0.122679 0.193423
H9    H     H_    0.753427 0.865858 0.316596 0.157069
H10   H     H_    0.662394 0.222933 0.284807 0.172476
H11   H     H_    0.254630 0.367074 0.318581 0.158359
H12   H     H_    0.230541 0.654861 0.289011 0.162093
H13   H     H_    0.604037 0.722729 0.767328 0.199285
H14   H     H_    0.774567 0.116193 0.708951 0.221260
H15   H     H_    0.101168 0.220164 0.763076 0.209746
H16   H     H_    0.162904 0.725466 0.823635 0.214264
H17   H     H_    0.571502 0.690964 0.590208 0.199551
H18   H     H_    0.706541 0.183858 0.831306 0.224401
H19   H     H_    0.070520 0.189838 0.584611 0.192668
H20   H     H_    0.103075 0.785783 0.686183 0.195406
H21   H     H_    0.208626 0.106174 0.763210 0.207165
H22   H     H_    0.276370 0.835802 0.824475 0.205261
H23   H     H_    0.711245 0.608337 0.767092 0.203920
H24   H     H_    0.886106 0.229144 0.708829 0.204100
H25   H     H_    0.180865 0.075445 0.584316 0.197521
H26   H     H_    0.216249 0.897369 0.688160 0.198261
H27   H     H_    0.681777 0.576564 0.589287 0.201727
H28   H     H_    0.817663 0.296554 0.830755 0.207316
H29   H     H_    0.638540 0.011112 0.127285 0.163219
H30   H     H_    0.136881 0.515866 0.130685 0.156436
H31   H     H_    0.352119 0.105992 0.880951 0.221519
H32   H     H_    0.284833 0.001216 0.881802 0.194739
H33   H     H_    0.847382 0.597390 0.881689 0.216482
H34   H     H_    0.785203 0.489425 0.880151 0.199596
N1    N     N_R   0.499140 0.000000 0.142800 -0.125877
N2    N     N_R   0.999140 0.500000 0.142800 -0.121564
N3    N     N_R   0.499160 0.000000 0.857150 -0.145674
N4    N     N_R   0.999160 0.500000 0.857150 -0.148917
O1    O     O_R   0.408400 0.908380 0.614690 -0.617699
O2    O     O_R   0.408400 0.091620 0.614690 -0.620572
O3    O     O_R   0.908400 0.408380 0.614690 -0.618306
O4    O     O_R   0.908400 0.591620 0.614690 -0.624010
O5    O     O_R   0.408370 0.908370 0.385350 -0.620211
O6    O     O_R   0.408370 0.091630 0.385350 -0.622992
O7    O     O_R   0.908370 0.408370 0.385350 -0.619574
O8    O     O_R   0.908370 0.591630 0.385350 -0.622849
O9    O     O_R   0.591610 0.091610 0.614650 -0.572107
O10   O     O_R   0.591610 0.908390 0.614650 -0.588416
O11   O     O_R   0.091610 0.591610 0.614650 -0.566785
O12   O     O_R   0.091610 0.408390 0.614650 -0.578558
O13   O     O_R   0.591590 0.091600 0.385310 -0.630702
O14   O     O_R   0.591590 0.908400 0.385310 -0.624608
O15   O     O_R   0.091590 0.591600 0.385310 -0.633149
O16   O     O_R   0.091590 0.408400 0.385310 -0.623614
Zn1   Zn    Zn3+2 0.500010 0.000000 0.653130 0.979998
Zn2   Zn    Zn3+2 0.000010 0.500000 0.653130 0.986847
Zn3   Zn    Zn3+2 0.499980 0.000000 0.346870 0.935605
Zn4   Zn    Zn3+2 0.999980 0.500000 0.346870 0.937688
O17   O     O_3   0.656075 0.008433 0.854439 -0.592784
C53   C     C_3   0.712256 0.936860 0.885782 -0.336046
H35   H     H_    0.745111 0.947467 0.985111 0.148879
H36   H     H_    0.765221 0.932958 0.807656 0.190716
H37   H     H_    0.676416 0.872373 0.884049 0.160328
O18   O     O_3   0.154647 0.516596 0.847715 -0.562450
C54   C     C_3   0.229497 0.546357 0.920170 -0.378251
H38   H     H_    0.215217 0.608149 0.978176 0.144318
H39   H     H_    0.282766 0.562055 0.846347 0.203382
H40   H     H_    0.255082 0.493384 0.986976 0.164653

loop_
_geom_bond_atom_site_label_1
_geom_bond_atom_site_label_2
_ccdc_geom_bond_type
O15   Zn4   S    
C16   N4    A    
O8    Zn4   S    
C4    O8    A    
O17   C53   S    
C53   H36   S    
C7    C27   S    
C6    C26   S    
C19   H5    S    
O4    Zn2   S    
C33   C39   A    
C49   H13   S    
C2    C29   S    
C36   H4    S    
C32   C36   A    
C35   C37   A    
C38   C42   A    
C54   H39   S    
O3    Zn2   S    
O14   Zn3   S    
C21   O9    A    
C6    H26   S    
C22   C41   S    
C23   O15   A    
C29   C33   A    
C8    H24   S    
C22   O14   A    
O18   C54   S    
C42   C46   A    
C14   N4    A    
C9    C19   S    
C11   N1    A    
O12   Zn2   S    
C20   H8    S    
C25   C47   A    
C40   C44   A    
C18   C20   S    
C52   H16   S    
C26   C48   A    
N2    Zn4   S    
C27   C45   A    
O11   Zn2   S    
C1    O1    A    
C49   H17   S    
C25   C29   A    
C51   H19   S    
C53   H35   S    
C6    H22   S    
C19   H6    S    
C33   H1    S    
C18   H33   S    
C22   O10   A    
C12   N2    A    
C27   C31   A    
O1    Zn1   S    
C28   C32   A    
C7    C49   S    
O5    Zn3   S    
C54   H40   S    
C10   C20   S    
C18   H34   S    
C30   C34   A    
C47   C51   S    
C35   H3    S    
C11   H29   S    
C23   C44   S    
C17   H31   S    
C52   H20   S    
C15   N3    A    
C3    O7    A    
O2    Zn1   S    
C37   H9    S    
C45   C49   S    
C1    O5    A    
C10   N2    A    
N3    Zn1   S    
C12   H30   S    
C3    O3    A    
C51   H15   S    
C20   H7    S    
C2    O2    A    
C50   H14   S    
C4    O4    A    
C34   C40   A    
C12   C14   A    
C34   H2    S    
C8    C28   S    
C5    C25   S    
C24   O16   A    
C5    H25   S    
C8    C50   S    
O9    Zn1   S    
C7    H27   S    
O16   Zn4   S    
C15   C17   S    
O10   Zn1   S    
C13   N3    A    
C5    H21   S    
C7    H23   S    
C26   C30   A    
N1    Zn3   S    
C39   H11   S    
O6    Zn3   S    
C46   C50   S    
C40   H12   S    
O13   Zn3   S    
C28   C46   A    
C17   H32   S    
C36   C38   A    
C9    C15   A    
N4    Zn2   S    
C13   O17   S    
C10   C16   A    
C54   H38   S    
C9    N1    A    
O7    Zn4   S    
C11   C13   A    
C23   O11   A    
C14   O18   S    
C31   C35   A    
C2    O6    A    
C1    C30   S    
C17   C19   S    
C24   O12   A    
C37   C41   A    
C3    C32   S    
C50   H18   S    
C4    C31   S    
C21   C42   S    
C21   O13   A    
C48   C52   S    
C39   C43   A    
C16   C18   S    
C8    H28   S    
C24   C43   S    
C41   C45   A    
C5    C51   S    
C6    C52   S    
C43   C47   A    
C53   H37   S    
C44   C48   A    
C38   H10   S    
