data_mof_unit_59007.cif
_audit_creation_date              2013-03-05T16:30:49-0500
_audit_creation_method            fapswitch 2.2
_symmetry_space_group_name_H-M    P1
_symmetry_Int_Tables_number       1
_space_group_crystal_system       triclinic
_cell_length_a                    11.057115
_cell_length_b                    10.819575
_cell_length_c                    9.54809
_cell_angle_alpha                 89.667275
_cell_angle_beta                  103.300106
_cell_angle_gamma                 90.31433
_cell_volume                      1111.60308209

loop_
_atom_site_label
_atom_site_type_symbol
_atom_site_description
_atom_site_fract_x
_atom_site_fract_y
_atom_site_fract_z
_atom_type_partial_charge
O1    O     O_R   0.500000 0.319640 0.618810 -0.554111
O2    O     O_R   0.500010 0.319680 0.381230 -0.574862
C1    C     C_R   0.502192 0.262409 0.501070 0.795705
O3    O     O_R   0.320680 0.500000 0.575130 -0.595642
O4    O     O_R   0.320690 0.500040 0.337550 -0.582930
C2    C     C_R   0.262617 0.498374 0.440963 0.856754
Cu1   Cu    Cu3+1 0.499990 0.499980 0.640670 0.974832
Cu2   Cu    Cu3+1 0.500010 0.500020 0.359330 0.953629
O5    O     O_R   0.499990 0.680320 0.618770 -0.578443
O6    O     O_R   0.500000 0.680360 0.381190 -0.586186
O7    O     O_R   0.679310 0.499960 0.662450 -0.560108
O8    O     O_R   0.679320 0.500000 0.424870 -0.594969
C3    C     C_R   0.501289 0.737708 0.500146 0.816790
C4    C     C_R   0.737818 0.499448 0.559204 0.782891
H1    H     H_    0.881566 0.498996 0.374631 0.153082
H2    H     H_    0.119773 0.453085 0.618685 0.209310
C5    C     C_2   0.127196 0.498226 0.406579 -0.377164
C6    C     C_2   0.067781 0.477796 0.511420 -0.129500
C7    C     C_2   0.874292 0.496191 0.594625 0.098865
C8    C     C_2   0.933380 0.492173 0.485959 -0.183843
H3    H     H_    0.076417 0.519096 0.297428 0.152729
C9    C     C_R   0.488303 0.062959 0.621919 0.111422
C10   C     C_R   0.513386 0.129412 0.506042 -0.146595
C11   C     C_R   0.554057 0.065657 0.397695 -0.166507
H4    H     H_    0.581944 0.114904 0.311068 0.188845
C12   C     C_R   0.553743 0.936726 0.397377 -0.201956
H5    H     H_    0.583327 0.889319 0.311990 0.160030
C13   C     C_R   0.510716 0.871039 0.503749 -0.084657
C14   C     C_R   0.484760 0.935692 0.619257 0.027682
C15   C     C_3   0.372722 0.929453 0.681936 -0.514130
C16   C     C_3   0.377967 0.069837 0.687951 0.188065
H6    H     H_    0.289363 0.893415 0.604230 0.172058
H7    H     H_    0.392025 0.884019 0.789303 0.212015
H8    H     H_    0.296454 0.117176 0.618803 0.080257
C17   C     C_R   0.592403 0.558592 0.097915 0.205507
N1    N     N_R   0.500780 0.500930 0.148120 -0.191510
C18   C     C_R   0.414779 0.433572 0.052146 -0.021864
H9    H     H_    0.344538 0.381405 0.089548 0.158067
C19   C     C_R   0.414428 0.434029 0.903229 0.004541
H10   H     H_    0.343720 0.382440 0.829046 0.158376
N2    N     N_R   0.500790 0.500890 0.852210 -0.213252
C20   C     C_R   0.593215 0.557622 0.950541 0.210424
C21   C     C_3   0.625317 0.691853 0.952516 0.035037
C22   C     C_3   0.622931 0.692905 0.111056 -0.556462
H11   H     H_    0.552014 0.748776 0.883024 0.174547
H12   H     H_    0.714333 0.710813 0.185879 0.195443
H13   H     H_    0.544384 0.748125 0.131041 0.203617
N3    N     N_R   0.408950 0.115232 0.836182 0.133636
O9    O     O_R   0.519687 0.156713 0.894855 -0.369717
O10   O     O_R   0.324123 0.114676 0.910609 -0.390354
N4    N     N_2   0.748356 0.712397 0.927364 -0.400210
H14   H     H_    0.817407 0.659503 0.990808 0.245816
C23   C     C_3   0.782631 0.840875 0.918776 -0.632973
H15   H     H_    0.874248 0.847466 0.890190 0.217706
H16   H     H_    0.789139 0.886804 0.024052 0.229662
H17   H     H_    0.713110 0.889363 0.834126 0.246663
N5    N     N_2   0.941133 0.491420 0.742040 -0.426070
H18   H     H_    0.892575 0.457295 0.814144 0.267483
C24   C     C_3   0.020222 0.596511 0.795427 -0.666974
H19   H     H_    0.985689 0.644230 0.880773 0.218773
H20   H     H_    0.023996 0.664793 0.708990 0.238164
H21   H     H_    0.115813 0.563504 0.842883 0.222565

loop_
_geom_bond_atom_site_label_1
_geom_bond_atom_site_label_2
_geom_bond_distance
_ccdc_geom_bond_type
O4    Cu2   1.945476 S    
Cu1   O7    1.945478 S    
C21   C22   1.520153 S    
C3    C13   1.445815 S    
C14   C15   1.495692 S    
C9    C14   1.377534 A    
N2    C20   1.364179 A    
C23   H16   1.111142 S    
C1    C10   1.444526 S    
C7    C8    1.348324 D    
C22   H13   1.109479 S    
Cu2   O8    1.936921 S    
C10   C11   1.404993 A    
N3    O10   1.300516 A    
C5    C6    1.334520 D    
N5    H18   1.031265 S    
C16   H8    1.112628 S    
Cu1   Cu2   2.686309 S    
C18   C19   1.420962 A    
H2    C6    1.085591 S    
C23   H15   1.109956 S    
C7    N5    1.432123 S    
C15   H6    1.112128 S    
C17   C22   1.489544 S    
C21   H11   1.108961 S    
C21   N4    1.450620 S    
C12   H5    1.078969 S    
C18   H9    1.081565 S    
N1    C18   1.369066 A    
O3    Cu1   1.936920 S    
O4    C2    1.295756 A    
O3    C2    1.294327 A    
N3    O9    1.302224 A    
O8    C4    1.296841 A    
O2    C1    1.293474 A    
C6    C8    1.458637 S    
C16   N3    1.464537 S    
Cu1   N2    2.017866 S    
C15   C16   1.520597 S    
O7    C4    1.297644 A    
C5    H3    1.087116 S    
C24   H20   1.112245 S    
N5    C24   1.451955 S    
C9    C16   1.498962 S    
N4    H14   1.032171 S    
C2    C5    1.457281 S    
C24   H19   1.107527 S    
C11   H4    1.083303 S    
C19   N2    1.369245 A    
Cu2   O6    1.963543 S    
Cu2   N1    2.018594 S    
C23   H17   1.110413 S    
C19   H10   1.081446 S    
Cu1   O5    1.961168 S    
C17   C20   1.409329 A    
O5    C3    1.291443 A    
C9    C10   1.395623 A    
C13   C14   1.394569 A    
C24   H21   1.109914 S    
C22   H12   1.112017 S    
C15   H7    1.110300 S    
N4    C23   1.445637 S    
O1    Cu1   1.963542 S    
C12   C13   1.404713 A    
C4    C7    1.469142 S    
O2    Cu2   1.961167 S    
C17   N1    1.363234 A    
C20   C21   1.492372 S    
C11   C12   1.394984 A    
H1    C8    1.087635 S    
O1    C1    1.291743 A    
O6    C3    1.294561 A    
