data_mof_unit_16857.cif
_audit_creation_date              2012-12-10T19:16:53-0500
_audit_creation_method            fapswitch 2.2
_symmetry_space_group_name_H-M    P1
_symmetry_Int_Tables_number       1
_space_group_crystal_system       triclinic
_cell_length_a                    15.960679
_cell_length_b                    14.766184
_cell_length_c                    10.829374
_cell_angle_alpha                 90.470176
_cell_angle_beta                  90.196437
_cell_angle_gamma                 90.109122
_cell_volume                      2552.14300153

loop_
_atom_site_label
_atom_site_type_symbol
_atom_type_description
_atom_site_fract_x
_atom_site_fract_y
_atom_site_fract_z
_atom_type_partial_charge
C1    C     C_R   0.340905 0.499775 0.502378 0.826145
C2    C     C_3   0.587625 0.527141 0.923582 -0.421501
C3    C     C_R   0.956701 0.576313 0.540352 -0.187274
C4    C     C_R   0.956118 0.420689 0.466223 -0.194779
C5    C     C_R   0.912823 0.498816 0.502342 0.168927
C6    C     C_R   0.043529 0.420180 0.468106 -0.199377
C7    C     C_R   0.044025 0.575684 0.542771 -0.197029
C8    C     C_R   0.087336 0.497569 0.506972 0.159659
C9    C     C_1   0.823351 0.499438 0.501352 -0.067672
C10   C     C_1   0.176782 0.497693 0.507625 -0.082572
C11   C     C_1   0.251865 0.498721 0.506069 -0.175949
C12   C     C_1   0.748255 0.499957 0.501094 -0.176869
C13   C     C_R   0.575591 0.952079 0.531145 -0.040252
C14   C     C_R   0.575549 0.048868 0.529027 -0.044729
C15   C     C_R   0.500477 0.499516 0.258871 0.722690
C16   C     C_R   0.500208 0.903037 0.510331 -0.073729
C17   C     C_R   0.499917 0.097367 0.512647 -0.075336
C18   C     C_R   0.424129 0.951793 0.501170 -0.042025
C19   C     C_R   0.423494 0.048464 0.507732 -0.035624
C20   C     C_1   0.500142 0.802558 0.504004 0.152925
C21   C     C_1   0.500189 0.197595 0.505271 0.161645
C22   C     C_R   0.659133 0.500032 0.500965 0.818365
C23   C     C_R   0.499391 0.500193 0.740095 0.782207
C24   C     C_3   0.429480 0.563065 0.067958 -0.129268
C25   C     C_3   0.487881 0.398297 0.064969 -0.146279
C26   C     C_3   0.433090 0.566450 0.925098 -0.404335
C27   C     C_3   0.479427 0.404203 0.923548 -0.407844
C28   C     C_3   0.591194 0.536833 0.068876 0.018626
C29   C     C_3   0.501318 0.498115 0.120294 -0.001809
C30   C     C_3   0.499833 0.500264 0.876459 0.084947
Cu1   Cu    Cu3+1 0.500000 0.589220 0.500040 0.958669
Cu2   Cu    Cu3+1 0.500000 0.410780 0.500040 0.963076
H1    H     H_    0.445898 0.632565 0.099088 0.152295
H2    H     H_    0.547212 0.361775 0.080009 0.140108
H3    H     H_    0.372235 0.550843 0.879914 0.150404
H4    H     H_    0.415412 0.384997 0.891718 0.167581
H5    H     H_    0.446167 0.636353 0.894222 0.160655
H6    H     H_    0.522881 0.353703 0.881429 0.167087
H7    H     H_    0.612146 0.587277 0.874937 0.145579
H8    H     H_    0.630359 0.472359 0.890673 0.158373
H9    H     H_    0.077709 0.635889 0.572288 0.128787
H10   H     H_    0.076869 0.359842 0.439154 0.126985
H11   H     H_    0.923451 0.636927 0.568148 0.126303
H12   H     H_    0.922382 0.360503 0.436717 0.122537
N1    N     N_1   0.499980 0.276710 0.500040 -0.153545
N2    N     N_1   0.499980 0.723290 0.500040 -0.156105
O1    O     O_R   0.380310 0.575320 0.500060 -0.568423
O2    O     O_R   0.380310 0.424680 0.500060 -0.571902
O3    O     O_R   0.499990 0.575340 0.317720 -0.578828
O4    O     O_R   0.499990 0.424660 0.317720 -0.594557
O5    O     O_R   0.619690 0.575360 0.500000 -0.580241
O6    O     O_R   0.619690 0.424640 0.500000 -0.566402
O7    O     O_R   0.500010 0.575340 0.682340 -0.585494
O8    O     O_R   0.500010 0.424660 0.682340 -0.586713
C31   C     C_R   0.344398 0.901112 0.489671 0.122339
C32   C     C_R   0.317611 0.869562 0.373501 -0.163188
C33   C     C_R   0.239872 0.826821 0.360991 -0.154657
C34   C     C_R   0.189647 0.812997 0.464749 -0.116791
C35   C     C_R   0.216883 0.842626 0.581136 -0.124766
C36   C     C_R   0.293944 0.887044 0.593694 -0.125618
H13   H     H_    0.355937 0.880239 0.292505 0.120905
H14   H     H_    0.218482 0.804719 0.270700 0.128293
H15   H     H_    0.129582 0.779537 0.454863 0.112549
H16   H     H_    0.177942 0.831912 0.661377 0.119149
H17   H     H_    0.314019 0.911118 0.683833 0.114625
C37   C     C_R   0.342987 0.098435 0.521774 0.118359
C38   C     C_R   0.279856 0.092641 0.431484 -0.106174
C39   C     C_R   0.203825 0.138055 0.448180 -0.156293
C40   C     C_R   0.190666 0.190557 0.554201 -0.117301
C41   C     C_R   0.253207 0.197114 0.644346 -0.119885
C42   C     C_R   0.328805 0.150872 0.628755 -0.145865
H18   H     H_    0.289588 0.053257 0.348158 0.122208
H19   H     H_    0.155250 0.133013 0.378488 0.116476
H20   H     H_    0.131956 0.225934 0.566685 0.118886
H21   H     H_    0.242944 0.237571 0.726694 0.123796
H22   H     H_    0.376237 0.155597 0.700341 0.115622
C43   C     C_R   0.339256 0.550495 0.113574 0.083801
C44   C     C_R   0.281520 0.491433 0.054258 -0.124928
C45   C     C_R   0.198212 0.486522 0.092816 -0.155542
C46   C     C_R   0.170295 0.541299 0.189453 -0.118465
C47   C     C_R   0.225683 0.601047 0.247716 -0.139156
C48   C     C_R   0.309346 0.605879 0.210451 -0.171098
H23   H     H_    0.300527 0.447040 0.979990 0.126449
H24   H     H_    0.155297 0.439949 0.047665 0.127252
H25   H     H_    0.105770 0.537349 0.219438 0.135431
H26   H     H_    0.203745 0.642883 0.323157 0.144039
H27   H     H_    0.350580 0.653520 0.257012 0.158494
C49   C     C_R   0.421923 0.330408 0.113119 0.118881
C50   C     C_R   0.360088 0.349148 0.202814 -0.041282
C51   C     C_R   0.297142 0.286259 0.228657 -0.135022
C52   C     C_R   0.295598 0.202717 0.167899 -0.132236
C53   C     C_R   0.359343 0.179921 0.086096 -0.144247
C54   C     C_R   0.422300 0.242539 0.060029 -0.180181
H28   H     H_    0.356892 0.412879 0.250926 0.142160
H29   H     H_    0.248544 0.303225 0.294364 0.139446
H30   H     H_    0.245241 0.155347 0.184474 0.117248
H31   H     H_    0.359271 0.114203 0.041071 0.122822
H32   H     H_    0.470190 0.223285 0.994321 0.118547
C55   C     C_R   0.605548 0.637965 0.110421 0.090386
C56   C     C_R   0.584565 0.714049 0.037096 -0.189094
C57   C     C_R   0.597478 0.802514 0.080199 -0.148255
C58   C     C_R   0.632783 0.818000 0.196172 -0.127677
C59   C     C_R   0.656720 0.744947 0.268431 -0.124022
C60   C     C_R   0.644117 0.656618 0.225821 -0.062679
H33   H     H_    0.557513 0.707704 0.946619 0.126714
H34   H     H_    0.579952 0.859329 0.023127 0.123365
H35   H     H_    0.642207 0.886576 0.229394 0.120691
H36   H     H_    0.685193 0.756173 0.357894 0.150998
H37   H     H_    0.664855 0.602152 0.283914 0.137577
C61   C     C_R   0.673890 0.486499 0.106252 0.055121
C62   C     C_R   0.750123 0.518348 0.054708 -0.136656
C63   C     C_R   0.827282 0.480233 0.085767 -0.130188
C64   C     C_R   0.831002 0.409409 0.169446 -0.109584
C65   C     C_R   0.757559 0.376940 0.222142 -0.128677
C66   C     C_R   0.680143 0.414948 0.191819 -0.195941
H38   H     H_    0.749836 0.574112 0.990361 0.124406
H39   H     H_    0.884305 0.506030 0.045090 0.122508
H40   H     H_    0.890777 0.379876 0.193756 0.115721
H41   H     H_    0.760386 0.322304 0.287656 0.126133
H42   H     H_    0.627311 0.386321 0.237013 0.160604
C67   C     C_R   0.653367 0.099982 0.557288 0.126803
C68   C     C_R   0.701384 0.137390 0.462010 -0.156431
C69   C     C_R   0.775793 0.183596 0.489799 -0.132277
C70   C     C_R   0.801474 0.194522 0.612538 -0.099985
C71   C     C_R   0.753300 0.158346 0.707803 -0.133108
C72   C     C_R   0.679595 0.110861 0.680387 -0.131205
H43   H     H_    0.681908 0.129413 0.366626 0.112759
H44   H     H_    0.814029 0.210356 0.416354 0.106527
H45   H     H_    0.858864 0.230700 0.633738 0.119792
H46   H     H_    0.773287 0.166704 0.802829 0.123234
H47   H     H_    0.642979 0.082510 0.754774 0.114005
C73   C     C_R   0.653561 0.902245 0.563252 0.115338
C74   C     C_R   0.656023 0.848183 0.669543 -0.140770
C75   C     C_R   0.729239 0.802086 0.701526 -0.126446
C76   C     C_R   0.800752 0.810138 0.628383 -0.113700
C77   C     C_R   0.799045 0.863957 0.522857 -0.143552
C78   C     C_R   0.725796 0.909876 0.490237 -0.150093
H48   H     H_    0.601358 0.842169 0.727956 0.113217
H49   H     H_    0.730621 0.760501 0.783382 0.123669
H50   H     H_    0.857561 0.774958 0.653764 0.112428
H51   H     H_    0.854446 0.869950 0.466142 0.126621
H52   H     H_    0.725211 0.950582 0.407621 0.118529

loop_
_geom_bond_atom_site_label_1
_geom_bond_atom_site_label_2
_ccdc_geom_bond_type
C31   C32   A    
C57   C58   A    
Cu2   N1    S    
C62   C63   A    
C1    C11   S    
C78   H52   S    
C47   C48   A    
C51   C52   A    
C76   C77   A    
C43   C44   A    
C3    H11   S    
C56   H33   S    
C77   H51   S    
C43   C48   A    
C53   C54   A    
C28   C29   S    
C24   C26   S    
C18   C19   A    
C3    C7    A    
C60   H37   S    
C27   H6    S    
C48   H27   S    
C12   C22   S    
C68   H43   S    
C32   C33   A    
C19   C37   S    
C38   H18   S    
C15   O4    A    
C50   H28   S    
C61   C62   A    
Cu2   O6    S    
C59   C60   A    
C52   H30   S    
C24   C29   S    
C44   H23   S    
Cu1   Cu2   S    
C73   C74   A    
Cu1   N2    S    
C15   C29   S    
C41   C42   A    
C47   H26   S    
C25   H2    S    
C15   O3    A    
C55   C60   A    
C74   H48   S    
C35   C36   A    
C14   C67   S    
Cu1   O1    S    
C31   C36   A    
C27   C30   S    
Cu2   O2    S    
C14   C17   A    
C58   C59   A    
Cu1   O3    S    
C71   H46   S    
Cu2   O8    S    
C63   C64   A    
C53   H31   S    
C23   O7    A    
C21   N1    T    
C25   C29   S    
C76   H50   S    
C70   C71   A    
C38   C39   A    
C23   C30   S    
C69   C70   A    
C4    C6    A    
C75   H49   S    
C44   C45   A    
C1    O1    A    
C6    C8    A    
C4    H12   S    
C33   H14   S    
C39   H19   S    
C25   C49   S    
C17   C21   S    
C45   C46   A    
C5    C9    S    
C46   H25   S    
C74   C75   A    
C2    H7    S    
C37   C42   A    
C16   C20   S    
C35   H16   S    
C58   H35   S    
C26   H5    S    
Cu1   O7    S    
Cu2   O4    S    
C67   C68   A    
C62   H38   S    
C18   C31   S    
C28   C55   S    
C16   C18   A    
C36   H17   S    
C26   C30   S    
C71   C72   A    
C50   C51   A    
C42   H22   S    
C52   C53   A    
C23   O8    A    
C22   O6    A    
C64   C65   A    
C57   H34   S    
C49   C54   A    
C32   H13   S    
C39   C40   A    
C34   H15   S    
Cu1   O5    S    
C46   C47   A    
C3    C5    A    
C51   H29   S    
C1    O2    A    
C65   C66   A    
C75   C76   A    
C27   H4    S    
C25   C27   S    
C24   H1    S    
C55   C56   A    
C63   H39   S    
C2    C30   S    
C28   C61   S    
C34   C35   A    
C67   C72   A    
C33   C34   A    
C45   H24   S    
C65   H41   S    
C72   H47   S    
C61   C66   A    
C56   C57   A    
C17   C19   A    
C13   C73   S    
C70   H45   S    
C37   C38   A    
C7    H9    S    
C40   C41   A    
C9    C12   T    
C7    C8    A    
C10   C11   T    
C26   H3    S    
C64   H40   S    
C2    H8    S    
C24   C43   S    
C4    C5    A    
C49   C50   A    
C8    C10   S    
C66   H42   S    
C6    H10   S    
C13   C16   A    
C69   H44   S    
C41   H21   S    
C40   H20   S    
C77   C78   A    
C59   H36   S    
C2    C28   S    
C73   C78   A    
C68   C69   A    
C13   C14   A    
C54   H32   S    
C20   N2    T    
C22   O5    A    
