data_mof_unit_40256.cif
_audit_creation_date              2013-03-05T15:50:08-0500
_audit_creation_method            fapswitch 2.2
_symmetry_space_group_name_H-M    P1
_symmetry_Int_Tables_number       1
_space_group_crystal_system       triclinic
_cell_length_a                    12.035129
_cell_length_b                    12.855689
_cell_length_c                    15.399083
_cell_angle_alpha                 88.22932
_cell_angle_beta                  114.771388
_cell_angle_gamma                 92.786834
_cell_volume                      2160.61469586

loop_
_atom_site_label
_atom_site_type_symbol
_atom_site_description
_atom_site_fract_x
_atom_site_fract_y
_atom_site_fract_z
_atom_type_partial_charge
O1    O     O_R   0.580150 0.341050 0.504560 -0.596832
O2    O     O_R   0.419850 0.658950 0.495440 -0.597287
O3    O     O_R   0.388090 0.353760 0.493600 -0.621974
O4    O     O_R   0.611910 0.646240 0.506400 -0.626475
C1    C     C_R   0.476677 0.300480 0.496096 0.912601
C2    C     C_R   0.522674 0.699992 0.502438 0.904943
O5    O     O_R   0.650890 0.490020 0.640860 -0.608064
O6    O     O_R   0.349110 0.509980 0.359140 -0.642696
O7    O     O_R   0.458830 0.502730 0.629890 -0.623635
O8    O     O_R   0.541170 0.497270 0.370110 -0.607464
C3    C     C_R   0.575580 0.494992 0.680502 0.874495
C4    C     C_R   0.424689 0.506176 0.319443 0.874138
Zn1   Zn    Zn3+2 0.628240 0.491510 0.507320 0.948520
Zn2   Zn    Zn3+2 0.371760 0.508490 0.492680 0.925342
C5    C     C_R   0.624516 0.498573 0.784984 -0.139805
C6    C     C_R   0.383473 0.530262 0.217251 -0.112032
C7    C     C_R   0.794063 0.484489 0.942123 0.240030
C8    C     C_R   0.259140 0.634369 0.078780 0.249239
C9    C     C_R   0.746727 0.478268 0.842324 -0.209432
C10   C     C_R   0.278840 0.586595 0.167014 -0.275612
C11   C     C_R   0.550360 0.530877 0.826897 -0.202031
C12   C     C_R   0.464392 0.515614 0.176470 -0.185557
C13   C     C_R   0.596054 0.544940 0.925677 0.049455
C14   C     C_R   0.452798 0.567709 0.092325 0.027348
C15   C     C_R   0.715411 0.511044 0.985915 -0.044759
C16   C     C_R   0.344445 0.621926 0.037862 0.000991
C17   C     C_R   0.519309 0.583591 0.965005 -0.046950
C18   C     C_R   0.546788 0.562276 0.060535 -0.051253
C19   C     C_R   0.669326 0.541545 0.123114 0.191603
C20   C     C_R   0.419801 0.648011 0.913227 0.166064
C21   C     C_R   0.750942 0.506923 0.086556 0.117863
C22   C     C_R   0.329783 0.664337 0.947389 0.130476
C23   C     C_R   0.534031 0.810892 0.499297 -0.136066
C24   C     C_R   0.466377 0.190531 0.502045 -0.138904
C25   C     C_R   0.466184 0.044460 0.602697 0.252710
C26   C     C_R   0.550353 0.959695 0.406689 0.243032
C27   C     C_R   0.454687 0.149738 0.581975 -0.302531
C28   C     C_R   0.567637 0.855236 0.430244 -0.325481
C29   C     C_R   0.489002 0.129123 0.438537 0.146853
C30   C     C_R   0.495047 0.870644 0.554886 0.148801
C31   C     C_R   0.508632 0.022895 0.460140 0.002089
C32   C     C_R   0.490055 0.979004 0.540229 -0.028929
N1    N     N_R   0.799120 0.480200 0.517090 -0.113925
N2    N     N_R   0.200880 0.519800 0.482910 -0.134671
C33   C     C_R   0.015599 0.616260 0.433938 -0.340845
C34   C     C_R   0.988291 0.388045 0.574193 -0.359955
C35   C     C_R   0.132490 0.603508 0.434954 0.350221
C36   C     C_R   0.868731 0.399177 0.568153 0.368201
C37   C     C_R   0.155055 0.449066 0.529222 -0.096702
C38   C     C_R   0.847465 0.552853 0.474793 -0.102360
C39   C     C_R   0.036952 0.459128 0.527323 0.060201
C40   C     C_R   0.966382 0.543395 0.478430 0.032566
N3    N     N_2   0.850248 0.445475 0.147667 -0.313553
H1    H     H_    0.862828 0.376916 0.120789 0.241865
C41   C     C_3   0.958673 0.495593 0.219640 -0.822958
H2    H     H_    0.041134 0.476692 0.209048 0.237859
H3    H     H_    0.971524 0.464594 0.291032 0.256031
H4    H     H_    0.951601 0.581438 0.217411 0.250463
N4    N     N_2   0.221978 0.715707 0.885758 -0.301847
H5    H     H_    0.138707 0.679122 0.873487 0.240026
C42   C     C_3   0.226728 0.828601 0.884987 -0.753702
H6    H     H_    0.150288 0.857636 0.898663 0.247239
H7    H     H_    0.215985 0.857768 0.813447 0.225507
H8    H     H_    0.314503 0.860785 0.940093 0.238270
N5    N     N_2   0.822822 0.329255 0.619573 -0.258289
H9    H     H_    0.867089 0.339156 0.692551 0.196215
C43   C     C_3   0.811933 0.220934 0.592868 -0.777603
H10   H     H_    0.758602 0.176031 0.626318 0.238505
H11   H     H_    0.903741 0.187428 0.618103 0.213341
H12   H     H_    0.763036 0.212908 0.513994 0.247950
N6    N     N_2   0.180304 0.676474 0.386085 -0.267203
H13   H     H_    0.216716 0.643055 0.344865 0.259790
C44   C     C_3   0.117635 0.771057 0.343881 -0.886998
H14   H     H_    0.177837 0.822861 0.321626 0.252857
H15   H     H_    0.096800 0.813793 0.396446 0.249399
H16   H     H_    0.032044 0.752641 0.279759 0.232807
H17   H     H_    0.961197 0.681312 0.396947 0.171228
H18   H     H_    0.042755 0.324466 0.615525 0.149491
H19   H     H_    0.539756 0.464895 0.213126 0.171623
H20   H     H_    0.454937 0.543305 0.781676 0.180994
H21   H     H_    0.216178 0.600065 0.198955 0.150081
H22   H     H_    0.807032 0.460987 0.809080 0.161961
N7    N     N_2   0.923575 0.482440 0.993841 -0.319315
H23   H     H_    0.963695 0.527029 0.054018 0.240009
C45   C     C_3   0.982434 0.387378 0.992267 -0.818177
H24   H     H_    0.082267 0.396430 0.037747 0.244400
H25   H     H_    0.970013 0.370402 0.918485 0.239081
H26   H     H_    0.944217 0.320726 0.019943 0.237276
N8    N     N_2   0.160939 0.703200 0.038260 -0.301658
H27   H     H_    0.077764 0.668876 0.029277 0.222877
C46   C     C_3   0.183219 0.801764 0.086965 -0.812739
H28   H     H_    0.106504 0.853614 0.047245 0.235395
H29   H     H_    0.269473 0.840507 0.090377 0.256498
H30   H     H_    0.189635 0.789968 0.160677 0.236904
N9    N     N_2   0.713974 0.574056 0.219937 -0.297799
H31   H     H_    0.784594 0.533548 0.269798 0.256954
C47   C     C_3   0.728683 0.686301 0.230348 -0.800435
H32   H     H_    0.749277 0.708032 0.304514 0.219691
H33   H     H_    0.643000 0.724830 0.183355 0.252921
H34   H     H_    0.804302 0.716376 0.211975 0.229010
N10   N     N_2   0.422173 0.709654 0.835524 -0.302880
H35   H     H_    0.338355 0.731041 0.784691 0.248485
C48   C     C_3   0.514007 0.794063 0.865439 -0.792428
H36   H     H_    0.514762 0.836198 0.802347 0.261149
H37   H     H_    0.606814 0.763831 0.906410 0.250460
H38   H     H_    0.494187 0.849679 0.910360 0.233857
N11   N     N_2   0.456798 0.820797 0.622596 -0.297846
H39   H     H_    0.503270 0.756010 0.657886 0.219984
C49   C     C_3   0.325891 0.813482 0.595790 -0.654295
H40   H     H_    0.292160 0.731111 0.583217 0.244711
H41   H     H_    0.274831 0.860926 0.530912 0.240312
H42   H     H_    0.306322 0.842558 0.654621 0.228516
N12   N     N_2   0.491981 0.174466 0.353685 -0.276992
H43   H     H_    0.557489 0.233487 0.365226 0.235969
C50   C     C_3   0.373607 0.199495 0.279620 -0.780181
H44   H     H_    0.383719 0.222040 0.213045 0.235913
H45   H     H_    0.335384 0.265628 0.301482 0.223881
H46   H     H_    0.308825 0.130846 0.264405 0.245763
H47   H     H_    0.598523 0.806620 0.388975 0.166631
H48   H     H_    0.444489 0.202134 0.631728 0.166662
N13   N     N_2   0.472221 0.007612 0.692858 -0.280168
H49   H     H_    0.560420 0.003058 0.744927 0.219388
C51   C     C_3   0.386267 0.046833 0.726266 -0.829320
H50   H     H_    0.380535 0.993696 0.782512 0.241778
H51   H     H_    0.293411 0.050289 0.666710 0.251225
H52   H     H_    0.417553 0.125129 0.757969 0.231753
N14   N     N_2   0.580053 0.000496 0.331717 -0.276033
H53   H     H_    0.669921 0.989712 0.344259 0.215480
C52   C     C_3   0.495795 0.967575 0.236838 -0.770314
H54   H     H_    0.517572 0.012252 0.182710 0.235838
H55   H     H_    0.400026 0.982401 0.224152 0.253505
H56   H     H_    0.503845 0.883257 0.227655 0.222554
H57   H     H_    0.793140 0.618122 0.438586 0.145820
H58   H     H_    0.210670 0.385008 0.568114 0.143019

loop_
_geom_bond_atom_site_label_1
_geom_bond_atom_site_label_2
_geom_bond_distance
_ccdc_geom_bond_type
N2    C37   1.371279 A    
C15   C21   1.424518 A    
C37   H58   1.082621 S    
C16   C22   1.423318 A    
N10   H35   1.028538 S    
C24   C27   1.381244 A    
C44   H15   1.109467 S    
C31   C32   1.437069 A    
N9    H31   1.026914 S    
C8    C16   1.428606 A    
C41   H2    1.109995 S    
C37   C39   1.421527 A    
C47   H32   1.104363 S    
C51   H50   1.109292 S    
C29   C31   1.403173 A    
C45   H24   1.110828 S    
O5    C3    1.292259 A    
O1    C1    1.282509 A    
C18   C19   1.416328 A    
C25   C27   1.381031 A    
C14   C16   1.423189 A    
C12   H19   1.082676 S    
C52   H54   1.110035 S    
C49   H41   1.109997 S    
C51   H51   1.111480 S    
C50   H44   1.110215 S    
C11   H20   1.081724 S    
C52   H55   1.110552 S    
C44   H14   1.110401 S    
C33   C35   1.417765 A    
O4    Zn1   2.007370 S    
C42   H7    1.109403 S    
C25   C32   1.421661 A    
C3    C5    1.464757 S    
C4    C6    1.465960 S    
N5    C43   1.448438 S    
C38   C40   1.419703 A    
N11   H39   1.031725 S    
C13   C17   1.413776 A    
C36   N5    1.419369 S    
N8    C46   1.448160 S    
C9    H22   1.082697 S    
N1    C36   1.373799 A    
N2    C35   1.381492 A    
C6    C10   1.395136 A    
C52   H56   1.111549 S    
C45   H25   1.109366 S    
N4    H5    1.030653 S    
N10   C48   1.448748 S    
C10   H21   1.081417 S    
C17   C20   1.418191 A    
N11   C49   1.450648 S    
C26   C31   1.420228 A    
O2    C2    1.284400 A    
C47   H33   1.111114 S    
N3    C41   1.448000 S    
C11   C13   1.398296 A    
C34   C36   1.416570 A    
N4    C42   1.449547 S    
C23   C30   1.398281 A    
C24   C29   1.394827 A    
C25   N13   1.426696 S    
O4    C2    1.284238 A    
C34   H18   1.083129 S    
C49   H42   1.106434 S    
C46   H28   1.110081 S    
N6    C44   1.448894 S    
C51   H52   1.110281 S    
C33   C40   1.394336 A    
C29   N12   1.427773 S    
N3    H1    1.029112 S    
C34   C39   1.400132 A    
C38   H57   1.077650 S    
C43   H10   1.110488 S    
C6    C12   1.384165 A    
C7    N7    1.423703 S    
C42   H8    1.111398 S    
C5    C9    1.394958 A    
O7    Zn2   1.926241 S    
N14   C52   1.448100 S    
C46   H29   1.110884 S    
N7    H23   1.025374 S    
C5    C11   1.385959 A    
O6    C4    1.294443 A    
C50   H46   1.111045 S    
C1    C24   1.416383 S    
C48   H37   1.110501 S    
C21   N3    1.428775 S    
O7    C3    1.297203 A    
C35   N6    1.429733 S    
N13   H49   1.031029 S    
O3    Zn2   2.007368 S    
O8    C4    1.296374 A    
C30   N11   1.428976 S    
C28   H47   1.085240 S    
N7    C45   1.447847 S    
C41   H3    1.108059 S    
C44   H16   1.109297 S    
C12   C14   1.396736 A    
C26   N14   1.423367 S    
O1    Zn1   1.988410 S    
N14   H53   1.031592 S    
Zn1   N1    2.010389 S    
C47   H34   1.110218 S    
Zn2   N2    2.010391 S    
N12   H43   1.030344 S    
C45   H26   1.109401 S    
C50   H45   1.110519 S    
O6    Zn2   1.957486 S    
N12   C50   1.447145 S    
C8    N8    1.420823 S    
C14   C18   1.413493 A    
O3    C1    1.281550 A    
O8    Zn1   1.926243 S    
N9    C47   1.450836 S    
N1    C38   1.364652 A    
C23   C28   1.385567 A    
C2    C23   1.426878 S    
C43   H12   1.111319 S    
C7    C15   1.431041 A    
C26   C28   1.382766 A    
C39   C40   1.401769 A    
C19   C21   1.414656 A    
C49   H40   1.108440 S    
C46   H30   1.111057 S    
C20   C22   1.414583 A    
C27   H48   1.083751 S    
C20   N10   1.424213 S    
C30   C32   1.404433 A    
C7    C9    1.400796 A    
C48   H38   1.109972 S    
C8    C10   1.404343 A    
C13   C15   1.425860 A    
C42   H6    1.109331 S    
O2    Zn2   1.988410 S    
N13   C51   1.449737 S    
C19   N9    1.425402 S    
O5    Zn1   1.957486 S    
N6    H13   1.023612 S    
N5    H9    1.031245 S    
C41   H4    1.109366 S    
C48   H36   1.100821 S    
C33   H17   1.078797 S    
C22   N4    1.425803 S    
C43   H11   1.110638 S    
N8    H27   1.029892 S    
C17   C18   1.387343 A    
