data_mof_unit_27760.cif
_audit_creation_date              2012-12-11T14:42:20-0500
_audit_creation_method            fapswitch 2.2
_symmetry_space_group_name_H-M    P1
_symmetry_Int_Tables_number       1
_space_group_crystal_system       triclinic
_cell_length_a                    18.992845
_cell_length_b                    10.912707
_cell_length_c                    18.908122
_cell_angle_alpha                 89.690069
_cell_angle_beta                  90.26249
_cell_angle_gamma                 89.804198
_cell_volume                      3918.83907778

loop_
_atom_site_label
_atom_site_type_symbol
_atom_type_description
_atom_site_fract_x
_atom_site_fract_y
_atom_site_fract_z
_atom_type_partial_charge
C1    C     C_R   0.725561 0.959174 0.855183 0.534092
C2    C     C_R   0.239251 0.431489 0.929229 -0.005550
C3    C     C_2   0.616269 0.885214 0.414593 0.305107
C4    C     C_R   0.253981 0.921863 0.074639 0.009888
C5    C     C_R   0.739260 0.931465 0.929222 -0.005567
C6    C     C_R   0.795181 0.334629 0.041078 -0.134811
C7    C     C_R   0.183627 0.386272 0.969609 -0.135752
C8    C     C_R   0.295168 0.834610 0.041083 -0.133251
C9    C     C_R   0.683643 0.886213 0.969598 -0.134759
C10   C     C_R   0.791662 0.322983 0.968973 -0.121522
C11   C     C_R   0.188757 0.381841 0.041917 -0.135127
C12   C     C_R   0.291648 0.822959 0.968977 -0.121539
C13   C     C_R   0.273053 0.957149 0.146059 0.544657
C14   C     C_R   0.688770 0.881783 0.041904 -0.136720
C15   C     C_R   0.745502 0.396352 0.928100 0.009029
C16   C     C_R   0.251163 0.416442 0.076254 -0.015242
C17   C     C_R   0.245500 0.896345 0.928101 0.009002
C18   C     C_R   0.751168 0.916416 0.076246 -0.016438
C19   C     C_R   0.537944 0.273551 0.525232 0.426427
C20   C     C_R   0.533505 0.265326 0.453182 0.405207
C21   C     C_R   0.037603 0.773642 0.525375 0.423042
C22   C     C_R   0.033093 0.765421 0.453357 0.412288
C23   C     C_R   0.502067 0.162698 0.423296 -0.055900
C24   C     C_R   0.225558 0.459182 0.855187 0.534476
C25   C     C_R   0.517798 0.173544 0.568089 -0.031471
C26   C     C_R   0.001585 0.662847 0.423510 -0.009464
C27   C     C_R   0.017434 0.673670 0.568246 -0.024023
C28   C     C_R   0.483732 0.061281 0.465340 -0.195161
C29   C     C_R   0.493564 0.065677 0.537679 -0.220138
C30   C     C_R   0.983135 0.561478 0.465570 -0.220928
C31   C     C_R   0.993031 0.565905 0.537889 -0.244327
C32   C     C_R   0.813181 0.360920 0.537026 -0.024430
C33   C     C_R   0.182097 0.413630 0.454656 0.000723
C34   C     C_R   0.312983 0.860162 0.536859 -0.031964
C35   C     C_R   0.773054 0.457149 0.146059 0.540636
C36   C     C_R   0.681909 0.905006 0.455782 -0.006381
C37   C     C_R   0.810142 0.360874 0.464023 -0.177561
C38   C     C_R   0.176998 0.420816 0.527622 -0.207020
C39   C     C_R   0.309886 0.860169 0.463864 -0.172826
C40   C     C_R   0.677414 0.913459 0.528710 -0.153194
C41   C     C_R   0.565936 0.182102 0.856091 0.578733
C42   C     C_R   0.470129 0.178585 0.149275 0.550083
C43   C     C_R   0.065932 0.682100 0.856091 0.578936
C44   C     C_R   0.970135 0.678585 0.149279 0.560764
C45   C     C_R   0.758212 0.427118 0.427592 -0.005910
C46   C     C_R   0.705883 0.493596 0.035410 -0.038757
C47   C     C_R   0.237024 0.437636 0.570253 0.012036
C48   C     C_R   0.258088 0.926835 0.427499 0.003873
C49   C     C_R   0.737241 0.936612 0.570493 -0.003447
C50   C     C_R   0.705251 0.487965 0.465783 0.430874
C51   C     C_R   0.303023 0.450925 0.538836 0.377644
C52   C     C_R   0.205229 0.987881 0.465737 0.423263
C53   C     C_R   0.802401 0.955621 0.538225 0.378169
C54   C     C_R   0.703607 0.478041 0.539219 -0.057575
C55   C     C_R   0.309213 0.438760 0.465943 -0.107192
C56   C     C_R   0.203605 0.977881 0.539167 -0.060425
C57   C     C_R   0.300095 0.474937 0.962720 -0.085021
C58   C     C_R   0.808077 0.943937 0.465257 -0.097125
C59   C     C_R   0.755362 0.410313 0.575311 -0.089326
C60   C     C_R   0.249454 0.415184 0.423623 -0.023359
C61   C     C_R   0.255303 0.909954 0.575213 -0.086485
C62   C     C_R   0.748702 0.914188 0.423786 -0.077206
C63   C     C_R   0.737611 0.361490 0.853948 0.517236
C64   C     C_R   0.261657 0.365773 0.147442 0.532147
C65   C     C_R   0.237611 0.861489 0.853949 0.517453
C66   C     C_R   0.761659 0.865766 0.147439 0.520669
C67   C     C_R   0.725864 0.959944 0.645407 0.577744
C68   C     C_R   0.205889 0.993609 0.035409 -0.039045
C69   C     C_R   0.272870 0.957141 0.353731 0.571585
C70   C     C_R   0.225764 0.460188 0.645298 0.584564
C71   C     C_R   0.772903 0.457217 0.353769 0.565924
C72   C     C_R   0.533678 0.177569 0.642394 0.575291
C73   C     C_R   0.471287 0.175079 0.354298 0.564720
C74   C     C_R   0.033553 0.677578 0.642474 0.577411
C75   C     C_R   0.971161 0.675099 0.354377 0.600646
C76   C     C_R   0.740573 0.364186 0.646739 0.534115
C77   C     C_R   0.260435 0.363743 0.353260 0.577252
C78   C     C_R   0.240558 0.864103 0.646705 0.535218
C79   C     C_R   0.800098 0.974934 0.962716 -0.085051
C80   C     C_R   0.760274 0.863744 0.353245 0.522604
C81   C     C_2   0.562993 0.176193 0.933375 0.427055
C82   C     C_2   0.498180 0.178314 0.077588 0.424280
C83   C     C_2   0.062995 0.676179 0.933374 0.427635
C84   C     C_2   0.998209 0.678323 0.077602 0.425069
C85   C     C_2   0.522662 0.077881 0.045217 -0.109956
C86   C     C_2   0.537011 0.078155 0.968295 -0.098833
C87   C     C_2   0.022638 0.577870 0.045212 -0.107531
C88   C     C_2   0.036979 0.578160 0.968289 -0.099864
C89   C     C_R   0.701567 0.482877 0.961769 0.048386
C90   C     C_R   0.753984 0.421864 0.074638 0.008426
C91   C     C_R   0.306495 0.470345 0.036513 0.002151
C92   C     C_R   0.201574 0.982887 0.961767 0.048346
C93   C     C_R   0.806496 0.970337 0.036508 0.002977
C94   C     C_2   0.653688 0.565801 0.921662 0.282259
C95   C     C_2   0.369498 0.526276 0.069972 0.277355
C96   C     C_2   0.153706 0.065826 0.921657 0.282061
C97   C     C_2   0.869494 0.026285 0.069971 0.277397
C98   C     C_2   0.878915 0.313200 0.570857 0.288362
C99   C     C_2   0.115839 0.403317 0.413488 0.294841
C100  C     C_2   0.378648 0.811933 0.570584 0.293948
Cr1   Cr    Cr6+3 0.769270 0.163730 0.750710 1.081489
Cr2   Cr    Cr6+3 0.385840 0.322500 0.252290 1.093830
Cr3   Cr    Cr6+3 0.114160 0.822500 0.747710 1.109924
Cr4   Cr    Cr6+3 0.885840 0.822500 0.252290 1.090640
Cr5   Cr    Cr6+3 0.230730 0.163730 0.249290 1.128787
Cr6   Cr    Cr6+3 0.269270 0.663730 0.750710 1.081667
Cr7   Cr    Cr6+3 0.730730 0.663730 0.249290 1.108219
Cr8   Cr    Cr6+3 0.612620 0.009790 0.748780 1.028891
Cr9   Cr    Cr6+3 0.387380 0.009790 0.251220 1.033864
Cr10  Cr    Cr6+3 0.112620 0.509790 0.748780 1.026703
Cr11  Cr    Cr6+3 0.887380 0.509790 0.251220 1.052362
Cr12  Cr    Cr6+3 0.614160 0.322500 0.747710 1.111879
F1    F     F_    0.655784 0.558005 0.432700 -0.515453
F2    F     F_    0.554234 0.362282 0.413024 -0.531576
F3    F     F_    0.061515 0.880410 0.552585 -0.563183
F4    F     F_    0.053999 0.862233 0.413177 -0.533775
F5    F     F_    0.361525 0.470855 0.578593 -0.563909
F6    F     F_    0.155881 0.058283 0.432716 -0.548021
F7    F     F_    0.860675 0.981274 0.577182 -0.562823
F8    F     F_    0.486503 0.283526 0.040185 -0.529129
F9    F     F_    0.591763 0.271734 0.969073 -0.575778
F10   F     F_    0.986599 0.783582 0.040223 -0.529739
F11   F     F_    0.091817 0.771671 0.969075 -0.574832
F12   F     F_    0.561637 0.380422 0.552497 -0.557125
H1    H     H_    0.524102 0.990860 0.073343 0.078106
H2    H     H_    0.361506 0.440573 0.443324 0.196424
H3    H     H_    0.161273 0.021497 0.567872 0.215795
H4    H     H_    0.859893 0.951087 0.441899 0.195861
H5    H     H_    0.675032 0.563626 0.061524 0.177684
H6    H     H_    0.341342 0.516670 0.931444 0.179174
H7    H     H_    0.175046 0.063652 0.061519 0.177285
H8    H     H_    0.841340 0.016688 0.931443 0.178940
H9    H     H_    0.832861 0.279144 0.070215 0.141938
H10   H     H_    0.134588 0.357359 0.945649 0.176642
H11   H     H_    0.332840 0.779114 0.070222 0.142354
H12   H     H_    0.521855 0.996560 0.939446 0.096463
H13   H     H_    0.634610 0.857276 0.945635 0.176574
H14   H     H_    0.825009 0.253559 0.945640 0.160430
H15   H     H_    0.144503 0.344028 0.070572 0.162591
H16   H     H_    0.324987 0.753521 0.945646 0.160402
H17   H     H_    0.644520 0.843948 0.070555 0.159669
H18   H     H_    0.458456 0.981477 0.442975 0.205292
H19   H     H_    0.480852 0.986948 0.569990 0.162670
H20   H     H_    0.958252 0.481333 0.443149 0.175092
H21   H     H_    0.980497 0.487159 0.570222 0.154225
H22   H     H_    0.662673 0.584942 0.866122 0.110986
H23   H     H_    0.024025 0.490828 0.073319 0.082955
H24   H     H_    0.368207 0.556074 0.124525 0.116650
H25   H     H_    0.162693 0.084954 0.866115 0.110646
H26   H     H_    0.868197 0.056083 0.124523 0.114652
H27   H     H_    0.895193 0.345737 0.622499 0.123507
H28   H     H_    0.070561 0.358571 0.436865 0.140632
H29   H     H_    0.395310 0.844914 0.622007 0.119998
H30   H     H_    0.611366 0.920925 0.361103 0.104804
H31   H     H_    0.021786 0.496593 0.939432 0.096179
H32   H     H_    0.852844 0.317678 0.435517 0.195071
H33   H     H_    0.124990 0.418036 0.550975 0.152735
H34   H     H_    0.352492 0.816740 0.435317 0.202992
H35   H     H_    0.625831 0.906253 0.552658 0.194700
H36   H     H_    0.661200 0.521497 0.567888 0.222063
O1    O     O_R   0.784320 0.290430 0.830510 -0.524631
O2    O     O_R   0.456080 0.282180 0.333210 -0.441000
O3    O     O_R   0.043920 0.782180 0.666790 -0.418947
O4    O     O_R   0.956080 0.782180 0.333210 -0.450581
O5    O     O_R   0.679040 0.374160 0.674430 -0.476239
O6    O     O_R   0.320960 0.374160 0.325570 -0.524245
O7    O     O_R   0.179040 0.874160 0.674430 -0.475870
O8    O     O_R   0.820960 0.874160 0.325570 -0.513256
O9    O     O_3   0.665350 0.165340 0.749070 -0.306031
O10   O     O_3   0.334650 0.165340 0.250930 -0.283203
O11   O     O_3   0.165350 0.665340 0.749070 -0.305558
O12   O     O_R   0.215680 0.290430 0.169490 -0.512480
O13   O     O_3   0.834650 0.665340 0.250930 -0.279939
O14   O     O_R   0.762640 0.040960 0.825200 -0.503577
O15   O     O_R   0.237360 0.040960 0.174800 -0.503316
O16   O     O_R   0.262640 0.540960 0.825200 -0.503280
O17   O     O_R   0.737360 0.540960 0.174800 -0.502312
O18   O     O_R   0.667400 0.923970 0.829950 -0.528830
O19   O     O_R   0.332600 0.923970 0.170050 -0.517190
O20   O     O_R   0.167400 0.423970 0.829950 -0.529279
O21   O     O_R   0.832600 0.423970 0.170050 -0.519152
O22   O     O_R   0.553960 0.081340 0.821780 -0.545841
O23   O     O_R   0.284320 0.790430 0.830510 -0.524400
O24   O     O_R   0.446040 0.081340 0.178220 -0.541180
O25   O     O_R   0.053960 0.581340 0.821780 -0.546033
O26   O     O_R   0.946040 0.581340 0.178220 -0.533148
O27   O     O_R   0.543180 0.283240 0.826740 -0.452999
O28   O     O_R   0.456820 0.283240 0.173260 -0.448725
O29   O     O_R   0.043180 0.783240 0.826740 -0.453574
O30   O     O_R   0.956820 0.783240 0.173260 -0.448510
O31   O     O_R   0.678360 0.375140 0.822710 -0.518089
O32   O     O_R   0.321640 0.375140 0.177290 -0.515777
O33   O     O_R   0.178360 0.875140 0.822710 -0.518173
O34   O     O_R   0.715680 0.790430 0.169490 -0.523733
O35   O     O_R   0.821640 0.875140 0.177290 -0.515797
O36   O     O_R   0.785050 0.289380 0.670560 -0.514244
O37   O     O_R   0.214950 0.289380 0.329440 -0.435291
O38   O     O_R   0.285050 0.789380 0.670560 -0.516119
O39   O     O_R   0.714950 0.789380 0.329440 -0.480499
O40   O     O_R   0.763320 0.039990 0.676930 -0.427380
O41   O     O_R   0.236680 0.039990 0.323070 -0.423061
O42   O     O_R   0.263320 0.539990 0.676930 -0.429610
O43   O     O_R   0.736680 0.539990 0.323070 -0.416783
O44   O     O_R   0.668130 0.922920 0.670000 -0.530902
O45   O     O_R   0.554640 0.080370 0.673500 -0.521153
O46   O     O_R   0.331870 0.922920 0.330000 -0.537524
O47   O     O_R   0.168130 0.422920 0.670000 -0.529319
O48   O     O_R   0.831870 0.422920 0.330000 -0.542992
O49   O     O_2   0.603603 0.614626 0.950545 -0.469659
O50   O     O_2   0.423265 0.543381 0.036177 -0.417903
O51   O     O_2   0.103630 0.114679 0.950538 -0.469536
O52   O     O_2   0.923261 0.043400 0.036179 -0.417216
O53   O     O_2   0.916673 0.239391 0.540708 -0.442436
O54   O     O_2   0.110256 0.448695 0.354536 -0.489947
O55   O     O_2   0.415832 0.737009 0.540625 -0.405064
O56   O     O_R   0.445360 0.080370 0.326500 -0.523028
O57   O     O_2   0.567531 0.826908 0.439671 -0.430449
O58   O     O_R   0.054640 0.580370 0.673500 -0.520889
O59   O     O_R   0.945360 0.580370 0.326500 -0.503358
O60   O     O_R   0.543920 0.282180 0.666790 -0.416739

loop_
_geom_bond_atom_site_label_1
_geom_bond_atom_site_label_2
_ccdc_geom_bond_type
C100  H29   S    
C70   O42   A    
Cr7   O39   S    
C58   C62   A    
C100  O55   D    
C94   H22   S    
Cr5   O12   S    
C45   C71   S    
C70   O47   A    
C43   C83   S    
Cr6   O11   S    
C14   C18   A    
C40   H35   S    
C85   H1    S    
C2    C7    A    
C42   C82   S    
C84   C87   D    
C82   F8    S    
C48   C69   S    
C4    C8    A    
Cr9   O56   S    
Cr12  O27   S    
C66   O35   A    
C2    C57   A    
Cr10  O25   S    
C46   C89   A    
C85   C86   S    
Cr9   O10   S    
C69   O41   A    
C69   O46   A    
C4    C13   S    
C87   H23   S    
C1    C5    S    
C87   C88   S    
C45   C50   A    
C62   C80   S    
C28   C29   A    
C97   O52   D    
C79   C93   A    
C6    H9    S    
C96   H25   S    
C10   C15   A    
C30   C31   A    
C49   C53   A    
C15   C89   A    
C43   O25   A    
C84   F10   S    
C40   C49   A    
C29   H19   S    
Cr6   O38   S    
C92   C96   S    
C30   H20   S    
C41   O27   A    
C63   O1    A    
C11   C16   A    
C56   H3    S    
C89   C94   S    
C11   H15   S    
C35   O17   A    
C22   C26   A    
C67   O44   A    
C76   O36   A    
C44   O30   A    
C9    H13   S    
C19   C20   A    
C71   O43   A    
C12   C17   A    
C24   O20   A    
Cr2   O32   S    
C97   H26   S    
C20   C23   A    
C73   O56   A    
Cr1   O9    S    
Cr10  O47   S    
Cr3   O29   S    
Cr10  O20   S    
C5    C79   A    
C27   C74   S    
C57   C91   A    
C81   C86   D    
Cr1   O36   S    
C21   F3    S    
C54   C59   A    
C55   C60   A    
Cr10  O11   S    
C22   F4    S    
C83   C88   D    
C21   C27   A    
C14   H17   S    
Cr4   O30   S    
C19   F12   S    
Cr2   O6    S    
C96   O51   D    
Cr8   O9    S    
Cr7   O17   S    
C8    H11   S    
Cr3   O11   S    
C37   H32   S    
Cr1   O14   S    
C17   C92   A    
Cr11  O59   S    
C23   C73   S    
C36   C62   A    
C64   O32   A    
C68   C92   A    
C65   O33   A    
C98   H27   S    
C25   C29   A    
C72   O60   A    
C46   H5    S    
C60   C77   S    
Cr1   O40   S    
C32   C37   A    
Cr5   O10   S    
C27   C31   A    
C34   C39   A    
C88   H31   S    
C57   H6    S    
C36   C40   A    
C7    H10   S    
C67   O40   A    
C4    C68   A    
C47   C51   A    
Cr7   O13   S    
C42   O24   A    
C77   O6    A    
C6    C90   A    
C80   O39   A    
C91   C95   S    
C3    H30   S    
Cr2   O28   S    
C81   F9    S    
C75   O4    A    
C33   C99   S    
C64   O12   A    
C68   H7    S    
C7    C11   A    
C9    C14   A    
C47   C70   S    
Cr7   O43   S    
C73   O2    A    
Cr4   O8    S    
C1    O18   A    
Cr9   O19   S    
Cr5   O41   S    
Cr12  O9    S    
C55   H2    S    
C75   O59   A    
C61   C78   S    
C8    C12   A    
C41   C81   S    
C74   O58   A    
C12   H16   S    
C26   C75   S    
C78   O7    A    
Cr8   O18   S    
C76   O5    A    
C25   C72   S    
C50   C54   A    
Cr12  O60   S    
C38   C47   A    
C72   O45   A    
C16   C91   A    
Cr9   O24   S    
C86   H12   S    
C71   O48   A    
C98   O53   D    
C26   C30   A    
C33   C60   A    
C39   H34   S    
C2    C24   S    
C41   O22   A    
C28   H18   S    
C23   C28   A    
C37   C45   A    
C24   O16   A    
C93   C97   S    
Cr2   O2    S    
C65   O23   A    
C42   O28   A    
C13   O15   A    
C18   C66   S    
Cr11  O26   S    
C15   C63   S    
C49   C67   S    
Cr11  O13   S    
C95   O50   D    
Cr3   O3    S    
C95   H24   S    
C38   H33   S    
C5    C9    A    
Cr8   O45   S    
C44   C84   S    
Cr4   O4    S    
C53   C58   A    
C53   F7    S    
Cr4   O13   S    
C46   C90   A    
C99   O54   D    
C35   O21   A    
C82   C85   D    
C10   H14   S    
C99   H28   S    
C17   C65   S    
C33   C38   A    
Cr11  O21   S    
Cr8   O22   S    
C50   F1    S    
C21   C22   A    
Cr1   O1    S    
Cr2   O10   S    
Cr12  O5    S    
C1    O14   A    
Cr8   O44   S    
C13   O19   A    
C58   H4    S    
Cr12  O31   S    
C20   F2    S    
C3    O57   D    
C74   O3    A    
C3    C36   S    
C63   O31   A    
C79   H8    S    
C59   C76   S    
Cr5   O37   S    
C51   F5    S    
Cr4   O35   S    
C32   C98   S    
C78   O38   A    
C51   C55   A    
C34   C61   A    
Cr9   O46   S    
C19   C25   A    
Cr3   O7    S    
Cr6   O23   S    
C6    C10   A    
Cr10  O58   S    
C54   H36   S    
C31   H21   S    
C35   C90   S    
C48   C52   A    
Cr6   O42   S    
C43   O29   A    
C94   O49   D    
Cr5   O15   S    
C44   O26   A    
C18   C93   A    
Cr6   O16   S    
C56   C61   A    
C16   C64   S    
C32   C59   A    
C83   F11   S    
C66   O34   A    
C34   C100  S    
C77   O37   A    
Cr11  O48   S    
C80   O8    A    
Cr7   O34   S    
C52   C56   A    
Cr3   O33   S    
C39   C48   A    
C52   F6    S    
