data_mof_unit_67325.cif
_audit_creation_date              2012-12-11T18:51:37-0500
_audit_creation_method            fapswitch 2.2
_symmetry_space_group_name_H-M    P1
_symmetry_Int_Tables_number       1
_space_group_crystal_system       triclinic
_cell_length_a                    8.58776
_cell_length_b                    15.121428
_cell_length_c                    14.971469
_cell_angle_alpha                 99.423007
_cell_angle_beta                  98.091933
_cell_angle_gamma                 99.023276
_cell_volume                      1866.36994702

loop_
_atom_site_label
_atom_site_type_symbol
_atom_type_description
_atom_site_fract_x
_atom_site_fract_y
_atom_site_fract_z
_atom_type_partial_charge
Ba1   Ba    Ba6+2 0.844890 0.542420 0.457460 1.629200
Ba2   Ba    Ba6+2 0.344950 0.457650 0.542550 1.656189
C1    C     C_3   0.603927 0.878740 0.199349 -0.015062
C2    C     C_R   0.895323 0.457444 0.921524 -0.021738
C3    C     C_R   0.037231 0.468348 0.109871 -0.062250
C4    C     C_3   0.060570 0.768048 0.212375 0.392288
C5    C     C_R   0.878215 0.424770 0.074565 -0.060403
C6    C     C_R   0.808502 0.420350 0.983592 -0.102817
C7    C     C_R   0.103339 0.479960 0.205878 0.056265
C8    C     C_R   0.255943 0.536441 0.237321 -0.215300
C9    C     C_R   0.080277 0.530551 0.797481 0.009115
C10   C     C_R   0.148381 0.536589 0.891145 -0.059200
C11   C     C_R   0.057698 0.499375 0.953223 0.027824
C12   C     C_3   0.606233 0.795794 0.250491 0.343104
C13   C     C_R   0.307164 0.576792 0.923645 -0.096522
C14   C     C_R   0.382767 0.576008 0.011626 0.125167
C15   C     C_R   0.293103 0.545998 0.078051 -0.031280
C16   C     C_3   0.990796 0.820779 0.141136 -0.362047
C17   C     C_R   0.129273 0.505134 0.047471 -0.032326
C18   C     C_R   0.355968 0.560482 0.173926 0.052277
C19   C     C_R   0.919381 0.488125 0.768145 -0.253701
C20   C     C_R   0.325726 0.826731 0.470793 0.049136
C21   C     C_R   0.576221 0.795467 0.541308 -0.008070
C22   C     C_R   0.753762 0.231509 0.532509 -0.252046
C23   C     C_3   0.356078 0.277404 0.254106 0.458239
C24   C     C_R   0.852806 0.174950 0.564771 -0.020951
C25   C     C_R   0.791025 0.082601 0.559277 -0.146080
C26   C     C_R   0.629565 0.044709 0.519549 -0.010282
C27   C     C_R   0.534703 0.101608 0.476787 -0.017149
C28   C     C_3   0.140488 0.743892 0.776815 0.265109
C29   C     C_R   0.561120 0.950848 0.516660 0.013202
C30   C     C_R   0.397497 0.918547 0.477450 -0.057048
C31   C     C_R   0.307975 0.977533 0.442261 -0.103153
C32   C     C_R   0.377792 0.061939 0.430712 0.146744
C33   C     C_R   0.649819 0.886441 0.546997 -0.196474
C34   C     C_3   0.304132 0.233929 0.149065 -0.039156
C35   C     C_R   0.409994 0.769341 0.513679 -0.089389
C36   C     C_R   0.599924 0.195498 0.482792 0.074398
C37   C     C_3   0.233685 0.803292 0.866370 -0.433474
C38   C     C_3   0.858305 0.240879 0.264601 0.611791
C39   C     C_3   0.887940 0.141889 0.238848 -0.178481
C40   C     C_3   0.714154 0.806133 0.743255 0.275804
C41   C     C_3   0.753306 0.815396 0.847607 -0.106377
C42   C     C_3   0.731700 0.826191 0.336560 -0.340428
C43   C     C_3   0.864565 0.104181 0.135255 -0.471848
C44   C     C_3   0.531609 0.955169 0.250409 -0.460025
C45   C     C_3   0.073039 0.174319 0.763472 0.406098
C46   C     C_3   0.267980 0.129502 0.130910 -0.384398
C47   C     C_3   0.416513 0.267032 0.084104 -0.409275
C48   C     C_3   0.528916 0.850913 0.096359 -0.362942
C49   C     C_3   0.088849 0.083901 0.794354 -0.355913
C50   C     C_3   0.946975 0.679188 0.206684 -0.155674
C51   C     C_3   0.594008 0.125108 0.876087 -0.419178
C52   C     C_3   0.321453 0.569816 0.338331 -0.223957
C53   C     C_3   0.212521 0.745744 0.184723 -0.360259
C54   C     C_3   0.128381 0.256092 0.843414 -0.089823
C55   C     C_3   0.645303 0.233317 0.766556 0.333606
C56   C     C_3   0.585152 0.135101 0.775866 -0.168354
C57   C     C_R   0.825414 0.452706 0.828468 -0.039913
H1    H     H_    0.337609 0.849588 0.852435 0.123589
H2    H     H_    0.729534 0.882003 0.881123 0.063159
H3    H     H_    0.494913 0.779299 0.276341 -0.010164
H4    H     H_    0.246196 0.267250 0.284237 0.088606
H5    H     H_    0.188810 0.255722 0.127713 0.076158
H6    H     H_    0.998981 0.789356 0.069727 0.082953
H7    H     H_    0.944170 0.170286 0.737750 -0.054049
H8    H     H_    0.112657 0.319321 0.817036 0.084660
H9    H     H_    0.257853 0.261888 0.869773 0.127272
H10   H     H_    0.771632 0.255241 0.801391 -0.001747
H11   H     H_    0.638183 0.233581 0.692047 -0.012787
H12   H     H_    0.156586 0.845548 0.900464 0.077753
H13   H     H_    0.659285 0.089910 0.742528 0.054287
H14   H     H_    0.459451 0.112517 0.739579 0.139701
H15   H     H_    0.801747 0.395979 0.116952 0.113354
H16   H     H_    0.684404 0.387780 0.963166 0.102026
H17   H     H_    0.379540 0.608197 0.880570 0.108060
H18   H     H_    0.865258 0.483955 0.697434 0.074969
H19   H     H_    0.181721 0.957893 0.416650 0.132847
H20   H     H_    0.776520 0.903826 0.572492 0.085489
H21   H     H_    0.802677 0.303138 0.538648 0.052727
H22   H     H_    0.872191 0.042318 0.586599 0.067770
H23   H     H_    0.277176 0.759862 0.913768 0.101768
H24   H     H_    0.863368 0.819424 0.142126 0.130867
H25   H     H_    0.054520 0.892844 0.155400 0.114011
H26   H     H_    0.088836 0.788881 0.733746 0.067927
H27   H     H_    0.038073 0.697236 0.791807 -0.002945
H28   H     H_    0.697468 0.880895 0.383079 0.065009
H29   H     H_    0.744604 0.769897 0.373598 0.163930
H30   H     H_    0.845362 0.856525 0.319489 0.155822
H31   H     H_    0.740530 0.257087 0.142352 0.141554
H32   H     H_    0.630260 0.191979 0.197079 0.182583
H33   H     H_    0.810934 0.320028 0.379347 0.182387
H34   H     H_    0.807119 0.095358 0.269494 0.082008
H35   H     H_    0.955298 0.259715 0.400607 0.161337
H36   H     H_    0.908255 0.038610 0.123688 0.125073
H37   H     H_    0.736003 0.089836 0.103924 0.119704
H38   H     H_    0.931146 0.152964 0.099977 0.147186
H39   H     H_    0.686680 0.679784 0.852390 0.206935
H40   H     H_    0.537089 0.740158 0.855070 0.194136
H41   H     H_    0.612985 0.989720 0.315029 0.117783
H42   H     H_    0.518510 0.008342 0.208676 0.127487
H43   H     H_    0.415115 0.930115 0.268994 0.134544
H44   H     H_    0.368171 0.398733 0.211206 0.092725
H45   H     H_    0.011223 0.139861 0.270007 0.088654
H46   H     H_    0.540198 0.386261 0.269293 0.231117
H47   H     H_    0.378861 0.101949 0.144551 0.127959
H48   H     H_    0.184868 0.104572 0.174665 0.110419
H49   H     H_    0.211540 0.102510 0.058046 0.104549
H50   H     H_    0.345118 0.283237 0.023596 0.107819
H51   H     H_    0.505290 0.329532 0.115167 0.130674
H52   H     H_    0.482337 0.213601 0.058049 0.117928
H53   H     H_    0.465842 0.903560 0.072109 0.107022
H54   H     H_    0.624174 0.842510 0.054375 0.127784
H55   H     H_    0.444231 0.785092 0.080458 0.126997
H56   H     H_    0.586327 0.811687 0.724808 0.000254
H57   H     H_    0.064856 0.027803 0.733371 0.096690
H58   H     H_    0.211418 0.087124 0.831856 0.105671
H59   H     H_    0.000206 0.067000 0.839153 0.076656
H60   H     H_    0.071518 0.198943 0.952540 0.171815
H61   H     H_    0.067715 0.309769 0.964716 0.182794
H62   H     H_    0.010202 0.625091 0.222000 0.064487
H63   H     H_    0.874762 0.688482 0.260713 0.176624
H64   H     H_    0.875516 0.654656 0.136605 0.109835
H65   H     H_    0.512505 0.165170 0.908693 0.147926
H66   H     H_    0.555961 0.052305 0.879706 0.104848
H67   H     H_    0.792480 0.863208 0.723847 -0.043082
H68   H     H_    0.718156 0.149106 0.914211 0.142118
H69   H     H_    0.581552 0.669530 0.015982 0.192534
H70   H     H_    0.602143 0.560163 0.984331 0.188577
H71   H     H_    0.237352 0.575378 0.383357 0.179868
H72   H     H_    0.399575 0.525142 0.365228 0.160887
H73   H     H_    0.378343 0.642613 0.350888 0.028644
H74   H     H_    0.378278 0.679880 0.598319 0.203791
H75   H     H_    0.212249 0.697473 0.546122 0.213284
H76   H     H_    0.289162 0.809338 0.181969 0.121617
H77   H     H_    0.265449 0.710202 0.235873 0.058930
H78   H     H_    0.728526 0.912960 0.200544 0.093407
H79   H     H_    0.189879 0.701918 0.115440 0.069978
H80   H     H_    0.175056 0.099472 0.376603 0.190208
H81   H     H_    0.280177 0.056115 0.300050 0.152654
H82   H     H_    0.881795 0.814467 0.868597 0.087508
N1    N     N_3   0.713789 0.252207 0.207459 -0.463100
N2    N     N_3   0.843119 0.256796 0.361267 -0.515827
N3    N     N_3   0.657800 0.742186 0.879647 -0.520542
N4    N     N_3   0.416958 0.375110 0.268000 -0.494333
N5    N     N_3   0.035366 0.248442 0.917287 -0.543627
N6    N     N_3   0.552782 0.603869 0.029249 -0.445623
N7    N     N_3   0.325302 0.687149 0.533750 -0.464713
N8    N     N_3   0.290850 0.100075 0.362925 -0.462642
O1    O     O_2   0.826410 0.445300 0.275350 -0.482518
O2    O     O_2   0.151364 0.178944 0.524183 -0.472142
O3    O     O_3   0.170822 0.184665 0.696301 -0.577689
O4    O     O_3   0.098900 0.448430 0.388910 -0.491217
O5    O     O_3   0.590780 0.611410 0.551120 -0.446900
O6    O     O_2   0.326530 0.274990 0.446290 -0.437928
O7    O     O_3   0.468496 0.234428 0.300016 -0.630428
O8    O     O_2   0.496081 0.456470 0.822821 -0.481025
O9    O     O_3   0.550666 0.291779 0.805588 -0.584491
O10   O     O_3   0.628630 0.613330 0.338230 -0.498748
O11   O     O_2   0.667307 0.544625 0.176283 -0.478374
O12   O     O_3   0.742663 0.721841 0.699832 -0.614223
O13   O     O_3   0.989994 0.300814 0.250078 -0.671888
O14   O     O_3   0.638820 0.718962 0.192213 -0.617782
O15   O     O_2   0.863180 0.725040 0.553770 -0.453860
O16   O     O_3   0.060890 0.661420 0.386090 -0.509652
O17   O     O_2   0.011732 0.821698 0.461288 -0.498117
O18   O     O_3   0.091394 0.826753 0.300252 -0.631354
O19   O     O_2   0.363300 0.554730 0.724710 -0.442915
O20   O     O_3   0.090820 0.551650 0.611100 -0.473326
O21   O     O_3   0.561090 0.386750 0.661790 -0.458143
O22   O     O_3   0.246759 0.700730 0.729123 -0.641187
O23   O     O_3   0.598940 0.388670 0.448890 -0.476642
O24   O     O_3   0.128820 0.338650 0.613920 -0.460656
P1    P     P_3+3 0.996530 0.418490 0.288400 0.961176
P2    P     P_3+3 0.693090 0.712100 0.580610 1.003109
P3    P     P_3+3 0.124309 0.779664 0.401717 0.885815
P4    P     P_3+3 0.193180 0.581580 0.711620 0.989567
P5    P     P_3+3 0.070301 0.220210 0.602122 0.959497
P6    P     P_3+3 0.569195 0.611588 0.221518 0.917020
P7    P     P_3+3 0.498935 0.273178 0.420128 0.999949
P8    P     P_3+3 0.611698 0.399767 0.780850 0.964780

loop_
_geom_bond_atom_site_label_1
_geom_bond_atom_site_label_2
_ccdc_geom_bond_type
C55   O9    S    
H61   N5    S    
Ba2   O6    S    
C38   N1    S    
C4    C53   S    
C2    C6    A    
C49   H59   S    
C40   O12   S    
C5    C6    A    
C16   H6    S    
C3    C7    A    
C52   H72   S    
C44   H43   S    
C41   H2    S    
C24   C25   A    
C53   H79   S    
C20   C30   A    
O5    P2    S    
C14   N6    S    
H35   N2    S    
C12   C42   S    
C26   C27   A    
C22   C24   A    
C19   C57   A    
C47   H51   S    
Ba2   O24   S    
O12   P2    S    
C50   H64   S    
C31   H19   S    
C46   H48   S    
C21   P2    S    
C13   C14   A    
C12   H3    S    
C12   O14   S    
C15   C18   A    
O15   P2    D    
Ba1   Ba2   S    
C23   H4    S    
C33   H20   S    
C2    C11   A    
C57   P8    S    
H33   N2    S    
C51   H68   S    
C15   C17   A    
C50   H63   S    
C1    C48   S    
C46   H47   S    
Ba1   O15   S    
C8    C18   A    
C14   C15   A    
C27   C36   A    
C22   C36   A    
C1    H78   S    
Ba2   P4    S    
Ba1   O16   S    
C55   H11   S    
C5    H15   S    
C42   H28   S    
C7    C8    A    
C45   H7    S    
C47   H52   S    
H32   N1    S    
O23   P7    S    
C13   H17   S    
Ba2   O5    S    
C23   O7    S    
O3    P5    S    
C41   N3    S    
O8    P8    D    
C42   H30   S    
C52   H71   S    
O20   P4    S    
C32   N8    S    
C22   H21   S    
C16   H24   S    
C18   P6    S    
C24   P5    S    
C4    C16   S    
C44   H42   S    
C39   H34   S    
Ba1   P1    S    
C36   P7    S    
C11   C17   A    
H40   N3    S    
Ba1   O10   S    
C3    C5    A    
O2    P5    D    
C45   C49   S    
Ba2   O20   S    
C54   H9    S    
C20   C35   A    
O4    P1    S    
H80   N8    S    
C6    H16   S    
O16   P3    S    
O13   P1    S    
O11   P6    D    
C38   O13   S    
C50   H62   S    
C16   H25   S    
C29   C30   A    
C10   C13   A    
C25   H22   S    
C51   C56   S    
H46   N4    S    
C48   H53   S    
C31   C32   A    
Ba1   O1    S    
H74   N7    S    
C45   O3    S    
C28   H26   S    
Ba1   O4    S    
H31   N1    S    
C1    C12   S    
C51   H66   S    
Ba2   O21   S    
C9    P4    S    
C38   C39   S    
O1    P1    D    
Ba2   O4    S    
H60   N5    S    
C23   N4    S    
O21   P8    S    
O14   P6    S    
C29   C33   A    
C41   H82   S    
C28   H27   S    
C40   C41   S    
C43   H36   S    
Ba2   O19   S    
C52   H73   S    
O6    P7    D    
H44   N4    S    
C47   H50   S    
C44   H41   S    
C4    O18   S    
Ba1   P2    S    
C39   C43   S    
C1    C44   S    
H39   N3    S    
O17   P3    D    
C26   C29   A    
O22   P4    S    
C37   H23   S    
O10   P6    S    
C51   H65   S    
C20   P3    S    
C9    C10   A    
H69   N6    S    
C3    C17   A    
C54   H8    S    
H75   N7    S    
Ba1   O23   S    
C21   C33   A    
C49   H57   S    
C39   H45   S    
C48   H54   S    
C4    C50   S    
C30   C31   A    
C21   C35   A    
O7    P7    S    
C56   H13   S    
C55   C56   S    
C46   H49   S    
O24   P5    S    
O19   P4    D    
C53   H76   S    
C37   H1    S    
C27   C32   A    
C2    C57   A    
Ba1   O20   S    
C7    P1    S    
C49   H58   S    
C9    C19   A    
C28   C37   S    
C34   C46   S    
C42   H29   S    
C35   N7    S    
C54   N5    S    
Ba1   O5    S    
C8    C52   S    
O9    P8    S    
C28   O22   S    
H70   N6    S    
C40   H67   S    
C23   C34   S    
C40   H56   S    
C10   C11   A    
C38   N2    S    
C19   H18   S    
C25   C26   A    
C37   H12   S    
C45   C54   S    
C48   H55   S    
C43   H38   S    
C55   H10   S    
C34   H5    S    
C43   H37   S    
H81   N8    S    
C34   C47   S    
C53   H77   S    
C56   H14   S    
Ba2   O23   S    
O18   P3    S    
