data_mof_unit_13068.cif
_audit_creation_date              2012-12-11T16:06:24-0500
_audit_creation_method            fapswitch 2.2
_symmetry_space_group_name_H-M    P1
_symmetry_Int_Tables_number       1
_space_group_crystal_system       triclinic
_cell_length_a                    7.195694
_cell_length_b                    14.719354
_cell_length_c                    15.639729
_cell_angle_alpha                 90.0
_cell_angle_beta                  90.000012
_cell_angle_gamma                 90.000931
_cell_volume                      1656.49702453

loop_
_atom_site_label
_atom_site_type_symbol
_atom_type_description
_atom_site_fract_x
_atom_site_fract_y
_atom_site_fract_z
_atom_type_partial_charge
O1    O     O_R   0.388780 0.834790 0.412340 -0.531492
O2    O     O_R   0.111220 0.165210 0.912340 -0.531492
O3    O     O_R   0.888780 0.665210 0.587660 -0.531495
O4    O     O_R   0.611220 0.334790 0.087660 -0.531496
O5    O     O_R   0.059040 0.845930 0.587040 -0.535206
O6    O     O_R   0.440960 0.154070 0.087040 -0.535207
O7    O     O_R   0.559040 0.654070 0.412960 -0.535244
O8    O     O_R   0.940960 0.345930 0.912960 -0.535243
C1    C     C_R   0.227867 0.867998 0.615266 0.644594
C2    C     C_R   0.272133 0.132001 0.115265 0.644586
C3    C     C_R   0.727867 0.631996 0.384740 0.644634
C4    C     C_R   0.772133 0.368004 0.884740 0.644636
O9    O     O_R   0.059070 0.845930 0.412970 -0.544034
O10   O     O_R   0.440930 0.154070 0.912970 -0.544030
O11   O     O_R   0.559070 0.654070 0.587030 -0.544074
O12   O     O_R   0.940930 0.345930 0.087030 -0.544075
O13   O     O_R   0.888760 0.665210 0.412340 -0.536471
O14   O     O_R   0.611240 0.334790 0.912340 -0.536470
O15   O     O_R   0.388760 0.834790 0.587660 -0.536483
O16   O     O_R   0.111240 0.165210 0.087660 -0.536485
C5    C     C_R   0.227894 0.867817 0.384592 0.669024
C6    C     C_R   0.272105 0.132183 0.884593 0.669021
C7    C     C_R   0.727892 0.632189 0.615413 0.669111
C8    C     C_R   0.772108 0.367811 0.115414 0.669107
O17   O     O_3   0.222280 0.690700 0.500000 -0.364390
O18   O     O_3   0.277720 0.309300 0.000000 -0.364390
O19   O     O_3   0.722280 0.809300 0.500000 -0.364321
O20   O     O_3   0.777720 0.190700 0.000000 -0.364318
V1    V     V_3+5 0.947430 0.761000 0.500000 1.462791
V2    V     V_3+5 0.552570 0.239000 0.000000 1.462796
V3    V     V_3+5 0.447430 0.739000 0.500000 1.462686
V4    V     V_3+5 0.052570 0.261000 0.000000 1.462684
C9    C     C_3   0.882771 0.589337 0.755753 -0.319500
C10   C     C_3   0.617224 0.410664 0.255752 -0.319503
C11   C     C_3   0.382520 0.910591 0.244178 -0.319524
C12   C     C_3   0.117504 0.089416 0.744172 -0.319520
H1    H     H_    0.024360 0.595220 0.727694 0.152828
H2    H     H_    0.475637 0.404784 0.227691 0.152829
H3    H     H_    0.524136 0.904546 0.272169 0.152814
H4    H     H_    0.975883 0.095477 0.772155 0.152812
H5    H     H_    0.844668 0.657111 0.781133 0.168081
H6    H     H_    0.655320 0.342890 0.281131 0.168081
H7    H     H_    0.344072 0.842876 0.218774 0.168116
H8    H     H_    0.155985 0.157126 0.718765 0.168121
C13   C     C_3   0.887948 0.520947 0.831096 -0.329034
C14   C     C_3   0.612049 0.479053 0.331095 -0.329033
C15   C     C_3   0.387823 0.979030 0.168877 -0.328982
C16   C     C_3   0.112191 0.020972 0.668875 -0.328979
H9    H     H_    0.839565 0.554992 0.890636 0.139726
H10   H     H_    0.660430 0.445007 0.390635 0.139727
H11   H     H_    0.339411 0.945040 0.109314 0.139626
H12   H     H_    0.160607 0.054956 0.609309 0.139626
H13   H     H_    0.034161 0.499644 0.842530 0.163821
H14   H     H_    0.465836 0.500358 0.342529 0.163821
H15   H     H_    0.534070 0.000295 0.157467 0.163825
H16   H     H_    0.965940 0.999712 0.657465 0.163824
C17   C     C_3   0.798512 0.465085 0.649469 -0.186671
C18   C     C_3   0.701495 0.534916 0.149469 -0.186670
C19   C     C_3   0.298854 0.034881 0.350520 -0.186603
C20   C     C_3   0.201113 0.965122 0.850520 -0.186597
C21   C     C_3   0.549473 0.547774 0.731020 -0.346524
C22   C     C_3   0.950525 0.452223 0.231022 -0.346527
C23   C     C_3   0.049407 0.952351 0.269091 -0.346456
C24   C     C_3   0.450601 0.047636 0.769102 -0.346450
C25   C     C_3   0.740383 0.560146 0.685762 0.056962
C26   C     C_3   0.759617 0.439854 0.185762 0.056962
C27   C     C_3   0.240392 0.939861 0.314246 0.056885
C28   C     C_3   0.259607 0.060138 0.814247 0.056880
H17   H     H_    0.440748 0.527967 0.683924 0.171496
H18   H     H_    0.059253 0.472027 0.183928 0.171493
H19   H     H_    0.940889 0.972265 0.316243 0.171653
H20   H     H_    0.559100 0.027712 0.816260 0.171668
H21   H     H_    0.504977 0.613275 0.760146 0.150201
H22   H     H_    0.995014 0.386722 0.260150 0.150202
H23   H     H_    0.004614 0.886870 0.240025 0.150127
H24   H     H_    0.495422 0.113115 0.740042 0.150124
C29   C     C_3   0.762628 0.437435 0.812032 0.052637
C30   C     C_3   0.737372 0.562565 0.312032 0.052639
C31   C     C_3   0.262632 0.062575 0.187978 0.052627
C32   C     C_3   0.237367 0.937424 0.687979 0.052622
C33   C     C_3   0.823902 0.394469 0.724675 -0.165807
C34   C     C_3   0.676102 0.605531 0.224675 -0.165805
C35   C     C_3   0.324068 0.105519 0.275320 -0.165828
C36   C     C_3   0.175915 0.894482 0.775320 -0.165831
C37   C     C_3   0.560684 0.473979 0.801177 -0.327229
C38   C     C_3   0.939315 0.526019 0.301179 -0.327229
C39   C     C_3   0.060658 0.026093 0.198888 -0.327214
C40   C     C_3   0.439346 0.973899 0.698895 -0.327213
H25   H     H_    0.509822 0.502819 0.862655 0.169297
H26   H     H_    0.990175 0.497179 0.362658 0.169294
H27   H     H_    0.009716 0.997227 0.137433 0.169131
H28   H     H_    0.490298 0.002766 0.637443 0.169147
H29   H     H_    0.466426 0.417146 0.783901 0.186257
H30   H     H_    0.033575 0.582851 0.283903 0.186256
H31   H     H_    0.966487 0.082962 0.216145 0.186301
H32   H     H_    0.533507 0.917026 0.716152 0.186305
H33   H     H_    0.682385 0.440420 0.608539 0.097682
H34   H     H_    0.817626 0.559579 0.108542 0.097684
H35   H     H_    0.182955 0.059578 0.391564 0.097541
H36   H     H_    0.316992 0.940420 0.891574 0.097527
H37   H     H_    0.731859 0.335329 0.711446 0.082808
H38   H     H_    0.768145 0.664671 0.211448 0.082806
H39   H     H_    0.232019 0.164642 0.288600 0.082843
H40   H     H_    0.267962 0.835360 0.788605 0.082844
C41   C     C_1   0.961410 0.471027 0.591519 0.288126
N1    N     N_1   0.088454 0.475597 0.546323 -0.363071
C42   C     C_1   0.538602 0.528976 0.091517 0.288125
N2    N     N_1   0.411563 0.524408 0.046317 -0.363073
C43   C     C_1   0.461987 0.028835 0.408316 0.288270
N3    N     N_1   0.589219 0.024182 0.453390 -0.362969
C44   C     C_1   0.037958 0.971177 0.908302 0.288278
N4    N     N_1   0.910708 0.975838 0.953366 -0.362965
C45   C     C_1   0.015273 0.357647 0.730125 0.304323
N5    N     N_1   0.165207 0.329716 0.734349 -0.411220
C46   C     C_1   0.484730 0.642353 0.230123 0.304320
N6    N     N_1   0.334797 0.670284 0.234346 -0.411219
C47   C     C_1   0.515400 0.142378 0.269808 0.304212
N7    N     N_1   0.665300 0.170343 0.265537 -0.411221
C48   C     C_1   0.984585 0.857621 0.769801 0.304207
N8    N     N_1   0.834686 0.829654 0.765525 -0.411224

loop_
_geom_bond_atom_site_label_1
_geom_bond_atom_site_label_2
_ccdc_geom_bond_type
O17   V3    S    
C17   C41   S    
C40   H32   S    
O1    C5    A    
C39   H27   S    
O19   V1    S    
C9    C13   S    
O3    C7    A    
C44   N4    T    
C10   H6    S    
C15   C31   S    
C32   C36   S    
O15   V3    S    
C10   C26   S    
C31   C39   S    
C9    C25   S    
C33   H37   S    
O7    C3    A    
C22   C38   S    
C35   H39   S    
C24   C28   S    
O9    V1    S    
C19   C35   S    
C34   C46   S    
C18   C34   S    
O4    C8    A    
C46   N6    T    
O1    V3    S    
C19   H35   S    
C22   H18   S    
O2    V4    S    
C18   C42   S    
O3    V1    S    
C38   H30   S    
C19   C27   S    
C37   H29   S    
C18   C26   S    
C40   H28   S    
C2    O16   A    
C39   H31   S    
O2    C6    A    
C42   N2    T    
C10   C14   S    
C29   C33   S    
C11   H7    S    
C43   N3    T    
C8    C26   S    
C30   C38   S    
O11   C7    A    
C11   C15   S    
O12   C8    A    
C5    C27   S    
O10   V2    S    
C1    O15   A    
O5    V1    S    
C34   H38   S    
C23   C27   S    
O7    V3    S    
C22   C26   S    
O8    V4    S    
C12   H4    S    
C38   H26   S    
C14   C30   S    
C37   H25   S    
O18   V4    S    
C15   H11   S    
C21   H21   S    
C16   C32   S    
C13   H13   S    
C9    H1    S    
C1    C32   S    
C11   H3    S    
O5    C1    A    
C3    C30   S    
C30   C34   S    
C13   H9    S    
O8    C4    A    
C17   H33   S    
C4    C29   S    
C14   H14   S    
C24   H24   S    
O9    C5    A    
C48   N8    T    
C6    C28   S    
C21   C37   S    
O14   V2    S    
O6    V2    S    
C23   H19   S    
O10   C6    A    
C36   H40   S    
C17   C33   S    
C12   H8    S    
C4    O14   A    
C15   H15   S    
C45   N5    T    
O16   V4    S    
C21   H17   S    
C16   H16   S    
C3    O13   A    
C23   C39   S    
C10   H2    S    
C17   C25   S    
C20   H36   S    
O6    C2    A    
C2    C31   S    
C12   C28   S    
O11   V3    S    
C18   H34   S    
O12   V4    S    
C41   N1    T    
C14   H10   S    
C9    H5    S    
C7    C25   S    
O20   V2    S    
C32   C40   S    
C20   C44   S    
O13   V1    S    
C31   C35   S    
C20   C36   S    
C35   C47   S    
C23   H23   S    
C36   C48   S    
C19   C43   S    
C12   C16   S    
C24   H20   S    
C11   C27   S    
C29   C37   S    
C21   C25   S    
C16   H12   S    
C20   C28   S    
C33   C45   S    
C22   H22   S    
C13   C29   S    
C47   N7    T    
C24   C40   S    
O4    V2    S    
