data_mof_unit_41070.cif
_audit_creation_date              2012-12-10T20:50:10-0500
_audit_creation_method            fapswitch 2.2
_symmetry_space_group_name_H-M    P1
_symmetry_Int_Tables_number       1
_space_group_crystal_system       triclinic
_cell_length_a                    19.280754
_cell_length_b                    8.906059
_cell_length_c                    8.264483
_cell_angle_alpha                 90.009412
_cell_angle_beta                  90.269118
_cell_angle_gamma                 90.069186
_cell_volume                      1419.12339129

loop_
_atom_site_label
_atom_site_type_symbol
_atom_type_description
_atom_site_fract_x
_atom_site_fract_y
_atom_site_fract_z
_atom_type_partial_charge
C1    C     C_R   0.499985 0.218692 0.499987 0.917530
C2    C     C_R   0.249797 0.556217 0.376211 0.107625
C3    C     C_R   0.185488 0.465182 0.662256 0.120685
C4    C     C_R   0.824776 0.509890 0.378862 0.128886
C5    C     C_R   0.817979 0.487408 0.671789 0.135375
C6    C     C_R   0.176975 0.541733 0.381727 0.141305
C7    C     C_R   0.145718 0.499112 0.526446 -0.077026
C8    C     C_R   0.857097 0.498830 0.530856 -0.076970
C9    C     C_R   0.289646 0.496630 0.505090 -0.199546
C10   C     C_R   0.711984 0.501319 0.509745 -0.201609
C11   C     C_R   0.931868 0.502407 0.543052 0.346400
C12   C     C_R   0.499948 0.781301 0.500004 0.913149
C13   C     C_R   0.070870 0.503084 0.541068 0.344511
C14   C     C_3   0.308874 0.419494 0.914067 -0.639680
C15   C     C_3   0.709892 0.300769 0.193307 -0.752858
C16   C     C_3   0.698859 0.674661 0.862351 -0.743091
C17   C     C_3   0.300076 0.788041 0.282300 -0.761283
C18   C     C_3   0.150230 0.652785 0.850429 -0.777027
C19   C     C_3   0.869610 0.686646 0.185427 -0.811010
C20   C     C_3   0.857479 0.309277 0.871628 -0.768351
C21   C     C_3   0.103081 0.445530 0.169978 -0.764964
C22   C     C_R   0.365529 0.498028 0.500291 0.920848
C23   C     C_R   0.635026 0.500460 0.501459 0.899124
C24   C     C_1   0.499926 0.065390 0.499967 -0.192091
C25   C     C_1   0.499909 0.934593 0.499991 -0.197115
C26   C     C_R   0.256391 0.442927 0.645609 0.142938
C27   C     C_R   0.752378 0.494294 0.368572 0.144990
C28   C     C_R   0.745891 0.505620 0.662012 0.111356
H1    H     H_    0.271640 0.245614 0.771690 0.211600
H2    H     H_    0.663548 0.676167 0.968055 0.245392
H3    H     H_    0.675621 0.745541 0.765687 0.247809
H4    H     H_    0.749699 0.722935 0.898479 0.208928
H5    H     H_    0.259354 0.621832 0.136263 0.221730
H6    H     H_    0.329256 0.836841 0.179372 0.239260
H7    H     H_    0.333180 0.795781 0.392386 0.238250
H8    H     H_    0.251948 0.854366 0.300637 0.224678
H9    H     H_    0.112585 0.433499 0.836806 0.235493
H10   H     H_    0.196603 0.694235 0.915995 0.233067
H11   H     H_    0.102706 0.674674 0.921559 0.236023
H12   H     H_    0.355616 0.364535 0.965684 0.232788
H13   H     H_    0.145151 0.721209 0.738408 0.243768
H14   H     H_    0.911800 0.476818 0.234530 0.239955
H15   H     H_    0.817315 0.732564 0.158432 0.234270
H16   H     H_    0.901821 0.695141 0.074797 0.244205
H17   H     H_    0.894139 0.756121 0.281373 0.265787
H18   H     H_    0.833070 0.531423 0.914608 0.252050
H19   H     H_    0.888525 0.301155 0.984716 0.242913
H20   H     H_    0.883582 0.242055 0.776798 0.262200
H21   H     H_    0.805343 0.260607 0.893499 0.222159
H22   H     H_    0.149708 0.660900 0.173270 0.232502
H23   H     H_    0.319937 0.541368 0.900505 0.243143
H24   H     H_    0.061780 0.481518 0.084765 0.240657
H25   H     H_    0.078136 0.369739 0.258750 0.245056
H26   H     H_    0.143803 0.380359 0.106934 0.241022
H27   H     H_    0.265304 0.401478 0.999044 0.217199
H28   H     H_    0.745420 0.511156 0.123236 0.246237
H29   H     H_    0.682054 0.250441 0.297578 0.241476
H30   H     H_    0.677425 0.282141 0.084049 0.232510
H31   H     H_    0.760422 0.242681 0.178142 0.226397
H32   H     H_    0.716454 0.441271 0.890779 0.228883
N1    N     N_1   0.500000 0.500000 0.073640 -0.038956
N2    N     N_2   0.282936 0.633270 0.246871 -0.285513
N3    N     N_2   0.157646 0.492830 0.817426 -0.298989
N4    N     N_2   0.864611 0.531152 0.235709 -0.316173
N5    N     N_2   0.851864 0.465073 0.823359 -0.300140
N6    N     N_2   0.133561 0.575877 0.247714 -0.294629
N7    N     N_1   0.500000 0.500000 0.926360 -0.038583
N8    N     N_R   0.035534 0.630570 0.507187 -0.151465
N9    N     N_R   0.967209 0.375493 0.578659 -0.178301
N10   N     N_R   0.966783 0.630244 0.508717 -0.178375
N11   N     N_R   0.035954 0.375889 0.578270 -0.203556
N12   N     N_2   0.292581 0.351652 0.759765 -0.293029
N13   N     N_2   0.720887 0.460234 0.218000 -0.275660
N14   N     N_2   0.707004 0.521905 0.805679 -0.274099
O1    O     O_R   0.500000 0.285350 0.636850 -0.612580
O2    O     O_R   0.500000 0.714650 0.363150 -0.611528
O3    O     O_R   0.500000 0.714650 0.636850 -0.616943
O4    O     O_R   0.500000 0.285350 0.363150 -0.618920
O5    O     O_R   0.398140 0.500000 0.636920 -0.601819
O6    O     O_R   0.601860 0.500000 0.363080 -0.589404
O7    O     O_R   0.601860 0.500000 0.636920 -0.587884
O8    O     O_R   0.398140 0.500000 0.363080 -0.595595
Zn1   Zn    Zn3+2 0.500000 0.500000 0.682780 0.985217
Zn2   Zn    Zn3+2 0.500000 0.500000 0.317220 0.987417

loop_
_geom_bond_atom_site_label_1
_geom_bond_atom_site_label_2
_ccdc_geom_bond_type
C10   C27   A    
O5    Zn1   S    
N7    Zn1   S    
C21   N6    S    
C26   N12   S    
C4    C8    A    
C28   N14   S    
O2    Zn2   S    
C11   N10   A    
C16   H3    S    
C16   N14   S    
C22   O8    A    
C22   O5    A    
C3    C7    A    
C21   H26   S    
C9    C22   S    
O3    Zn1   S    
C16   H2    S    
N9    N11   A    
O7    Zn1   S    
H5    N2    S    
C17   H8    S    
C23   O6    A    
O6    Zn2   S    
H1    N12   S    
C14   H27   S    
C1    O4    A    
C15   H29   S    
C2    C6    A    
C15   H31   S    
H9    N3    S    
C19   H15   S    
C9    C26   A    
C1    O1    A    
C20   N5    S    
C24   C25   T    
H18   N5    S    
C5    N5    S    
C18   H13   S    
C13   N11   A    
C18   H11   S    
C20   H21   S    
C17   N2    S    
C5    C28   A    
N1    N7    T    
C14   H23   S    
C7    C13   S    
C19   N4    S    
C12   O3    A    
C11   N9    A    
H22   N6    S    
C20   H20   S    
C15   N13   S    
O8    Zn2   S    
C12   O2    A    
C15   H30   S    
C17   H6    S    
H14   N4    S    
C4    C27   A    
C19   H16   S    
C10   C28   A    
H28   N13   S    
C23   O7    A    
C14   N12   S    
C3    C26   A    
N1    Zn2   S    
C5    C8    A    
C19   H17   S    
C6    C7    A    
C3    N3    S    
C10   C23   S    
C16   H4    S    
C4    N4    S    
C12   C25   S    
C18   H10   S    
C21   H25   S    
O1    Zn1   S    
C8    C11   S    
H32   N14   S    
C18   N3    S    
C20   H19   S    
C14   H12   S    
O4    Zn2   S    
C6    N6    S    
C1    C24   S    
N8    N10   A    
C17   H7    S    
C27   N13   S    
C2    C9    A    
C21   H24   S    
C2    N2    S    
C13   N8    A    
