data_mof_unit_41083.cif
_audit_creation_date              2012-12-10T17:43:34-0500
_audit_creation_method            fapswitch 2.2
_symmetry_space_group_name_H-M    P1
_symmetry_Int_Tables_number       1
_space_group_crystal_system       triclinic
_cell_length_a                    14.999239
_cell_length_b                    10.622666
_cell_length_c                    9.906521
_cell_angle_alpha                 91.89257
_cell_angle_beta                  89.797341
_cell_angle_gamma                 91.212964
_cell_volume                      1577.20399186

loop_
_atom_site_label
_atom_site_type_symbol
_atom_type_description
_atom_site_fract_x
_atom_site_fract_y
_atom_site_fract_z
_atom_type_partial_charge
C1    C     C_R   0.500379 0.260564 0.497489 0.856818
C2    C     C_R   0.907687 0.496161 0.375676 0.119500
C3    C     C_R   0.952858 0.479156 0.745169 -0.220493
C4    C     C_R   0.045480 0.478212 0.745230 -0.221827
C5    C     C_R   0.092339 0.483958 0.623046 0.114711
C6    C     C_R   0.046360 0.489047 0.499356 0.060424
C7    C     C_R   0.093130 0.494682 0.375835 0.116621
C8    C     C_R   0.047142 0.499354 0.253414 -0.217390
C9    C     C_R   0.954536 0.500120 0.253337 -0.220328
C10   C     C_R   0.184577 0.486139 0.622398 -0.271202
C11   C     C_R   0.230758 0.494201 0.499987 -0.072240
C12   C     C_R   0.326698 0.498907 0.500120 0.857300
C13   C     C_R   0.185306 0.497022 0.377071 -0.259803
C14   C     C_R   0.332421 0.135936 0.544355 -0.204769
C15   C     C_R   0.255277 0.077301 0.591077 -0.169026
C16   C     C_R   0.258213 0.954233 0.633426 -0.164901
C17   C     C_R   0.337084 0.886183 0.621987 -0.027948
C18   C     C_R   0.413091 0.939383 0.555516 0.042304
C19   C     C_R   0.412287 0.068672 0.529863 0.097486
C20   C     C_R   0.492294 0.128267 0.491046 -0.075289
C21   C     C_R   0.567899 0.062136 0.455363 -0.207110
C22   C     C_R   0.565643 0.933687 0.461250 -0.193605
C23   C     C_R   0.492438 0.739176 0.503058 0.880045
C24   C     C_R   0.489979 0.872555 0.511538 -0.101139
C25   C     C_R   0.383765 0.335632 0.135713 -0.156896
C26   C     C_R   0.325075 0.256167 0.063486 -0.198355
C27   C     C_R   0.323791 0.257408 0.923884 -0.197874
C28   C     C_R   0.381513 0.337648 0.855734 -0.147950
C29   C     C_R   0.441869 0.419801 0.925477 0.177160
C30   C     C_R   0.442396 0.419310 0.070065 0.163527
C31   C     C_R   0.555308 0.576973 0.073937 -0.112353
C32   C     C_R   0.555384 0.576798 0.930779 -0.111302
C33   C     C_R   0.673332 0.499542 0.499799 0.893776
C34   C     C_R   0.815523 0.499263 0.376722 -0.263430
C35   C     C_R   0.769304 0.496237 0.499507 -0.079129
C36   C     C_R   0.814717 0.488887 0.622084 -0.259144
C37   C     C_R   0.906857 0.485667 0.622903 0.118169
C38   C     C_R   0.953620 0.489863 0.499279 0.060396
H1    H     H_    0.780015 0.504619 0.281952 0.161769
H2    H     H_    0.328942 0.233664 0.518053 0.118675
H3    H     H_    0.194429 0.129799 0.601886 0.149346
H4    H     H_    0.199866 0.914256 0.682349 0.141345
H5    H     H_    0.623810 0.881541 0.428890 0.144395
H6    H     H_    0.600520 0.639866 0.129677 0.145429
H7    H     H_    0.381434 0.328438 0.242501 0.203774
H8    H     H_    0.280452 0.193098 0.116323 0.156666
H9    H     H_    0.278014 0.195452 0.867885 0.161265
H10   H     H_    0.376720 0.332269 0.748819 0.203769
H11   H     H_    0.778589 0.485897 0.717010 0.163167
H12   H     H_    0.600621 0.639555 0.878880 0.144892
H13   H     H_    0.917277 0.475594 0.840450 0.141864
H14   H     H_    0.080420 0.474002 0.840534 0.145959
H15   H     H_    0.220155 0.482450 0.717265 0.173443
H16   H     H_    0.221424 0.502194 0.282281 0.170126
H17   H     H_    0.082750 0.503320 0.158174 0.145358
H18   H     H_    0.919636 0.504601 0.158034 0.141370
H19   H     H_    0.628481 0.110197 0.423285 0.145492
N1    N     N_R   0.499150 0.498800 0.142780 -0.122051
N2    N     N_R   0.499120 0.498720 0.857170 -0.116936
O1    O     O_R   0.500000 0.316780 0.614690 -0.630269
O2    O     O_R   0.499990 0.316750 0.385360 -0.637534
O3    O     O_R   0.367850 0.499980 0.614680 -0.638271
O4    O     O_R   0.367840 0.499960 0.385350 -0.646058
O5    O     O_R   0.500010 0.683250 0.614640 -0.609735
O6    O     O_R   0.500000 0.683220 0.385310 -0.608025
O7    O     O_R   0.632160 0.500040 0.614650 -0.623085
O8    O     O_R   0.632150 0.500020 0.385320 -0.624937
Zn1   Zn    Zn3+2 0.500010 0.500020 0.653130 0.947868
Zn2   Zn    Zn3+2 0.499990 0.499980 0.346870 0.938428
C39   C     C_1   0.342124 0.781171 0.709606 0.179372
N3    N     N_1   0.344723 0.700324 0.784855 -0.171601

loop_
_geom_bond_atom_site_label_1
_geom_bond_atom_site_label_2
_ccdc_geom_bond_type
C7    C13   A    
O7    Zn1   S    
C23   C24   S    
C6    C38   A    
N1    Zn2   S    
C21   H19   S    
C29   C30   A    
C16   H4    S    
N2    Zn1   S    
C12   O3    A    
C2    C38   A    
C19   C20   A    
O3    Zn1   S    
C11   C12   S    
C31   H6    S    
C23   O6    A    
C17   C18   A    
C17   C39   S    
C9    H18   S    
C31   C32   A    
C21   C22   A    
C36   H11   S    
C11   C13   A    
C32   H12   S    
C26   C27   A    
C37   C38   A    
C4    H14   S    
C18   C24   A    
C30   N1    A    
C31   N1    A    
C14   C19   A    
C23   O5    A    
C33   C35   S    
C8    H17   S    
C33   O7    A    
C34   C35   A    
C6    C7    A    
O5    Zn1   S    
O4    Zn2   S    
C5    C6    A    
C2    C34   A    
C22   C24   A    
C7    C8    A    
C15   C16   A    
C26   H8    S    
C15   H3    S    
C27   H9    S    
C3    C4    A    
C28   C29   A    
C16   C17   A    
C25   H7    S    
C5    C10   A    
C39   N3    T    
C18   C19   A    
C20   C21   A    
O1    Zn1   S    
C36   C37   A    
C13   H16   S    
C10   C11   A    
C1    O1    A    
O2    Zn2   S    
C25   C30   A    
O6    Zn2   S    
C12   O4    A    
C3    H13   S    
C14   C15   A    
C4    C5    A    
C1    C20   S    
C35   C36   A    
C32   N2    A    
O8    Zn2   S    
C25   C26   A    
C2    C9    A    
C14   H2    S    
C34   H1    S    
C10   H15   S    
C28   H10   S    
C33   O8    A    
C29   N2    A    
C3    C37   A    
C8    C9    A    
C27   C28   A    
C22   H5    S    
C1    O2    A    
