data_mof_unit_10276.cif
_audit_creation_date              2012-12-11T14:41:00-0500
_audit_creation_method            fapswitch 2.2
_symmetry_space_group_name_H-M    P1
_symmetry_Int_Tables_number       1
_space_group_crystal_system       triclinic
_cell_length_a                    6.944149
_cell_length_b                    17.958302
_cell_length_c                    18.974494
_cell_angle_alpha                 89.905617
_cell_angle_beta                  90.000332
_cell_angle_gamma                 89.999829
_cell_volume                      2366.2134332

loop_
_atom_site_label
_atom_site_type_symbol
_atom_type_description
_atom_site_fract_x
_atom_site_fract_y
_atom_site_fract_z
_atom_type_partial_charge
O1    O     O_R   0.377350 0.828520 0.186660 -0.527616
O2    O     O_R   0.622650 0.171480 0.813340 -0.520261
O3    O     O_R   0.122650 0.171480 0.686660 -0.529698
O4    O     O_R   0.877350 0.828520 0.313340 -0.527192
O5    O     O_R   0.877350 0.671480 0.313340 -0.527613
O6    O     O_R   0.122650 0.328520 0.686660 -0.520258
O7    O     O_R   0.622650 0.328520 0.813340 -0.529707
O8    O     O_R   0.377350 0.671480 0.186660 -0.527193
O9    O     O_R   0.707090 0.671930 0.178410 -0.528232
O10   O     O_R   0.292910 0.328070 0.821590 -0.539291
O11   O     O_R   0.792910 0.328070 0.678410 -0.546209
O12   O     O_R   0.207090 0.671930 0.321590 -0.532646
O13   O     O_R   0.207090 0.828070 0.321590 -0.528237
O14   O     O_R   0.792910 0.171930 0.678410 -0.539307
O15   O     O_R   0.292910 0.171930 0.821590 -0.546207
O16   O     O_R   0.707090 0.828070 0.178410 -0.532648
C1    C     C_R   0.538396 0.646196 0.161207 0.852940
C2    C     C_R   0.461075 0.353220 0.839396 0.821030
C3    C     C_R   0.960776 0.354073 0.661169 0.829580
C4    C     C_R   0.039124 0.646635 0.339037 0.818723
C5    C     C_R   0.038396 0.853805 0.338792 0.852943
C6    C     C_R   0.961075 0.146780 0.660604 0.821019
C7    C     C_R   0.460776 0.145926 0.838831 0.829593
C8    C     C_R   0.539123 0.853365 0.160964 0.818721
O17   O     O_3   0.543850 0.750000 0.294270 -0.360250
O18   O     O_3   0.456150 0.250000 0.705730 -0.361005
O19   O     O_3   0.956150 0.250000 0.794270 -0.361009
O20   O     O_3   0.043850 0.750000 0.205730 -0.360252
V1    V     V_3+5 0.818700 0.750000 0.241790 1.654584
V2    V     V_3+5 0.181300 0.250000 0.758210 1.571998
V3    V     V_3+5 0.681300 0.250000 0.741790 1.571985
V4    V     V_3+5 0.318700 0.750000 0.258210 1.654580
C9    C     C_R   0.960281 0.415348 0.607320 -0.277552
C10   C     C_R   0.034490 0.583043 0.389498 -0.300879
C11   C     C_R   0.534483 0.583733 0.109222 -0.292150
C12   C     C_R   0.464276 0.415461 0.891627 -0.289233
C13   C     C_R   0.460280 0.084652 0.892681 -0.277566
C14   C     C_R   0.534488 0.916957 0.110503 -0.300876
C15   C     C_R   0.034482 0.916269 0.390775 -0.292131
C16   C     C_R   0.964274 0.084541 0.608371 -0.289221
C17   C     C_R   0.148861 0.459806 0.424599 0.452534
C18   C     C_R   0.797969 0.525829 0.560182 0.492139
C19   C     C_R   0.334287 0.534796 0.930470 0.420995
C20   C     C_R   0.690934 0.470982 0.065454 0.453264
C21   C     C_R   0.648856 0.040195 0.075404 0.452533
C22   C     C_R   0.297967 0.974172 0.939819 0.492154
C23   C     C_R   0.834292 0.965206 0.569526 0.421009
C24   C     C_R   0.190924 0.029024 0.434539 0.453244
C25   C     C_R   0.148176 0.519453 0.376525 0.287858
C26   C     C_R   0.822919 0.472678 0.614186 0.298061
C27   C     C_R   0.335734 0.475179 0.882577 0.266085
C28   C     C_R   0.662395 0.524258 0.118978 0.299385
C29   C     C_R   0.648169 0.980549 0.123478 0.287861
C30   C     C_R   0.322914 0.027324 0.885816 0.298039
C31   C     C_R   0.835732 0.024823 0.617418 0.266146
C32   C     C_R   0.162385 0.975745 0.381016 0.299363
C33   C     C_R   0.923676 0.586785 0.451552 0.326521
C34   C     C_R   0.075174 0.412222 0.545818 0.307527
C35   C     C_R   0.585203 0.413863 0.951549 0.321599
C36   C     C_R   0.413319 0.584240 0.049521 0.325440
C37   C     C_R   0.423677 0.913215 0.048448 0.326516
C38   C     C_R   0.575174 0.087778 0.954183 0.307530
C39   C     C_R   0.085206 0.086138 0.548450 0.321606
C40   C     C_R   0.913319 0.915763 0.450475 0.325428
C41   C     C_R   0.921137 0.526131 0.500302 -0.211647
C42   C     C_R   0.048646 0.465039 0.490036 -0.233615
C43   C     C_R   0.573604 0.471219 0.003863 -0.200376
C44   C     C_R   0.438705 0.530485 0.994757 -0.225282
C45   C     C_R   0.421137 0.973869 0.999699 -0.211651
C46   C     C_R   0.548645 0.034961 0.009966 -0.233613
C47   C     C_R   0.073603 0.028785 0.496133 -0.200358
C48   C     C_R   0.938705 0.969519 0.505239 -0.225293
Cl1   Cl    Cl    0.264113 0.346255 0.543425 -0.579095
Cl2   Cl    Cl    0.822308 0.674309 0.473284 -0.542079
Cl3   Cl    Cl    0.217149 0.647315 0.048857 -0.541410
Cl4   Cl    Cl    0.733901 0.334733 0.962342 -0.559404
Cl5   Cl    Cl    0.764112 0.153744 0.956577 -0.579108
Cl6   Cl    Cl    0.322314 0.825691 0.026714 -0.542076
Cl7   Cl    Cl    0.717148 0.852688 0.451140 -0.541417
Cl8   Cl    Cl    0.233939 0.165261 0.537667 -0.559406
O21   O     O_3   0.732490 0.482507 0.678752 -0.561944
C49   C     C_3   0.535782 0.463546 0.674268 -0.107347
H1    H     H_    0.506868 0.417268 0.636963 0.160230
H2    H     H_    0.447906 0.513200 0.661201 0.171254
H3    H     H_    0.487701 0.444583 0.726732 0.149558
O22   O     O_3   0.282124 0.519048 0.322281 -0.538086
C50   C     C_3   0.190346 0.502631 0.257947 -0.181283
H4    H     H_    0.064321 0.538814 0.248022 0.158910
H5    H     H_    0.149430 0.443083 0.255330 0.131812
H6    H     H_    0.292610 0.513449 0.214424 0.139056
O23   O     O_3   0.765311 0.520298 0.181436 -0.563865
C51   C     C_3   0.713142 0.455821 0.219916 -0.213564
H7    H     H_    0.816168 0.410099 0.208829 0.169715
H8    H     H_    0.563764 0.436063 0.209529 0.134746
H9    H     H_    0.723234 0.468655 0.276989 0.163315
O24   O     O_3   0.222466 0.478642 0.822513 -0.561880
C52   C     C_3   0.029064 0.464159 0.841062 -0.119750
H10   H     H_    0.963310 0.512472 0.868480 0.164611
H11   H     H_    0.014781 0.413124 0.874003 0.158245
H12   H     H_    0.945606 0.454515 0.792182 0.168393
O25   O     O_3   0.232472 0.017497 0.821251 -0.561959
C53   C     C_3   0.035770 0.036465 0.825739 -0.107328
H13   H     H_    0.006873 0.082744 0.863044 0.160236
H14   H     H_    0.947883 0.986815 0.838808 0.171249
H15   H     H_    0.987685 0.055431 0.773275 0.149572
O26   O     O_3   0.782108 0.980955 0.177726 -0.538091
C54   C     C_3   0.690318 0.997372 0.242057 -0.181283
H16   H     H_    0.564305 0.961182 0.251982 0.158919
H17   H     H_    0.649378 0.056918 0.244670 0.131809
H18   H     H_    0.792581 0.986562 0.285583 0.139051
O27   O     O_3   0.265290 0.979707 0.318556 -0.563876
C55   C     C_3   0.213103 0.044181 0.280075 -0.213530
H19   H     H_    0.316141 0.089903 0.291152 0.169697
H20   H     H_    0.063733 0.063944 0.290473 0.134744
H21   H     H_    0.223159 0.031343 0.223003 0.163331
O28   O     O_3   0.722506 0.021346 0.677492 -0.561881
C56   C     C_3   0.529086 0.035823 0.658963 -0.119980
H22   H     H_    0.463401 0.987564 0.631461 0.164588
H23   H     H_    0.514727 0.086915 0.626123 0.158327
H24   H     H_    0.445618 0.045345 0.707846 0.168466
O29   O     O_3   0.250186 0.396671 0.405632 -0.508153
C57   C     C_3   0.118196 0.342991 0.380385 -0.040438
H25   H     H_    0.023519 0.365448 0.338124 0.044674
H26   H     H_    0.027035 0.320642 0.423666 0.172617
H27   H     H_    0.200528 0.295738 0.357882 0.165952
O30   O     O_3   0.650253 0.576976 0.567349 -0.511474
C58   C     C_3   0.496142 0.555580 0.522940 -0.123439
H28   H     H_    0.453512 0.496595 0.531392 0.120627
H29   H     H_    0.531613 0.563987 0.466410 0.175022
H30   H     H_    0.369282 0.590801 0.535187 0.170509
O31   O     O_3   0.229054 0.597389 0.912726 -0.518665
C59   C     C_3   0.349872 0.646244 0.874781 -0.007795
H31   H     H_    0.398962 0.620765 0.824438 0.115150
H32   H     H_    0.475985 0.663849 0.906958 0.144247
H33   H     H_    0.266682 0.697075 0.861424 0.182585
O32   O     O_3   0.833842 0.418367 0.075122 -0.520957
C60   C     C_3   0.012698 0.450492 0.057178 -0.095897
H34   H     H_    0.056081 0.493438 0.096171 0.151237
H35   H     H_    0.010083 0.474703 0.003173 0.132265
H36   H     H_    0.124287 0.406298 0.057819 0.154671
O33   O     O_3   0.750179 0.103330 0.094372 -0.508155
C61   C     C_3   0.618186 0.157011 0.119615 -0.040433
H37   H     H_    0.523497 0.134554 0.161872 0.044671
H38   H     H_    0.527038 0.179363 0.076332 0.172630
H39   H     H_    0.700515 0.204262 0.142122 0.165943
O34   O     O_3   0.150250 0.923025 0.932652 -0.511470
C62   C     C_3   0.996142 0.944422 0.977062 -0.123438
H40   H     H_    0.953521 0.003408 0.968615 0.120628
H41   H     H_    0.031612 0.936007 0.033591 0.175020
H42   H     H_    0.869276 0.909205 0.964810 0.170507
O35   O     O_3   0.729074 0.902610 0.587271 -0.518656
C63   C     C_3   0.849911 0.853755 0.625209 -0.007764
H43   H     H_    0.899022 0.879233 0.675550 0.115155
H44   H     H_    0.976011 0.836152 0.593025 0.144244
H45   H     H_    0.766730 0.802923 0.638569 0.182582
O36   O     O_3   0.333806 0.081647 0.424862 -0.520956
C64   C     C_3   0.512685 0.049534 0.442798 -0.095842
H46   H     H_    0.556017 0.006550 0.403831 0.151219
H47   H     H_    0.510131 0.025370 0.496825 0.132282
H48   H     H_    0.624284 0.093727 0.442103 0.154648

loop_
_geom_bond_atom_site_label_1
_geom_bond_atom_site_label_2
_ccdc_geom_bond_type
C20   O32   S    
C50   H4    S    
O30   C58   S    
C38   Cl5   S    
O27   C55   S    
O14   V3    S    
C12   C35   A    
C55   H20   S    
O21   C49   S    
O5    C4    A    
C15   C40   A    
C60   H35   S    
O11   C3    A    
C9    C34   A    
C16   C39   A    
O36   C64   S    
C62   H41   S    
C56   H23   S    
C31   O28   S    
O28   C56   S    
C38   C46   A    
C53   H15   S    
C17   O29   S    
C22   C45   A    
C30   O25   S    
C35   C43   A    
C29   O26   S    
C34   C42   A    
C64   H46   S    
C62   H40   S    
C59   H31   S    
C28   O23   S    
C18   C41   A    
C8    C14   S    
O35   C63   S    
C32   O27   S    
O4    V1    S    
O9    V1    S    
C27   O24   S    
C14   C37   A    
C4    C10   S    
C20   C28   A    
O17   V4    S    
O15   C7    A    
C24   O36   S    
O11   V3    S    
O18   V3    S    
O16   C8    A    
O12   V4    S    
O19   V2    S    
C21   O33   S    
C54   H17   S    
C61   H39   S    
O12   C4    A    
C45   C46   A    
C17   C25   A    
C55   H19   S    
C52   H11   S    
C52   H10   S    
O5    V1    S    
C39   Cl8   S    
O17   V1    S    
C60   H36   S    
O7    V3    S    
O19   V3    S    
C43   C44   A    
O8    V4    S    
O25   C53   S    
O20   V4    S    
C62   H42   S    
C3    C9    S    
C56   H24   S    
O23   C51   S    
C18   O30   S    
O22   C50   S    
C19   C44   A    
O16   V1    S    
C7    C13   S    
O13   V4    S    
C34   Cl1   S    
C51   H9    S    
O2    V3    S    
C33   Cl2   S    
O3    V2    S    
C58   H29   S    
O6    C3    A    
C10   C33   A    
O10   V2    S    
C15   C32   A    
C5    C15   S    
C63   H45   S    
C37   Cl6   S    
C54   H16   S    
O7    C2    A    
C6    C16   S    
O24   C52   S    
C22   C30   A    
C51   H8    S    
O13   C5    A    
C53   H14   S    
O29   C57   S    
C12   C27   A    
C18   C26   A    
C59   H32   S    
C13   C30   A    
O9    C1    A    
O6    V2    S    
C39   C47   A    
O18   V2    S    
C64   H48   S    
C49   H2    S    
C50   H5    S    
C54   H18   S    
C61   H38   S    
C24   C47   A    
C57   H26   S    
C58   H28   S    
O2    C7    A    
C52   H12   S    
O15   V2    S    
C23   C31   A    
O34   C62   S    
C63   H44   S    
C37   C45   A    
C24   C32   A    
O20   V1    S    
C10   C25   A    
C21   C46   A    
C25   O22   S    
C33   C41   A    
O32   C60   S    
C20   C43   A    
C16   C31   A    
C17   C42   A    
C49   H3    S    
C60   H34   S    
C36   Cl3   S    
O8    C1    A    
O14   C6    A    
C57   H27   S    
C19   O31   S    
C9    C26   A    
C58   H30   S    
C47   C48   A    
C41   C42   A    
O33   C61   S    
O4    C5    A    
C19   C27   A    
C22   O34   S    
C14   C29   A    
O10   C2    A    
C59   H33   S    
C51   H7    S    
C40   Cl7   S    
O1    V4    S    
C26   O21   S    
C53   H13   S    
C23   C48   A    
C23   O35   S    
C21   C29   A    
C63   H43   S    
C36   C44   A    
O1    C8    A    
C64   H47   S    
C49   H1    S    
O26   C54   S    
C50   H6    S    
C11   C28   A    
C13   C38   A    
C61   H37   S    
C11   C36   A    
O3    C6    A    
C1    C11   S    
C57   H25   S    
C56   H22   S    
C2    C12   S    
C35   Cl4   S    
C55   H21   S    
O31   C59   S    
C40   C48   A    
