data_mof_unit_9001.cif
_audit_creation_date              2012-12-10T17:48:48-0500
_audit_creation_method            fapswitch 2.2
_symmetry_space_group_name_H-M    P1
_symmetry_Int_Tables_number       1
_space_group_crystal_system       triclinic
_cell_length_a                    10.750959
_cell_length_b                    14.698663
_cell_length_c                    14.957641
_cell_angle_alpha                 64.167925
_cell_angle_beta                  105.223047
_cell_angle_gamma                 102.52851
_cell_volume                      2038.48499539

loop_
_atom_site_label
_atom_site_type_symbol
_atom_type_description
_atom_site_fract_x
_atom_site_fract_y
_atom_site_fract_z
_atom_type_partial_charge
C1    C     C_R   0.481582 0.119799 0.312660 0.769409
C2    C     C_3   0.877270 0.000504 0.497971 0.019441
C3    C     C_3   0.890495 0.919585 0.461259 -0.396936
C4    C     C_3   0.958582 0.976639 0.607897 0.222306
C5    C     C_R   0.483579 0.186631 0.205961 -0.057196
C6    C     C_R   0.549397 0.810906 0.794822 -0.037135
C7    C     C_R   0.446999 0.214085 0.029890 -0.212977
C8    C     C_R   0.442895 0.148875 0.130312 -0.202554
C9    C     C_R   0.531688 0.289076 0.180506 -0.257345
C10   C     C_R   0.534243 0.357044 0.079734 0.089267
C11   C     C_R   0.489914 0.317993 0.003841 0.154686
C12   C     C_R   0.260084 0.000215 0.499539 0.845058
C13   C     C_R   0.573222 0.463159 0.052060 0.070997
C14   C     C_R   0.553725 0.529876 0.947909 0.062143
C15   C     C_R   0.518122 0.487243 0.874799 -0.221107
C16   C     C_R   0.487633 0.383076 0.902705 -0.225472
C17   C     C_R   0.628563 0.505090 0.124809 -0.228502
C18   C     C_R   0.647707 0.609418 0.097481 -0.236664
C19   C     C_R   0.614077 0.675583 0.996859 0.172366
C20   C     C_R   0.569065 0.636772 0.920782 0.085437
C21   C     C_R   0.625404 0.780501 0.971446 -0.216247
C22   C     C_R   0.593381 0.847883 0.870908 -0.189734
C23   C     C_R   0.523967 0.879854 0.687485 0.859261
C24   C     C_R   0.536207 0.706250 0.820360 -0.291550
C25   C     C_R   0.751651 0.292745 0.646301 -0.335260
C26   C     C_R   0.702012 0.207649 0.623635 0.040876
C27   C     C_R   0.508409 0.283027 0.524551 0.221404
C28   C     C_R   0.546849 0.362628 0.561322 -0.023806
C29   C     C_R   0.676251 0.372375 0.611929 0.138229
C30   C     C_R   0.467611 0.439375 0.539860 0.069577
C31   C     C_R   0.526046 0.536948 0.537886 0.060421
C32   C     C_R   0.658870 0.546502 0.581862 -0.239992
C33   C     C_R   0.730245 0.463363 0.623649 -0.191722
C34   C     C_R   0.739507 0.000221 0.499093 0.824184
C35   C     C_R   0.331627 0.420247 0.525156 -0.231995
C36   C     C_R   0.255508 0.499724 0.478869 -0.212656
C37   C     C_R   0.313021 0.599780 0.457247 0.170507
C38   C     C_R   0.447622 0.619520 0.493095 -0.026821
C39   C     C_R   0.235499 0.679485 0.405981 -0.318203
C40   C     C_R   0.288858 0.777498 0.396574 0.063242
C41   C     C_R   0.495007 0.720495 0.484155 0.003266
C42   C     C_3   0.080474 0.107520 0.431719 -0.518731
C43   C     C_3   0.933595 0.107991 0.425078 -0.115063
C44   C     C_3   0.031724 0.925887 0.453214 -0.416088
C45   C     C_3   0.102974 0.971456 0.608900 0.294689
C46   C     C_3   0.121959 0.999417 0.499519 0.013760
Cu1   Cu    Cu3+1 0.465900 0.918260 0.475680 0.926020
Cu2   Cu    Cu3+1 0.534100 0.081740 0.524320 0.918690
H1    H     H_    0.104506 0.133693 0.355605 0.188079
H2    H     H_    0.062460 0.848571 0.488384 0.180596
H3    H     H_    0.856176 0.842064 0.512994 0.182760
H4    H     H_    0.458146 0.353666 0.844255 0.148301
H5    H     H_    0.497969 0.680690 0.760177 0.162738
H6    H     H_    0.604937 0.928706 0.852690 0.151441
H7    H     H_    0.687088 0.638371 0.155901 0.139281
H8    H     H_    0.414116 0.183678 0.972268 0.134623
H9    H     H_    0.407417 0.069241 0.148556 0.157357
H10   H     H_    0.564192 0.314282 0.240915 0.160854
H11   H     H_    0.137155 0.162794 0.463757 0.147463
H12   H     H_    0.513648 0.532001 0.794977 0.150875
H13   H     H_    0.659889 0.459349 0.203767 0.133249
H14   H     H_    0.660040 0.810471 0.029341 0.130861
H15   H     H_    0.830712 0.472333 0.660294 0.138205
H16   H     H_    0.592947 0.739249 0.518242 0.125162
H17   H     H_    0.226724 0.837480 0.362829 0.120538
H18   H     H_    0.150948 0.482612 0.461634 0.137314
H19   H     H_    0.849347 0.296770 0.689501 0.138892
H20   H     H_    0.760514 0.145956 0.652208 0.124330
H21   H     H_    0.924764 0.165348 0.452431 0.151241
H22   H     H_    0.708847 0.616353 0.587612 0.131072
H23   H     H_    0.283328 0.343435 0.551447 0.133200
H24   H     H_    0.132856 0.665268 0.377329 0.132399
H25   H     H_    0.037524 0.954932 0.371927 0.169333
H26   H     H_    0.827103 0.931625 0.386065 0.170156
H27   H     H_    0.158160 0.036079 0.628186 0.069130
H28   H     H_    0.957121 0.044690 0.623041 0.005567
N1    N     N_R   0.585360 0.204570 0.560800 -0.188351
N2    N     N_R   0.414550 0.795430 0.439160 -0.181651
O1    O     O_R   0.455060 0.022100 0.338110 -0.584832
O2    O     O_R   0.512640 0.160150 0.379180 -0.601006
O3    O     O_R   0.288900 0.930980 0.479450 -0.601592
O4    O     O_R   0.346480 0.069030 0.520520 -0.609689
O5    O     O_R   0.487360 0.839850 0.620820 -0.584652
O6    O     O_R   0.544940 0.977900 0.661890 -0.585113
O7    O     O_R   0.653520 0.930970 0.479480 -0.588605
O8    O     O_R   0.711100 0.069020 0.520550 -0.611123
O9    O     O_3   0.902766 0.886592 0.679765 -0.599630
C47   C     C_3   0.911187 0.898284 0.770354 0.066938
H29   H     H_    0.835414 0.945260 0.758961 0.142745
H30   H     H_    0.008496 0.935184 0.794368 0.147077
C48   C     C_3   0.888300 0.794640 0.855621 -0.789301
H31   H     H_    0.974886 0.753560 0.883114 0.222386
H32   H     H_    0.870268 0.804735 0.920260 0.211939
H33   H     H_    0.803864 0.747988 0.829195 0.264952
C49   C     C_3   0.398437 0.296279 0.432375 -0.375808
C50   C     C_3   0.425880 0.393670 0.339412 -0.366010
C51   C     C_3   0.323059 0.398804 0.245345 -0.845797
H34   H     H_    0.317009 0.330620 0.229668 0.254246
H35   H     H_    0.226638 0.403222 0.256350 0.248330
H36   H     H_    0.348607 0.467629 0.178903 0.257829
H37   H     H_    0.426795 0.462739 0.351954 0.235336
H38   H     H_    0.523024 0.395967 0.325674 0.211119
H39   H     H_    0.380723 0.233370 0.409869 0.258337
H40   H     H_    0.303156 0.293567 0.447634 0.154250
C52   C     C_3   0.859923 0.141800 0.313420 -0.348067
C53   C     C_3   0.887041 0.257161 0.252940 -0.364912
C54   C     C_3   0.847757 0.284961 0.139251 -0.827570
H41   H     H_    0.914483 0.256538 0.114355 0.243578
H42   H     H_    0.747282 0.250719 0.120081 0.269474
H43   H     H_    0.853125 0.368980 0.097875 0.247740
H44   H     H_    0.831493 0.297607 0.274503 0.213295
H45   H     H_    0.991804 0.284089 0.270157 0.220955
H46   H     H_    0.888278 0.100145 0.276505 0.209551
H47   H     H_    0.753608 0.122596 0.310084 0.179674
O10   O     O_3   0.165738 0.886385 0.686227 -0.587974
C55   C     C_3   0.102707 0.788258 0.695789 0.167716
H48   H     H_    0.015171 0.786813 0.638625 0.161467
H49   H     H_    0.072285 0.749535 0.769966 0.180630
C56   C     C_3   0.196634 0.724399 0.696021 -0.876406
H50   H     H_    0.277843 0.715384 0.761392 0.262335
H51   H     H_    0.146173 0.647757 0.703443 0.201831
H52   H     H_    0.234881 0.760541 0.624906 0.277861

loop_
_geom_bond_atom_site_label_1
_geom_bond_atom_site_label_2
_ccdc_geom_bond_type
O9    C47   S    
C50   H38   S    
C15   H12   S    
C27   C49   S    
C49   C50   S    
C25   H19   S    
Cu1   O1    S    
C51   H34   S    
C7    C8    A    
C22   H6    S    
C4    O9    S    
C53   H45   S    
C45   C46   S    
C7    C11   A    
C23   O5    A    
C30   C35   A    
C1    C5    S    
Cu1   O7    S    
C52   H46   S    
C36   C37   A    
C19   C21   A    
C18   C19   A    
C43   C52   S    
C30   C31   A    
C36   H18   S    
C53   C54   S    
O10   C55   S    
C6    C22   A    
C29   C33   A    
C55   H48   S    
C9    H10   S    
C34   O8    A    
C3    H26   S    
C17   H13   S    
C20   C24   A    
C44   C46   S    
C54   H41   S    
Cu1   O5    S    
C9    C10   A    
C33   H15   S    
C4    C45   S    
C2    C34   S    
C35   H23   S    
C43   H21   S    
C21   C22   A    
C54   H42   S    
C7    H8    S    
C51   H35   S    
C49   H39   S    
C53   H44   S    
C56   H51   S    
C25   C29   A    
C3    C44   S    
C26   N1    A    
C23   O6    A    
C14   C20   A    
C52   H47   S    
C50   H37   S    
C38   C41   A    
C12   C46   S    
C41   N2    A    
C3    H3    S    
C32   H22   S    
C24   H5    S    
Cu2   O6    S    
C34   O7    A    
Cu2   N1    S    
C2    C4    S    
C5    C9    A    
C37   C38   A    
C8    H9    S    
C48   H32   S    
C11   C16   A    
C45   O10   S    
Cu1   Cu2   S    
C47   C48   S    
C2    C43   S    
C39   H24   S    
C6    C24   A    
C50   C51   S    
C17   C18   A    
C12   O4    A    
C21   H14   S    
C18   H7    S    
C55   H49   S    
C47   H30   S    
C40   H17   S    
C42   C46   S    
C1    O1    A    
C54   H43   S    
C40   N2    A    
C42   C43   S    
C48   H31   S    
C51   H36   S    
C49   H40   S    
C56   H52   S    
C44   H2    S    
C28   C29   A    
C31   C32   A    
C16   H4    S    
C27   N1    A    
C10   C13   A    
C42   H11   S    
C5    C8    A    
C56   H50   S    
C55   C56   S    
C52   C53   S    
C41   H16   S    
C31   C38   A    
C13   C17   A    
C45   H27   S    
C26   H20   S    
C32   C33   A    
Cu2   O2    S    
C19   C20   A    
C28   C30   A    
C2    C3    S    
C25   C26   A    
C37   C39   A    
C48   H33   S    
C6    C23   S    
Cu2   O4    S    
C12   O3    A    
Cu2   O8    S    
Cu1   O3    S    
C44   H25   S    
C4    H28   S    
C10   C11   A    
C42   H1    S    
C39   C40   A    
C47   H29   S    
C27   C28   A    
C1    O2    A    
C14   C15   A    
C35   C36   A    
Cu1   N2    S    
C13   C14   A    
C15   C16   A    
