data_mof_unit_56643.cif
_audit_creation_date              2013-03-05T15:58:19-0500
_audit_creation_method            fapswitch 2.2
_symmetry_space_group_name_H-M    P1
_symmetry_Int_Tables_number       1
_space_group_crystal_system       triclinic
_cell_length_a                    14.986121
_cell_length_b                    15.02076
_cell_length_c                    15.164194
_cell_angle_alpha                 109.503069
_cell_angle_beta                  109.149846
_cell_angle_gamma                 108.724274
_cell_volume                      2660.70564748

loop_
_atom_site_label
_atom_site_type_symbol
_atom_site_description
_atom_site_fract_x
_atom_site_fract_y
_atom_site_fract_z
_atom_type_partial_charge
C1    C     C_R   0.972857 0.247874 0.061447 -0.091301
C2    C     C_R   0.093298 0.805892 0.008863 -0.103509
H1    H     H_    0.931003 0.226043 0.102527 0.095706
H2    H     H_    0.154959 0.835692 0.988715 0.105075
N1    N     N_R   0.947560 0.293820 0.002910 -0.043601
N2    N     N_R   0.052440 0.706180 0.997090 -0.046416
C3    C     C_R   0.313636 0.756549 0.223398 -0.113046
C4    C     C_R   0.696788 0.203868 0.785653 -0.130358
H3    H     H_    0.378828 0.778447 0.205264 0.149211
H4    H     H_    0.641814 0.173105 0.812950 0.144128
N3    N     N_R   0.208960 0.706170 0.152110 -0.048226
N4    N     N_R   0.791040 0.293830 0.847890 -0.043783
C5    C     C_R   0.214103 0.410546 0.909272 -0.147267
C6    C     C_R   0.775466 0.592244 0.028235 -0.121708
H5    H     H_    0.188456 0.328208 0.854061 0.138259
H6    H     H_    0.794144 0.675759 0.063435 0.108000
N5    N     N_R   0.154330 0.443160 0.946140 -0.044550
N6    N     N_R   0.845670 0.556840 0.053860 -0.039886
C7    C     C_R   0.007409 0.586797 0.303926 -0.148978
C8    C     C_R   0.941151 0.410903 0.687394 -0.093590
H7    H     H_    0.029357 0.667520 0.359227 0.121028
H8    H     H_    0.901017 0.329454 0.622598 0.111228
N7    N     N_R   0.002190 0.556820 0.208880 -0.041941
N8    N     N_R   0.997810 0.443180 0.791120 -0.040867
C9    C     C_R   0.303170 0.590977 0.001209 -0.112964
C10   C     C_R   0.686064 0.410571 0.936312 -0.145754
H9    H     H_    0.358442 0.674142 0.030237 0.142394
H10   H     H_    0.622926 0.327586 0.886890 0.139511
N9    N     N_R   0.210550 0.556810 0.002910 -0.047015
N10   N     N_R   0.789450 0.443190 0.997090 -0.042100
C11   C     C_R   0.926728 0.405976 0.215013 -0.121264
C12   C     C_R   0.020577 0.591132 0.781151 -0.118819
H11   H     H_    0.878520 0.322557 0.189650 0.111996
H12   H     H_    0.042678 0.674034 0.808326 0.139120
N11   N     N_R   0.945970 0.443180 0.152110 -0.042331
N12   N     N_R   0.054030 0.556820 0.847890 -0.048353
C13   C     C_R   0.218109 0.740739 0.309566 -0.118699
C14   C     C_R   0.787030 0.210368 0.694015 -0.122751
H13   H     H_    0.194287 0.738977 0.368605 0.112406
H14   H     H_    0.815104 0.193221 0.637979 0.107754
N13   N     N_R   0.151530 0.706170 0.208880 -0.047439
N14   N     N_R   0.848470 0.293830 0.791120 -0.042928
C15   C     C_R   0.078236 0.266283 0.986878 -0.150677
C16   C     C_R   0.001428 0.802263 0.097339 -0.138651
H15   H     H_    0.148027 0.282380 0.977138 0.133639
H16   H     H_    0.981897 0.826460 0.160553 0.112611
N15   N     N_R   0.004980 0.293810 0.946140 -0.042383
N16   N     N_R   0.995020 0.706190 0.053860 -0.041124
C17   C     C_R   0.056785 0.230279 0.054545 0.061349
C18   C     C_R   0.061657 0.868112 0.070516 0.084105
C19   C     C_R   0.320777 0.781812 0.323772 0.053214
C20   C     C_R   0.691442 0.151172 0.687704 0.067508
C21   C     C_R   0.306090 0.501122 0.942622 0.054909
C22   C     C_R   0.675210 0.502208 0.955074 0.054056
C23   C     C_R   0.963841 0.493864 0.309997 0.068808
C24   C     C_R   0.954357 0.502548 0.678404 0.058094
C25   C     C_R   0.169648 0.043548 0.087253 -0.217943
C26   C     C_R   0.055056 0.132537 0.155108 -0.206412
C27   C     C_R   0.184210 0.110118 0.820024 -0.223585
C28   C     C_R   0.891938 0.955091 0.290767 -0.214248
H17   H     H_    0.130617 0.076413 0.735927 0.193185
H18   H     H_    0.911811 0.971248 0.371260 0.208818
Ni1   Ni    Ni4+2 0.869690 0.369690 0.000000 0.231655
Ni2   Ni    Ni4+2 0.130310 0.630310 0.000000 0.225062
Ni3   Ni    Ni4+2 0.001390 0.369680 0.869810 0.228848
Ni4   Ni    Ni4+2 0.998610 0.630320 0.130190 0.218456
C29   C     C_R   0.142354 0.111530 0.889923 -0.232257
C30   C     C_R   0.973500 0.005585 0.271447 -0.241306
H19   H     H_    0.445784 0.215153 0.996204 0.162338
H20   H     H_    0.681922 0.807759 0.035894 0.171279
H21   H     H_    0.566608 0.143894 0.977812 0.194304
H22   H     H_    0.190579 0.967722 0.915119 0.159227
C31   C     C_R   0.648548 0.305816 0.108803 -0.184284
C32   C     C_R   0.225838 0.855821 0.828030 -0.114838
H23   H     H_    0.619554 0.338642 0.059363 0.135808
H24   H     H_    0.310896 0.900106 0.886262 0.179117
C33   C     C_R   0.716286 0.373670 0.218402 -0.106790
C34   C     C_R   0.182960 0.755213 0.740969 -0.155570
H25   H     H_    0.740886 0.458953 0.251781 0.137950
H26   H     H_    0.233810 0.719275 0.732261 0.165655
C35   C     C_R   0.762268 0.334274 0.282304 0.074124
C36   C     C_R   0.072711 0.699748 0.667549 0.029889
C37   C     C_R   0.729553 0.223477 0.237357 -0.204131
C38   C     C_R   0.005709 0.744101 0.679467 -0.169256
H27   H     H_    0.765768 0.192452 0.285348 0.158150
H28   H     H_    0.919690 0.698127 0.623990 0.172670
C39   C     C_R   0.656323 0.154451 0.127733 0.300671
C40   C     C_R   0.045979 0.838508 0.771554 0.263915
C41   C     C_R   0.619134 0.196415 0.063199 -0.190564
C42   C     C_R   0.157000 0.895746 0.843797 -0.206358
C43   C     C_R   0.857452 0.416444 0.480478 -0.231781
C44   C     C_R   0.033401 0.575825 0.497396 -0.208580
H29   H     H_    0.791569 0.353271 0.475066 0.153876
H30   H     H_    0.101685 0.638824 0.505196 0.139797
C45   C     C_R   0.939560 0.505723 0.580037 0.056294
C46   C     C_R   0.951241 0.490952 0.398673 0.059316
C47   C     C_R   0.021368 0.589330 0.584908 0.069437
C48   C     C_R   0.858810 0.412558 0.387931 0.040698
H31   H     H_    0.056715 0.081419 0.858128 0.181009
H32   H     H_    0.054476 0.062466 0.337681 0.178086
H33   H     H_    0.462051 0.468921 0.074840 0.139892
H34   H     H_    0.512294 0.535126 0.794518 0.145836
H35   H     H_    0.374745 0.218311 0.120240 0.155470
H36   H     H_    0.827162 0.890434 0.000522 0.173773
C49   C     C_R   0.209911 0.150713 0.999595 0.098706
C50   C     C_R   0.951382 0.980436 0.166737 0.094908
C51   C     C_R   0.361656 0.186855 0.966388 -0.269059
C52   C     C_R   0.762993 0.862348 0.102164 -0.238565
C53   C     C_R   0.134798 0.923135 0.432786 -0.127701
C54   C     C_R   0.897420 0.044828 0.606832 -0.099818
H37   H     H_    0.075736 0.927323 0.373198 0.133900
H38   H     H_    0.961556 0.048279 0.669105 0.144867
C55   C     C_R   0.236069 0.948798 0.440086 -0.156646
C56   C     C_R   0.792334 0.993746 0.588732 -0.132977
H39   H     H_    0.254808 0.974494 0.386629 0.140751
H40   H     H_    0.777463 0.960601 0.639045 0.163699
C57   C     C_R   0.308480 0.930796 0.508904 0.027099
C58   C     C_R   0.709217 0.996047 0.514025 0.040221
C59   C     C_R   0.283248 0.898152 0.578414 0.258922
C60   C     C_R   0.730083 0.041073 0.450107 0.275497
C61   C     C_R   0.183878 0.878405 0.573957 -0.218493
C62   C     C_R   0.835735 0.091534 0.468602 -0.270691
H41   H     H_    0.163938 0.853746 0.626632 0.176168
H42   H     H_    0.853309 0.131548 0.424117 0.166468
C63   C     C_R   0.108310 0.887033 0.499001 0.255120
C64   C     C_R   0.919787 0.096134 0.548944 0.216898
C65   C     C_R   0.501110 0.032025 0.589557 -0.145266
C66   C     C_R   0.515540 0.880632 0.435191 -0.147282
H43   H     H_    0.493915 0.091255 0.647529 0.178107
H44   H     H_    0.520916 0.823613 0.373324 0.168327
C67   C     C_R   0.600798 0.049831 0.597560 0.047459
C68   C     C_R   0.415260 0.865365 0.425535 0.053950
C69   C     C_R   0.608668 0.973745 0.519070 0.040303
C70   C     C_R   0.408474 0.941333 0.505665 0.051215
C71   C     C_R   0.293992 0.144906 0.857094 0.432431
C72   C     C_R   0.785451 0.885638 0.207186 0.427522
C73   C     C_R   0.037916 0.033065 0.146692 0.047505
C74   C     C_R   0.163031 0.126512 0.066755 0.069735
H45   H     H_    0.224976 0.016438 0.074383 0.123306
H46   H     H_    0.016836 0.170778 0.191362 0.132859
C75   C     C_R   0.320781 0.190222 0.037294 -0.200382
C76   C     C_R   0.845544 0.909203 0.081909 -0.149979
C77   C     C_R   0.092576 0.983744 0.106684 0.068989
C78   C     C_R   0.098906 0.168488 0.097126 0.063624
C79   C     C_3   0.478431 0.406608 0.919379 -0.154703
C80   C     C_3   0.493556 0.598434 0.950303 -0.126812
C81   C     C_3   0.401260 0.423532 0.838236 -0.085254
C82   C     C_3   0.570054 0.580444 0.030931 -0.089354
H47   H     H_    0.329938 0.359181 0.759568 0.182072
H48   H     H_    0.641182 0.641881 0.110515 0.159058
H49   H     H_    0.476710 0.330285 0.910313 0.153860
H50   H     H_    0.495308 0.675738 0.960554 0.166909
C83   C     C_3   0.398387 0.501809 0.931398 0.136673
C84   C     C_3   0.574113 0.502652 0.938369 0.118450
C85   C     C_3   0.474076 0.484319 0.011769 -0.152930
C86   C     C_3   0.499089 0.520219 0.857277 -0.164965
I1    I     I_    0.604731 0.988085 0.055648 -0.383175
I2    I     I_    0.930273 0.869891 0.806828 -0.491443
I3    I     I_    0.951896 0.835539 0.480312 -0.433396
I4    I     I_    0.080385 0.186094 0.586467 -0.478000
I5    I     I_    0.389531 0.870655 0.685499 -0.413400
I6    I     I_    0.610166 0.054563 0.341319 -0.417996
N17   N     N_R   0.335954 0.134987 0.783697 0.217853
O1    O     O_R   0.285254 0.130897 0.693268 -0.400841
O2    O     O_R   0.426737 0.132997 0.807934 -0.476168
N18   N     N_R   0.700703 0.841136 0.229495 0.222557
O3    O     O_R   0.721687 0.828136 0.313226 -0.399908
O4    O     O_R   0.602127 0.814993 0.167364 -0.419318

loop_
_geom_bond_atom_site_label_1
_geom_bond_atom_site_label_2
_geom_bond_distance
_ccdc_geom_bond_type
C24   C45   1.453879 S    
C37   C39   1.401617 A    
C21   C83   1.445233 S    
N5    N9    1.408766 A    
C6    N6    1.330281 A    
C2    H2    1.076382 S    
N17   O1    1.300639 A    
C65   C70   1.367976 A    
C8    C24   1.385936 A    
C59   I5    2.125491 S    
C57   C59   1.407845 A    
C52   C76   1.398128 A    
H19   C51   1.062178 S    
C3    N3    1.334588 A    
N1    N15   1.402701 A    
N1    Ni1   1.875139 S    
N8    N12   1.408641 A    
C32   H24   1.082588 S    
C1    N1    1.328241 A    
C12   N12   1.312437 A    
N7    Ni4   1.876517 S    
N17   O2    1.300881 A    
C9    C21   1.369548 A    
C52   C72   1.404530 A    
C53   H37   1.073709 S    
C80   C82   1.543402 S    
C49   C75   1.398882 A    
C13   C19   1.370636 A    
C34   H26   1.082632 S    
C14   C20   1.373784 A    
C35   C48   1.473507 S    
H33   C85   1.111190 S    
C26   H46   1.080364 S    
C17   C78   1.478428 S    
H35   C75   1.083204 S    
C44   C46   1.375125 A    
C25   H45   1.077638 S    
C28   H18   1.074613 S    
N2    Ni2   1.875138 S    
N4    N14   1.402826 A    
C2    C18   1.401544 A    
C54   H38   1.076145 S    
C27   C29   1.395404 A    
C49   C74   1.488473 S    
N11   Ni1   1.898832 S    
C8    N8    1.334304 A    
C16   H16   1.075375 S    
C46   C48   1.417229 A    
N14   Ni3   1.896191 S    
C51   C71   1.400704 A    
C11   H11   1.074525 S    
N6    N10   1.408765 A    
C82   C85   1.533072 S    
C40   I2    2.116604 S    
C83   C85   1.529426 S    
C15   N15   1.332232 A    
C28   C72   1.400949 A    
C84   C86   1.531639 S    
C60   I6    2.122261 S    
C33   H25   1.083767 S    
C73   C77   1.415433 A    
N9    Ni2   1.875328 S    
N10   Ni1   1.875326 S    
N18   O4    1.300600 A    
C31   H23   1.079195 S    
C2    N2    1.345734 A    
C30   C50   1.395560 A    
C65   H43   1.085140 S    
C57   C70   1.474544 S    
C10   C22   1.383710 A    
C79   C81   1.542767 S    
C60   C62   1.398652 A    
C44   C47   1.354810 A    
C50   C76   1.402877 A    
C5    C21   1.373379 A    
C59   C61   1.395408 A    
C9    N9    1.328760 A    
C27   H17   1.078678 S    
C25   C77   1.400605 A    
C4    C20   1.391159 A    
N3    Ni2   1.899263 S    
N4    Ni1   1.899264 S    
C29   C49   1.412957 A    
C50   C73   1.469668 S    
C43   C45   1.400603 A    
C39   I1    2.102023 S    
C1    H1    1.072244 S    
C12   H12   1.064505 S    
C62   C64   1.398860 A    
C7    N7    1.325256 A    
C30   H32   1.083098 S    
C61   C63   1.392590 A    
C7    H7    1.079663 S    
C26   C78   1.401726 A    
C43   H29   1.084120 S    
H22   C42   1.051039 S    
C34   C36   1.397671 A    
H21   C41   1.081248 S    
C33   C35   1.403788 A    
C4    N4    1.326735 A    
C29   H31   1.076983 S    
C44   H30   1.086630 S    
C56   C58   1.401458 A    
C81   C86   1.554746 S    
C15   H15   1.066312 S    
C79   H49   1.098772 S    
C58   C69   1.468769 S    
N2    N16   1.402702 A    
N8    Ni3   1.876518 S    
C54   C64   1.398479 A    
C80   H50   1.109216 S    
C79   C84   1.530961 S    
C26   C73   1.385469 A    
C53   C63   1.395254 A    
N5    Ni3   1.895634 S    
C6    C22   1.384634 A    
C40   C42   1.401560 A    
C10   N10   1.328244 A    
C36   C38   1.397444 A    
C5    H5    1.081932 S    
N18   O3    1.300847 A    
C36   C47   1.439985 S    
H36   C76   1.083184 S    
C51   C75   1.396283 A    
C8    H8    1.077563 S    
C62   H42   1.082279 S    
H34   C86   1.110129 S    
C18   C77   1.487537 S    
C55   C57   1.404833 A    
C7    C23   1.386894 A    
C82   C84   1.531581 S    
C54   C56   1.394326 A    
C45   C47   1.405622 A    
C66   C68   1.394427 A    
C37   H27   1.082140 S    
C6    H6    1.079998 S    
C20   C67   1.447678 S    
C71   N17   1.437029 S    
C4    H4    1.081959 S    
C15   C17   1.387116 A    
C38   C40   1.378599 A    
C82   H48   1.106849 S    
C23   C46   1.430509 S    
C67   C69   1.416714 A    
C66   H44   1.085147 S    
C35   C37   1.405062 A    
C56   H40   1.083321 S    
C19   C68   1.446953 S    
C63   I3    2.104007 S    
C14   N14   1.313205 A    
N13   Ni4   1.896193 S    
C53   C55   1.396356 A    
N6    Ni4   1.895632 S    
C81   H47   1.109078 S    
C10   H10   1.079112 S    
C5    N5    1.335059 A    
N16   Ni4   1.876353 S    
C32   C42   1.394385 A    
C65   C67   1.385991 A    
C39   C41   1.394699 A    
C3    C19   1.397715 A    
C13   H13   1.071985 S    
H20   C52   1.080501 S    
C66   C69   1.384226 A    
C14   H14   1.059906 S    
C80   C83   1.532233 S    
C72   N18   1.436013 S    
C27   C71   1.393170 A    
N15   Ni3   1.876353 S    
C25   C74   1.406119 A    
N3    N13   1.402824 A    
C11   N11   1.318437 A    
C43   C48   1.392171 A    
C13   N13   1.317140 A    
C81   C83   1.530822 S    
N7    N11   1.408643 A    
C58   C60   1.412613 A    
C61   H41   1.071275 S    
C31   C41   1.396086 A    
C79   C85   1.531852 S    
C3    H3    1.081027 S    
C80   C86   1.552357 S    
C28   C30   1.393994 A    
C16   C18   1.376503 A    
C68   C70   1.420800 A    
C32   C34   1.388317 A    
C31   C33   1.388974 A    
C38   H28   1.084174 S    
C74   C78   1.420788 A    
C11   C23   1.363854 A    
C22   C84   1.454446 S    
N12   Ni2   1.898834 S    
C1    C17   1.394295 A    
C12   C24   1.391552 A    
C16   N16   1.326877 A    
C64   I4    2.107666 S    
C55   H39   1.083348 S    
C9    H9    1.081512 S    
