data_mof_unit_54841.cif
_audit_creation_date              2013-03-05T15:41:43-0500
_audit_creation_method            fapswitch 2.2
_symmetry_space_group_name_H-M    P1
_symmetry_Int_Tables_number       1
_space_group_crystal_system       triclinic
_cell_length_a                    11.144055
_cell_length_b                    12.720826
_cell_length_c                    23.535993
_cell_angle_alpha                 91.114333
_cell_angle_beta                  96.84047
_cell_angle_gamma                 68.551351
_cell_volume                      3082.27784425

loop_
_atom_site_label
_atom_site_type_symbol
_atom_site_description
_atom_site_fract_x
_atom_site_fract_y
_atom_site_fract_z
_atom_type_partial_charge
O1    O     O_R   0.196340 0.303200 0.448500 -0.496489
O2    O     O_R   0.199310 0.519670 0.454880 -0.491113
C1    C     C_R   0.150614 0.616489 0.429340 0.551558
O3    O     O_R   0.045660 0.691380 0.441680 -0.468515
O4    O     O_R   0.811930 0.659460 0.430950 -0.500616
C2    C     C_R   0.758542 0.598120 0.401960 0.552487
O5    O     O_R   0.757900 0.507620 0.421760 -0.453298
O6    O     O_R   0.988630 0.322990 0.439840 -0.464187
C3    C     C_R   0.101384 0.281574 0.423545 0.552438
O7    O     O_R   0.196380 0.301720 0.573850 -0.452610
O8    O     O_R   0.199350 0.518300 0.571080 -0.443393
C4    C     C_R   0.149403 0.616609 0.591161 0.571731
O9    O     O_R   0.045700 0.689900 0.567030 -0.521725
O10   O     O_R   0.811960 0.658090 0.547150 -0.506612
C5    C     C_R   0.749534 0.602644 0.565948 0.548764
O11   O     O_R   0.757930 0.506140 0.547110 -0.454900
O12   O     O_R   0.988670 0.321620 0.556040 -0.470353
C6    C     C_R   0.101002 0.276435 0.584741 0.569412
Cr1   Cr    Cr6+3 0.189770 0.415650 0.511620 1.149035
Cr2   Cr    Cr6+3 0.930400 0.667320 0.496770 1.087786
Cr3   Cr    Cr6+3 0.879870 0.417010 0.491650 1.152129
O13   O     O_3   0.000020 0.499990 0.500010 -0.305504
C7    C     C_R   0.668281 0.761065 0.138573 -0.019845
C8    C     C_R   0.725418 0.616530 0.340102 0.009657
C9    C     C_R   0.739031 0.537312 0.245534 -0.072279
C10   C     C_R   0.737748 0.523644 0.303429 0.178212
C11   C     C_R   0.704950 0.722881 0.316636 -0.086391
C12   C     C_R   0.699592 0.737596 0.257576 0.073476
C13   C     C_R   0.720687 0.642338 0.222508 -0.007004
C14   C     C_R   0.712221 0.653961 0.163775 -0.118654
C15   C     C_R   0.655732 0.855682 0.172577 -0.059488
C16   C     C_R   0.671914 0.844568 0.232109 0.221603
H1    H     H_    0.723552 0.580896 0.137274 0.143088
H2    H     H_    0.622042 0.939583 0.153185 0.172555
H3    H     H_    0.751120 0.465607 0.218027 0.161114
H4    H     H_    0.695320 0.792918 0.344875 0.187267
C17   C     C_1   0.236033 0.161095 0.123471 0.055326
C18   C     C_2   0.176627 0.223405 0.227760 -0.104131
C19   C     C_2   0.156386 0.152900 0.264691 0.229311
C20   C     C_1   0.133885 0.191265 0.322104 0.026509
C21   C     C_1   0.209313 0.192768 0.170604 0.039967
C22   C     C_1   0.117271 0.228001 0.369330 0.048817
H5    H     H_    0.172636 0.306566 0.241539 0.106480
C23   C     C_1   0.168877 0.756978 0.124875 0.055991
C24   C     C_2   0.134127 0.726069 0.231951 0.232858
C25   C     C_2   0.233148 0.657417 0.269343 0.143058
C26   C     C_1   0.218125 0.643180 0.328585 0.085622
C27   C     C_1   0.154195 0.739042 0.173203 0.059920
C28   C     C_1   0.195104 0.631253 0.376362 0.063838
C29   C     C_1   0.628987 0.755134 0.865156 0.030494
C30   C     C_2   0.700716 0.708037 0.761570 -0.109177
C31   C     C_2   0.612465 0.703480 0.718571 -0.079143
C32   C     C_1   0.650622 0.670395 0.662545 0.013183
C33   C     C_1   0.664870 0.734859 0.818435 -0.013770
C34   C     C_1   0.689739 0.640702 0.617055 0.057437
H6    H     H_    0.512210 0.721901 0.725574 0.155336
H7    H     H_    0.801231 0.687818 0.754627 0.130211
C35   C     C_R   0.199823 0.181252 0.854303 -0.000611
C36   C     C_R   0.113215 0.218383 0.639920 -0.022945
C37   C     C_R   0.004196 0.174590 0.715233 0.215167
C38   C     C_R   0.009059 0.192592 0.656887 0.129493
C39   C     C_R   0.217835 0.213786 0.681072 0.115019
C40   C     C_R   0.201424 0.216169 0.738701 -0.001495
C41   C     C_R   0.099285 0.188849 0.756571 -0.028474
C42   C     C_R   0.100299 0.170257 0.815276 -0.093650
C43   C     C_R   0.282815 0.230973 0.836542 -0.096660
C44   C     C_R   0.285979 0.245570 0.778999 -0.083965
H8    H     H_    0.032212 0.137803 0.830296 0.188068
H9    H     H_    0.355584 0.246520 0.866685 0.178085
H10   H     H_    0.357334 0.276975 0.766466 0.189111
C45   C     C_R   0.124466 0.737348 0.855005 0.003079
C46   C     C_R   0.186607 0.635279 0.650972 0.002595
C47   C     C_R   0.308535 0.561439 0.742851 -0.110978
C48   C     C_R   0.301188 0.562126 0.683026 0.172124
C49   C     C_R   0.088589 0.713197 0.678952 -0.144031
C50   C     C_R   0.097178 0.713872 0.737733 -0.013546
C51   C     C_R   0.207936 0.637921 0.770680 -0.014774
C52   C     C_R   0.217034 0.644620 0.830492 0.206883
C53   C     C_R   0.008606 0.802405 0.822151 -0.137048
C54   C     C_R   0.994421 0.789545 0.763690 -0.110977
H11   H     H_    0.933868 0.870035 0.840761 0.175179
H12   H     H_    0.394811 0.502974 0.767048 0.206644
H13   H     H_    0.906610 0.844172 0.738376 0.176087
H14   H     H_    0.000245 0.770585 0.655043 0.167973
O14   O     O_R   0.113660 0.883270 0.047820 -0.488381
O15   O     O_R   0.186930 0.068530 0.043990 -0.481339
C55   C     C_R   0.265623 0.110412 0.069398 0.551187
O16   O     O_R   0.377770 0.089040 0.054220 -0.501964
O17   O     O_R   0.562800 0.872960 0.056970 -0.506067
C56   C     C_R   0.600157 0.775991 0.080964 0.539438
O18   O     O_R   0.555390 0.700940 0.062700 -0.501101
O19   O     O_R   0.295020 0.731920 0.049950 -0.485691
C57   C     C_R   0.189359 0.788535 0.069708 0.552381
O20   O     O_R   0.094290 0.884230 0.921550 -0.521964
O21   O     O_R   0.168980 0.069410 0.926940 -0.500863
C58   C     C_R   0.240627 0.116105 0.908048 0.548020
O22   O     O_R   0.358400 0.089990 0.927950 -0.506025
O23   O     O_R   0.544850 0.873850 0.939920 -0.500136
C59   C     C_R   0.573909 0.776096 0.918213 0.544746
O24   O     O_R   0.536020 0.701900 0.936430 -0.453907
O25   O     O_R   0.277070 0.732810 0.932890 -0.436924
C60   C     C_R   0.163006 0.784244 0.908157 0.553493
Cr4   Cr    Cr6+3 0.149500 0.973980 0.985330 1.072619
Cr5   Cr    Cr6+3 0.457000 0.976510 0.994660 1.062283
Cr6   Cr    Cr6+3 0.411170 0.724270 0.995270 1.134578
O26   O     O_3   0.339220 0.891590 0.991750 -0.274944
N1    N     N_R   0.009494 0.794733 0.249149 0.096390
O27   O     O_R   0.934991 0.883304 0.218173 -0.257904
O28   O     O_R   0.965410 0.766359 0.292800 -0.344203
N2    N     N_R   0.898799 0.148441 0.732284 0.097529
O29   O     O_R   0.920434 0.050605 0.755805 -0.363719
O30   O     O_R   0.780535 0.221572 0.723185 -0.217976
Br1   Br    Br    0.879509 0.169638 0.601174 -0.307700
Br2   Br    Br    0.390719 0.186774 0.660767 -0.344343
N3    N     N_R   0.321031 0.561510 0.865980 0.069252
O31   O     O_R   0.440739 0.552453 0.864435 -0.324314
O32   O     O_R   0.294292 0.506436 0.905581 -0.341284
N4    N     N_R   0.410907 0.491259 0.655847 0.097936
O33   O     O_R   0.496400 0.401593 0.682514 -0.244728
O34   O     O_R   0.437090 0.525558 0.608734 -0.310193
Br3   Br    Br    0.640438 0.979885 0.275327 -0.363256
Br4   Br    Br    0.758232 0.372692 0.326550 -0.368885
N5    N     N_R   0.160265 0.040883 0.250124 0.117129
O35   O     O_R   0.168066 0.969520 0.290577 -0.279439
O36   O     O_R   0.144511 0.012366 0.197155 -0.315761
Br5   Br    Br    0.399502 0.570929 0.245620 -0.477788

loop_
_geom_bond_atom_site_label_1
_geom_bond_atom_site_label_2
_geom_bond_distance
_ccdc_geom_bond_type
C55   O16   1.271820 A    
O25   C60   1.270051 A    
C47   C48   1.400650 A    
O18   Cr6   2.061969 S    
O21   C58   1.276612 A    
C8    C11   1.400241 A    
O24   Cr6   2.022060 S    
C45   C53   1.398393 A    
C1    C28   1.435377 S    
N5    O35   1.301661 A    
C26   C28   1.207123 T    
O4    Cr2   1.938087 S    
C51   C52   1.402476 A    
O8    Cr1   1.915789 S    
C3    C22   1.433769 S    
C39   C40   1.388343 A    
C12   C13   1.415566 A    
C8    C10   1.424741 A    
C39   Br2   1.946064 S    
C54   H13   1.084126 S    
C18   C19   1.354908 D    
C49   H14   1.084995 S    
N5    O36   1.301339 A    
C43   H9    1.083901 S    
C5    O11   1.271635 A    
C19   N5    1.445467 S    
C35   C58   1.456642 S    
N2    O29   1.299640 A    
C23   C57   1.434242 S    
N4    O33   1.301273 A    
O14   C57   1.267459 A    
C35   C43   1.400117 A    
C52   N3    1.437432 S    
O6    C3    1.275283 A    
N3    O32   1.300986 A    
N1    O27   1.301510 A    
C30   H7    1.085745 S    
O14   Cr4   2.048700 S    
C20   C22   1.205674 T    
C43   C44   1.376928 A    
C4    C46   1.459422 S    
C14   H1    1.085930 S    
Cr3   O13   1.977010 S    
C9    C13   1.386519 A    
N1    O28   1.300564 A    
C46   C49   1.401225 A    
O15   Cr4   1.921422 S    
Cr5   O26   1.976629 S    
O16   Cr5   2.021436 S    
O21   Cr4   1.933413 S    
O6    Cr3   1.903044 S    
N4    O34   1.301560 A    
C32   C34   1.205819 T    
O25   Cr6   1.940477 S    
C48   N4    1.440375 S    
C40   C44   1.399420 A    
C36   C38   1.417187 A    
O1    Cr1   2.031061 S    
C30   C31   1.340563 D    
C7    C14   1.386432 A    
O10   Cr2   1.911406 S    
C12   C16   1.409555 A    
Cr1   O13   1.977825 S    
O1    C3    1.264511 A    
C50   C51   1.409700 A    
C18   C21   1.444550 S    
C46   C48   1.412246 A    
C19   C20   1.446569 S    
C53   H11   1.083458 S    
O15   C55   1.270783 A    
C9    C10   1.379450 A    
O5    Cr3   2.068152 S    
O12   Cr3   1.948604 S    
C53   C54   1.379613 A    
C37   C38   1.407178 A    
C5    C34   1.434462 S    
C49   C50   1.375445 A    
C13   C14   1.381412 A    
C6    C36   1.473824 S    
C35   C42   1.399694 A    
C59   O24   1.266202 A    
O7    Cr1   2.056652 S    
C42   H8    1.081566 S    
C2    C8    1.460372 S    
C58   O22   1.262178 A    
O12   C6    1.281106 A    
C29   C59   1.434264 S    
C7    C56   1.452655 S    
C29   C33   1.205768 T    
C9    H3    1.085009 S    
C45   C60   1.461387 S    
Cr2   O13   1.980667 S    
O20   Cr4   2.040207 S    
O17   Cr5   1.950227 S    
C38   Br1   1.931692 S    
C1    O3    1.270898 A    
C47   H12   1.079338 S    
C15   H2    1.083260 S    
C31   C32   1.441460 S    
C24   C27   1.448639 S    
C25   C26   1.446562 S    
C36   C39   1.408596 A    
O9    Cr2   2.052634 S    
O2    Cr1   1.936756 S    
C16   Br3   1.922518 S    
C25   Br5   1.920944 S    
C15   C16   1.394468 A    
C17   C55   1.434125 S    
C50   C54   1.395985 A    
O8    C4    1.275826 A    
O11   Cr3   2.018451 S    
C2    O5    1.253101 A    
C11   H4    1.082146 S    
Cr6   O26   1.980655 S    
C37   C41   1.410856 A    
C30   C33   1.441254 S    
C41   C42   1.404323 A    
C44   H10   1.082442 S    
O2    C1    1.278673 A    
C18   H5    1.087170 S    
C56   O18   1.275319 A    
O4    C2    1.284715 A    
C31   H6    1.086831 S    
O7    C6    1.271629 A    
O23   Cr5   1.903616 S    
O19   C57   1.272244 A    
Cr4   O26   1.975055 S    
C17   C21   1.206285 T    
N2    O30   1.300815 A    
O22   Cr5   2.067259 S    
C37   N2    1.433349 S    
C24   N1    1.445265 S    
C40   C41   1.415032 A    
O3    Cr2   2.030851 S    
C24   C25   1.359654 D    
O19   Cr6   1.908128 S    
C4    O9    1.266339 A    
O20   C60   1.277934 A    
O23   C59   1.277655 A    
C11   C12   1.397503 A    
C47   C51   1.408834 A    
O10   C5    1.273379 A    
C10   Br4   1.930290 S    
N3    O31   1.301238 A    
O17   C56   1.268599 A    
C45   C52   1.419094 A    
C23   C27   1.205965 T    
C7    C15   1.405296 A    
