data_mof_unit_12838.cif
_audit_creation_date              2012-12-11T15:59:42-0500
_audit_creation_method            fapswitch 2.2
_symmetry_space_group_name_H-M    P1
_symmetry_Int_Tables_number       1
_space_group_crystal_system       triclinic
_cell_length_a                    10.764208
_cell_length_b                    10.754612
_cell_length_c                    17.036167
_cell_angle_alpha                 99.673612
_cell_angle_beta                  99.788918
_cell_angle_gamma                 60.886364
_cell_volume                      1689.57352567

loop_
_atom_site_label
_atom_site_type_symbol
_atom_type_description
_atom_site_fract_x
_atom_site_fract_y
_atom_site_fract_z
_atom_type_partial_charge
C1    C     C_R   0.349910 0.784404 0.404984 0.537189
C2    C     C_R   0.751028 0.379979 0.307564 -0.052628
C3    C     C_R   0.288302 0.929765 0.182686 -0.006589
C4    C     C_R   0.369688 0.346333 0.357586 0.563409
C5    C     C_R   0.416126 0.906977 0.233809 0.013721
C6    C     C_R   0.419383 0.900293 0.316761 0.015205
C7    C     C_R   0.186748 0.913226 0.293992 -0.142985
C8    C     C_R   0.172276 0.943280 0.216389 -0.149336
C9    C     C_R   0.545085 0.877352 0.206423 -0.034866
C10   C     C_R   0.665909 0.851297 0.259892 -0.090576
C11   C     C_R   0.658152 0.875402 0.341781 -0.121295
C12   C     C_R   0.774517 0.245619 0.175289 -0.044526
C13   C     C_R   0.533786 0.902041 0.370548 -0.075618
C14   C     C_R   0.314628 0.878426 0.342158 -0.001737
C15   C     C_R   0.299584 0.276942 0.799419 -0.007886
C16   C     C_R   0.718541 0.407934 0.391221 0.570658
C17   C     C_R   0.425673 0.177189 0.762969 0.036574
C18   C     C_R   0.478166 0.226443 0.712695 0.037337
C19   C     C_R   0.249827 0.445984 0.706772 -0.143248
C20   C     C_R   0.211445 0.409978 0.769774 -0.141730
C21   C     C_R   0.505280 0.031800 0.778489 -0.074222
C22   C     C_R   0.643367 0.946179 0.756677 -0.093336
C23   C     C_R   0.780520 0.248767 0.259051 -0.045323
C24   C     C_R   0.704959 0.004174 0.719156 -0.110348
C25   C     C_R   0.623403 0.142970 0.697406 -0.085130
C26   C     C_R   0.381802 0.354078 0.676772 -0.004206
C27   C     C_1   0.818676 0.341990 0.708893 -0.062683
C28   C     C_R   0.358220 0.769111 0.627415 0.545373
C29   C     C_1   0.845505 0.313611 0.776647 -0.049658
C30   C     C_1   0.339433 0.808987 0.709583 -0.053882
C31   C     C_1   0.313178 0.836603 0.777659 -0.062201
C32   C     C_R   0.881555 0.314349 0.082318 0.595912
C33   C     C_R   0.319254 0.299845 0.119939 0.566931
C34   C     C_R   0.727732 0.497989 0.271330 -0.125999
C35   C     C_R   0.261121 0.953298 0.097007 0.544402
C36   C     C_R   0.886230 0.297387 0.859070 0.554434
C37   C     C_R   0.279205 0.253088 0.877199 0.531644
C38   C     C_R   0.279067 0.884260 0.857460 0.549820
C39   C     C_R   0.407709 0.375455 0.599922 0.546672
C40   C     C_R   0.773709 0.380582 0.629616 0.550664
C41   C     C_1   0.343358 0.336178 0.274162 -0.028085
C42   C     C_1   0.331959 0.326411 0.203282 -0.030982
C43   C     C_R   0.788407 0.352215 0.145903 0.044091
C44   C     C_1   0.821451 0.877816 0.104629 0.241380
C45   C     C_R   0.750643 0.483210 0.192037 0.343667
C46   C     C_R   0.769135 0.129608 0.124687 0.401846
C47   C     C_R   0.806858 0.003496 0.156687 0.005975
C48   C     C_R   0.845754 0.996108 0.238771 -0.221635
C49   C     C_R   0.826564 0.117844 0.289863 -0.110087
Cr1   Cr    Cr6+3 0.608100 0.610860 0.522250 1.009371
Cr2   Cr    Cr6+3 0.288890 0.599990 0.488420 1.018600
Cr3   Cr    Cr6+3 0.603040 0.289190 0.489390 0.998603
Cr4   Cr    Cr6+3 0.053960 0.052250 0.967380 1.084435
Cr5   Cr    Cr6+3 0.059890 0.373160 0.992710 1.087066
Cr6   Cr    Cr6+3 0.373370 0.061690 0.991710 1.065043
F1    F     F_    0.729817 0.138574 0.044761 -0.607410
F2    F     F_    0.745592 0.593566 0.161203 -0.646058
H1    H     H_    0.697462 0.600603 0.305650 0.164302
H2    H     H_    0.674712 0.183134 0.667870 0.152446
H3    H     H_    0.899235 0.894993 0.263899 0.104722
H4    H     H_    0.863747 0.101611 0.351940 0.161403
H5    H     H_    0.102474 0.904972 0.314800 0.140972
H6    H     H_    0.563235 0.856875 0.144538 0.208686
H7    H     H_    0.072383 0.967676 0.180336 0.148572
H8    H     H_    0.767480 0.801762 0.236755 0.170668
H9    H     H_    0.751531 0.861933 0.382716 0.107838
H10   H     H_    0.530586 0.915625 0.434708 0.138544
H11   H     H_    0.176252 0.545653 0.681567 0.146995
H12   H     H_    0.462628 0.983942 0.808608 0.148301
H13   H     H_    0.113477 0.486481 0.795543 0.149508
H14   H     H_    0.703719 0.836423 0.771054 0.129521
H15   H     H_    0.814475 0.940711 0.704997 0.118605
N1    N     N_1   0.833230 0.776866 0.062800 -0.233036
O1    O     O_R   0.749810 0.499790 0.438040 -0.509706
O2    O     O_R   0.411730 0.181020 0.091530 -0.493220
O3    O     O_R   0.365010 0.944360 0.063320 -0.509626
O4    O     O_R   0.477660 0.726260 0.439290 -0.522613
O5    O     O_R   0.159380 0.906670 0.876210 -0.493078
O6    O     O_R   0.930820 0.177420 0.886730 -0.478605
O7    O     O_R   0.910360 0.395420 0.895720 -0.512275
O8    O     O_R   0.186010 0.361730 0.919870 -0.489391
O9    O     O_R   0.400000 0.173010 0.914630 -0.470524
O10   O     O_R   0.354140 0.936940 0.899340 -0.526362
O11   O     O_3   0.162410 0.162370 0.983930 -0.323640
O12   O     O_R   0.298970 0.468800 0.557390 -0.492590
O13   O     O_R   0.260150 0.743000 0.412270 -0.518205
O14   O     O_R   0.297740 0.466550 0.394720 -0.487577
O15   O     O_R   0.488080 0.253500 0.386430 -0.507590
O16   O     O_R   0.722670 0.303800 0.421940 -0.507283
O17   O     O_R   0.751130 0.502220 0.613520 -0.496781
O18   O     O_R   0.478890 0.728510 0.601960 -0.497372
O19   O     O_R   0.261470 0.745430 0.587750 -0.522967
O20   O     O_R   0.489400 0.255930 0.561910 -0.522035
O21   O     O_R   0.723890 0.306050 0.584610 -0.532354
O22   O     O_3   0.500010 0.500010 0.500020 -0.284445
O23   O     O_R   0.171100 0.914680 0.053100 -0.490722
O24   O     O_R   0.941680 0.184840 0.050710 -0.484377
O25   O     O_R   0.922080 0.403420 0.072610 -0.436125
O26   O     O_R   0.196880 0.369150 0.083850 -0.484338

loop_
_geom_bond_atom_site_label_1
_geom_bond_atom_site_label_2
_ccdc_geom_bond_type
C38   O10   A    
C27   C29   T    
C1    O4    A    
C41   C42   T    
C19   C20   A    
C18   C26   A    
C20   H13   S    
Cr2   O12   S    
Cr5   O11   S    
Cr5   O26   S    
C7    C8    A    
C4    O14   A    
C35   O23   A    
C29   C36   S    
C45   F2    S    
Cr4   O11   S    
C16   O1    A    
C33   C42   S    
Cr4   O6    S    
C12   C43   A    
Cr1   O1    S    
C30   C31   T    
C26   C39   S    
C23   C49   A    
C4    C41   S    
C32   O24   A    
Cr3   O22   S    
C19   C26   A    
C39   O20   A    
Cr1   O17   S    
C7    C14   A    
C15   C37   S    
Cr3   O21   S    
C2    C16   S    
C9    C10   A    
C11   H9    S    
Cr6   O2    S    
C2    C34   A    
C16   O16   A    
C21   C22   A    
Cr4   O23   S    
C37   O8    A    
Cr3   O16   S    
C18   C25   A    
Cr2   O13   S    
C33   O2    A    
C48   H3    S    
Cr5   O7    S    
C15   C20   A    
C35   O3    A    
C49   H4    S    
Cr3   O15   S    
C24   C25   A    
C12   C46   A    
C3    C8    A    
C36   O7    A    
Cr2   O14   S    
C38   O5    A    
Cr4   O24   S    
C17   C21   A    
C19   H11   S    
C21   H12   S    
C33   O26   A    
C7    H5    S    
C5    C9    A    
Cr2   O19   S    
C6    C14   A    
C47   C48   A    
C12   C23   A    
C3    C35   S    
C27   C40   S    
C17   C18   A    
Cr3   O20   S    
C28   O19   A    
C34   C45   A    
Cr6   O9    S    
C43   C45   A    
C8    H7    S    
Cr6   O3    S    
C48   C49   A    
C22   C24   A    
C37   O9    A    
C39   O12   A    
Cr6   O10   S    
Cr1   O4    S    
C22   H14   S    
C24   H15   S    
C13   H10   S    
C10   H8    S    
C1    O13   A    
C15   C17   A    
C46   C47   A    
C9    H6    S    
C40   O21   A    
C3    C5    A    
C36   O6    A    
C44   C47   S    
C4    O15   A    
C31   C38   S    
C28   C30   S    
Cr4   O5    S    
C6    C13   A    
C11   C13   A    
C5    C6    A    
C32   C43   S    
C32   O25   A    
C28   O18   A    
C44   N1    T    
Cr1   O22   S    
C10   C11   A    
Cr1   O18   S    
C46   F1    S    
C2    C23   A    
C34   H1    S    
Cr5   O25   S    
C1    C14   S    
C25   H2    S    
C40   O17   A    
Cr6   O11   S    
Cr5   O8    S    
Cr2   O22   S    
