data_mof_unit_50442.cif
_audit_creation_date              2012-12-10T18:10:18-0500
_audit_creation_method            fapswitch 2.2
_symmetry_space_group_name_H-M    P1
_symmetry_Int_Tables_number       1
_space_group_crystal_system       triclinic
_cell_length_a                    10.730899
_cell_length_b                    9.473096
_cell_length_c                    15.863122
_cell_angle_alpha                 90.008768
_cell_angle_beta                  91.066263
_cell_angle_gamma                 90.011429
_cell_volume                      1612.28379259

loop_
_atom_site_label
_atom_site_type_symbol
_atom_type_description
_atom_site_fract_x
_atom_site_fract_y
_atom_site_fract_z
_atom_type_partial_charge
C1    C     C_R   0.260514 0.499991 0.505631 0.755074
C2    C     C_3   0.633422 0.499045 0.952857 -0.375482
C3    C     C_3   0.633579 0.499030 0.050526 -0.386016
C4    C     C_1   0.498094 0.500027 0.825057 -0.119432
C5    C     C_1   0.498598 0.499980 0.175071 -0.095474
C6    C     C_1   0.499190 0.499980 0.250673 -0.111388
C7    C     C_3   0.071282 0.635933 0.555911 0.020648
C8    C     C_3   0.071261 0.361814 0.553542 0.022896
C9    C     C_3   0.927113 0.631145 0.556690 -0.378055
C10   C     C_3   0.926987 0.365192 0.553063 -0.382568
C11   C     C_3   0.071416 0.502229 0.418836 -0.459441
C12   C     C_3   0.122572 0.499955 0.511290 0.073754
C13   C     C_3   0.877828 0.499951 0.507452 0.095770
C14   C     C_R   0.499795 0.499992 0.340373 0.858942
C15   C     C_3   0.927926 0.503312 0.416793 -0.418008
C16   C     C_3   0.626401 0.083630 0.520705 -0.230747
C17   C     C_3   0.626455 0.916419 0.520525 -0.230867
C18   C     C_3   0.417653 0.083253 0.567384 -0.184579
C19   C     C_3   0.417942 0.916737 0.567556 -0.186252
C20   C     C_3   0.461052 0.083769 0.417544 -0.077060
C21   C     C_3   0.460718 0.916064 0.417624 -0.076774
C22   C     C_R   0.739805 0.500003 0.503453 0.771338
C23   C     C_R   0.499633 0.500009 0.659738 0.803102
C24   C     C_3   0.431180 0.633330 0.048173 -0.360983
C25   C     C_3   0.429656 0.367627 0.048118 -0.360975
C26   C     C_3   0.429499 0.367642 0.950403 -0.385074
C27   C     C_3   0.431023 0.633344 0.950459 -0.385020
C28   C     C_1   0.498703 0.500027 0.749447 -0.197337
C29   C     C_3   0.498215 0.499991 0.082880 0.311150
C30   C     C_3   0.497947 0.500016 0.917277 0.334903
Cu1   Cu    Cu3+1 0.499860 0.642410 0.500040 0.915996
Cu2   Cu    Cu3+1 0.499860 0.357590 0.500040 0.917003
H1    H     H_    0.333234 0.636417 0.925854 0.160877
H2    H     H_    0.331683 0.365969 0.925798 0.160593
H3    H     H_    0.890627 0.729955 0.527355 0.160069
H4    H     H_    0.891789 0.268854 0.520195 0.160965
H5    H     H_    0.106224 0.597016 0.385070 0.189855
H6    H     H_    0.105167 0.408326 0.383711 0.187632
H7    H     H_    0.893938 0.599727 0.383477 0.171759
H8    H     H_    0.892822 0.410267 0.380625 0.170103
H9    H     H_    0.661429 0.122932 0.582874 0.153936
H10   H     H_    0.661812 0.876854 0.582541 0.154096
H11   H     H_    0.693912 0.121052 0.473293 0.148479
H12   H     H_    0.693750 0.879264 0.472890 0.148424
H13   H     H_    0.448863 0.120472 0.630814 0.142024
H14   H     H_    0.449783 0.880063 0.630959 0.141545
H15   H     H_    0.533547 0.114878 0.371632 0.108013
H16   H     H_    0.532772 0.884513 0.371510 0.108265
H17   H     H_    0.321103 0.122939 0.560041 0.200797
H18   H     H_    0.321504 0.876477 0.560698 0.198515
H19   H     H_    0.333473 0.636406 0.070478 0.165437
H20   H     H_    0.331922 0.365939 0.070422 0.165009
H21   H     H_    0.476169 0.270187 0.072107 0.172639
H22   H     H_    0.478808 0.730093 0.072202 0.172265
H23   H     H_    0.475944 0.270207 0.927505 0.160558
H24   H     H_    0.478581 0.730116 0.927602 0.160543
H25   H     H_    0.684883 0.593364 0.074581 0.160559
H26   H     H_    0.683795 0.403964 0.074540 0.160670
H27   H     H_    0.684656 0.593385 0.930049 0.158310
H28   H     H_    0.683569 0.403989 0.930008 0.158155
H29   H     H_    0.096934 0.728590 0.516973 0.217581
H30   H     H_    0.097935 0.271145 0.513386 0.220089
H31   H     H_    0.891517 0.628449 0.622111 0.156299
H32   H     H_    0.889529 0.361582 0.617951 0.154310
N1    N     N_3   0.500250 0.143650 0.501830 -0.161943
N2    N     N_3   0.500250 0.856350 0.501830 -0.161684
O1    O     O_R   0.317570 0.620260 0.500050 -0.575846
O2    O     O_R   0.317570 0.379740 0.500050 -0.573663
O3    O     O_R   0.499890 0.620310 0.379470 -0.573765
O4    O     O_R   0.499890 0.379690 0.379470 -0.573786
O5    O     O_R   0.682190 0.620260 0.500020 -0.601568
O6    O     O_R   0.682190 0.379740 0.500020 -0.601569
O7    O     O_R   0.499870 0.620210 0.620600 -0.591545
O8    O     O_R   0.499870 0.379790 0.620600 -0.590661
C31   C     C_2   0.341408 0.147464 0.380530 0.908581
O9    O     O_2   0.243796 0.142470 0.418713 -0.620606
O10   O     O_R   0.341610 0.202587 0.298712 -0.782804
H33   H     H_    0.257004 0.239993 0.280008 0.312926
C32   C     C_2   0.340553 0.852586 0.381163 0.909264
O11   O     O_2   0.243254 0.858104 0.419713 -0.620239
O12   O     O_R   0.339973 0.796834 0.299480 -0.782780
H34   H     H_    0.255111 0.759645 0.281142 0.312645
N3    N     N_3   0.123682 0.662914 0.640810 -0.615630
H35   H     H_    0.218752 0.639944 0.644062 0.218267
H36   H     H_    0.079166 0.603603 0.686618 0.218851
N4    N     N_3   0.123065 0.331333 0.638269 -0.613695
H37   H     H_    0.214881 0.366546 0.644926 0.217243
H38   H     H_    0.070935 0.377600 0.685702 0.216593

loop_
_geom_bond_atom_site_label_1
_geom_bond_atom_site_label_2
_ccdc_geom_bond_type
Cu1   N2    S    
C7    N3    S    
C21   N2    S    
C24   C27   S    
C26   H23   S    
O12   H34   S    
C19   H14   S    
Cu2   O6    S    
O10   H33   S    
C27   H1    S    
C18   N1    S    
Cu1   O1    S    
C17   N2    S    
C25   H21   S    
Cu2   O8    S    
C5    C6    T    
C2    H28   S    
Cu1   O7    S    
C24   H22   S    
C1    O2    A    
C19   N2    S    
C11   H5    S    
C18   C19   S    
C3    C29   S    
C9    C13   S    
C24   C29   S    
C7    H29   S    
C17   H10   S    
C11   C15   S    
C26   H2    S    
Cu1   Cu2   S    
C16   C17   S    
Cu2   O2    S    
C21   H16   S    
C24   H19   S    
Cu1   O5    S    
C27   C30   S    
C14   O4    A    
C1    C12   S    
C23   O7    A    
C22   O6    A    
C4    C28   T    
C5    C29   S    
C25   C29   S    
C7    C12   S    
N4    H38   S    
C20   N1    S    
C32   O12   S    
C27   H24   S    
Cu2   O4    S    
C25   C26   S    
C20   C31   S    
C11   H6    S    
C31   O9    D    
C6    C14   S    
N3    H35   S    
C8    C12   S    
C21   C32   S    
C23   C28   S    
C31   O10   S    
C16   H11   S    
C15   H7    S    
C3    H25   S    
C2    H27   S    
C26   C30   S    
C13   C15   S    
C14   O3    A    
C23   O8    A    
C18   H13   S    
C22   O5    A    
N4    H37   S    
C7    C9    S    
N3    H36   S    
C9    H31   S    
C10   H32   S    
C10   C13   S    
C11   C12   S    
C2    C30   S    
C2    C3    S    
C17   H12   S    
C19   H18   S    
C1    O1    A    
C13   C22   S    
C8    N4    S    
C15   H8    S    
C25   H20   S    
C20   H15   S    
C32   O11   D    
C3    H26   S    
Cu1   O3    S    
C20   C21   S    
C8    C10   S    
C9    H3    S    
C10   H4    S    
C16   N1    S    
C16   H9    S    
C4    C30   S    
C18   H17   S    
C8    H30   S    
Cu2   N1    S    
