data_mof_unit_42149.cif
_audit_creation_date              2012-12-10T16:48:45-0500
_audit_creation_method            fapswitch 2.2
_symmetry_space_group_name_H-M    P1
_symmetry_Int_Tables_number       1
_space_group_crystal_system       triclinic
_cell_length_a                    17.288901
_cell_length_b                    8.685148
_cell_length_c                    7.428462
_cell_angle_alpha                 103.019709
_cell_angle_beta                  89.694642
_cell_angle_gamma                 93.112814
_cell_volume                      1085.12743536

loop_
_atom_site_label
_atom_site_type_symbol
_atom_type_description
_atom_site_fract_x
_atom_site_fract_y
_atom_site_fract_z
_atom_type_partial_charge
C1    C     C_R   0.497697 0.199681 0.453536 0.878784
C2    C     C_R   0.502204 0.800308 0.546472 0.893122
C3    C     C_2   0.496697 0.031790 0.427295 -0.377220
C4    C     C_2   0.503001 0.968168 0.572697 -0.367204
C5    C     C_R   0.351274 0.501455 0.527127 0.828312
C6    C     C_R   0.649009 0.499012 0.472983 0.803940
C7    C     C_R   0.267379 0.492226 0.546349 -0.110354
C8    C     C_R   0.733476 0.500360 0.455390 -0.135069
C9    C     C_R   0.223192 0.396957 0.401540 -0.296240
C10   C     C_R   0.778242 0.550895 0.616860 -0.267304
C11   C     C_R   0.143245 0.385634 0.413365 -0.157101
C12   C     C_R   0.858025 0.548629 0.610105 -0.148070
C13   C     C_R   0.106462 0.470956 0.569539 0.130296
C14   C     C_R   0.895152 0.492690 0.441647 0.126479
C15   C     C_R   0.150089 0.563860 0.716377 -0.265646
C16   C     C_R   0.851351 0.448813 0.278221 -0.268410
C17   C     C_R   0.231183 0.574452 0.707294 0.428515
C18   C     C_R   0.770361 0.450156 0.283634 0.433807
C19   C     C_2   0.022163 0.470337 0.578765 -0.205656
C20   C     C_2   0.979599 0.481853 0.432393 -0.199118
Cu1   Cu    Cu3+1 0.508700 0.517250 0.683000 0.954011
Cu2   Cu    Cu3+1 0.491300 0.482750 0.317000 0.942530
H1    H     H_    0.438931 0.379939 0.958497 0.222105
H2    H     H_    0.561056 0.620083 0.041520 0.236961
N1    N     N_2   0.478180 0.456750 0.041980 -0.231371
N2    N     N_2   0.521820 0.543250 0.958020 -0.218082
O1    O     O_R   0.505650 0.286040 0.618880 -0.591232
O2    O     O_R   0.494350 0.713960 0.381120 -0.595356
O3    O     O_R   0.490960 0.256910 0.309800 -0.590239
O4    O     O_R   0.509040 0.743090 0.690200 -0.582895
O5    O     O_R   0.394600 0.516230 0.672450 -0.558671
O6    O     O_R   0.605400 0.483770 0.327550 -0.543221
O7    O     O_R   0.379910 0.487100 0.363380 -0.603707
O8    O     O_R   0.620090 0.512900 0.636620 -0.589669
H3    H     H_    0.250628 0.330827 0.278868 0.165172
H4    H     H_    0.751658 0.593388 0.749957 0.195582
O9    O     O_3   0.728073 0.411785 0.120623 -0.572810
C21   C     C_3   0.721464 0.245535 0.058943 0.061846
H5    H     H_    0.695481 0.188886 0.167449 0.132371
H6    H     H_    0.779080 0.197420 0.019401 0.133123
C22   C     C_3   0.668782 0.202588 0.889585 -0.719184
H7    H     H_    0.693221 0.256266 0.777834 0.246783
H8    H     H_    0.663349 0.071994 0.838893 0.180228
H9    H     H_    0.610331 0.246782 0.925582 0.264145
O10   O     O_3   0.274401 0.683401 0.838799 -0.581315
C23   C     C_3   0.268074 0.643786 0.012751 0.071573
H10   H     H_    0.286370 0.521333 0.004853 0.145225
H11   H     H_    0.207963 0.654333 0.066370 0.130755
C24   C     C_3   0.320774 0.758709 0.149751 -0.692659
H12   H     H_    0.313643 0.735243 0.289841 0.206066
H13   H     H_    0.382157 0.745133 0.107073 0.257199
H14   H     H_    0.305632 0.882379 0.155261 0.227630
H15   H     H_    0.007559 0.482864 0.301195 0.142494
H16   H     H_    0.996028 0.468904 0.711380 0.139859
H17   H     H_    0.120700 0.634423 0.832897 0.130654
H18   H     H_    0.879871 0.411419 0.146529 0.131876
H19   H     H_    0.889940 0.592861 0.737641 0.136554
H20   H     H_    0.110161 0.311067 0.300170 0.139857
H21   H     H_    0.490858 0.960228 0.287149 0.174773
H22   H     H_    0.508731 0.039722 0.712841 0.175175

loop_
_geom_bond_atom_site_label_1
_geom_bond_atom_site_label_2
_ccdc_geom_bond_type
C2    C4    S    
Cu1   N2    S    
C16   H18   S    
C15   C17   A    
O9    C21   S    
Cu2   O3    S    
C14   C20   S    
C11   H20   S    
Cu1   O5    S    
Cu1   O4    S    
C22   H8    S    
C6    O6    A    
C19   C20   D    
C2    O4    A    
C24   H14   S    
C6    O8    A    
C4    H22   S    
C1    O3    A    
Cu1   O1    S    
C16   C18   A    
Cu2   O2    S    
O10   C23   S    
C21   H6    S    
C9    C11   A    
C23   C24   S    
Cu2   O6    S    
C6    C8    S    
C12   H19   S    
C10   C12   A    
C19   H16   S    
C8    C10   A    
C18   O9    S    
C12   C14   A    
C23   H11   S    
C13   C15   A    
C21   H5    S    
C22   H9    S    
C14   C16   A    
C5    O5    A    
C2    O2    A    
C13   C19   S    
C9    H3    S    
C3    C4    D    
C7    C9    A    
C11   C13   A    
H1    N1    S    
C21   C22   S    
C1    O1    A    
C24   H12   S    
C22   H7    S    
C15   H17   S    
C1    C3    S    
C5    C7    S    
Cu2   O7    S    
C3    H21   S    
C23   H10   S    
C10   H4    S    
Cu1   O8    S    
C24   H13   S    
N1    N2    D    
Cu1   Cu2   S    
C8    C18   A    
C17   O10   S    
H2    N2    S    
C20   H15   S    
C7    C17   A    
Cu2   N1    S    
C5    O7    A    
