data_mof_unit_44178.cif
_audit_creation_date              2012-12-11T17:14:08-0500
_audit_creation_method            fapswitch 2.2
_symmetry_space_group_name_H-M    P1
_symmetry_Int_Tables_number       1
_space_group_crystal_system       triclinic
_cell_length_a                    18.192084
_cell_length_b                    7.12666
_cell_length_c                    13.004888
_cell_angle_alpha                 90.105369
_cell_angle_beta                  71.981861
_cell_angle_gamma                 89.862948
_cell_volume                      1603.37053106

loop_
_atom_site_label
_atom_site_type_symbol
_atom_type_description
_atom_site_fract_x
_atom_site_fract_y
_atom_site_fract_z
_atom_type_partial_charge
O1    O     O_R   0.453880 0.506200 0.150010 -0.537469
O2    O     O_R   0.546120 0.006200 0.849990 -0.538580
O3    O     O_R   0.604080 0.177770 0.007280 -0.550885
O4    O     O_R   0.395920 0.677770 0.992720 -0.551099
C1    C     C_R   0.636139 0.344393 0.000567 0.745573
C2    C     C_R   0.364063 0.844654 0.998510 0.744057
O5    O     O_R   0.458010 0.176640 0.159130 -0.545985
O6    O     O_R   0.541990 0.676640 0.840870 -0.550157
O7    O     O_R   0.399010 0.004010 0.002930 -0.528788
O8    O     O_R   0.600990 0.504010 0.997070 -0.528522
C3    C     C_R   0.448882 0.344831 0.202431 0.727646
C4    C     C_R   0.551982 0.844219 0.797632 0.717713
O9    O     O_3   0.480810 0.338440 0.948570 -0.382872
O10   O     O_3   0.519190 0.838440 0.051430 -0.375740
V1    V     V_3+5 0.503560 0.064490 0.009540 1.436597
V2    V     V_3+5 0.496440 0.564490 0.990460 1.432027
C5    C     C_R   0.577075 0.800399 0.497333 0.275463
C6    C     C_R   0.419621 0.276610 0.503317 0.329420
C7    C     C_R   0.586491 0.844125 0.678797 -0.196003
C8    C     C_R   0.413999 0.344674 0.321312 -0.163863
C9    C     C_R   0.946744 0.943025 0.382325 -0.227866
C10   C     C_R   0.052446 0.448109 0.617770 -0.223082
C11   C     C_R   0.910247 0.004843 0.487904 0.365821
C12   C     C_R   0.089178 0.503721 0.511220 0.365787
C13   C     C_R   0.830225 0.989474 0.531029 -0.089467
C14   C     C_R   0.168673 0.477009 0.466553 -0.093064
C15   C     C_R   0.785171 0.898824 0.474164 0.041012
C16   C     C_R   0.212690 0.380450 0.522820 0.042586
C17   C     C_R   0.822303 0.849949 0.364467 -0.001107
C18   C     C_R   0.174838 0.331284 0.632330 0.006992
C19   C     C_R   0.703784 0.866386 0.521143 -0.046810
C20   C     C_R   0.294139 0.345060 0.476248 -0.060170
C21   C     C_R   0.658690 0.820323 0.452323 -0.048278
C22   C     C_R   0.337849 0.289583 0.544869 -0.004018
C23   C     C_R   0.696841 0.779401 0.341537 0.377449
C24   C     C_R   0.298469 0.238767 0.653578 0.392921
C25   C     C_R   0.777523 0.789463 0.300650 -0.295751
C26   C     C_R   0.218168 0.255927 0.694246 -0.322498
C27   C     C_R   0.667529 0.867969 0.634992 0.281751
C28   C     C_R   0.332158 0.356162 0.363235 0.273343
C29   C     C_R   0.541636 0.797406 0.610095 -0.103780
C30   C     C_R   0.458945 0.303504 0.391271 -0.122624
C31   C     C_R   0.903466 0.871974 0.319043 -0.096196
C32   C     C_R   0.094769 0.368347 0.679930 -0.095203
H1    H     H_    0.008468 0.963199 0.346473 0.133842
H2    H     H_    0.991501 0.478329 0.654855 0.131194
H3    H     H_    0.804367 0.059574 0.607282 0.177889
H4    H     H_    0.195005 0.543661 0.389681 0.178380
H5    H     H_    0.804995 0.752406 0.216785 0.119387
H6    H     H_    0.190198 0.215587 0.777219 0.126416
C33   C     C_1   0.216175 0.858852 0.000803 -0.184961
C34   C     C_1   0.784089 0.359386 0.997983 -0.182106
C35   C     C_1   0.283523 0.852996 0.999705 -0.167796
C36   C     C_1   0.716818 0.352977 0.998756 -0.167830
O11   O     O_R   0.899030 0.205490 0.002790 -0.535856
O12   O     O_R   0.100970 0.705490 0.997210 -0.535767
O13   O     O_R   0.042000 0.536370 0.840840 -0.542577
O14   O     O_R   0.958000 0.036370 0.159160 -0.543088
C37   C     C_R   0.058154 0.368761 0.798071 0.710276
C38   C     C_R   0.941272 0.869534 0.201597 0.713058
O15   O     O_R   0.895930 0.535070 0.992690 -0.541056
O16   O     O_R   0.104070 0.035070 0.007310 -0.540944
O17   O     O_R   0.953870 0.707520 0.150040 -0.536495
O18   O     O_R   0.046130 0.207520 0.849960 -0.537545
C39   C     C_R   0.864333 0.366955 0.998168 0.724877
C40   C     C_R   0.135749 0.866682 0.001424 0.723970
O19   O     O_3   0.019200 0.374340 0.051340 -0.372223
O20   O     O_3   0.980800 0.874340 0.948660 -0.372776
V3    V     V_3+5 0.996440 0.648350 0.990470 1.440832
V4    V     V_3+5 0.003560 0.148350 0.009530 1.439944
C41   C     C_R   0.458229 0.737113 0.654176 0.090851
C42   C     C_R   0.400212 0.815733 0.616355 0.028045
C43   C     C_R   0.322387 0.769614 0.663875 -0.137534
C44   C     C_R   0.301080 0.646715 0.751000 -0.150930
C45   C     C_R   0.358115 0.555269 0.783114 -0.051535
C46   C     C_R   0.436100 0.591115 0.730054 -0.065036
H7    H     H_    0.414132 0.912937 0.550192 0.141620
H8    H     H_    0.278475 0.832713 0.634658 0.123553
H9    H     H_    0.240678 0.615991 0.790408 0.122592
H10   H     H_    0.341966 0.451985 0.846990 0.134290
H11   H     H_    0.478724 0.501363 0.746900 0.157480
C47   C     C_R   0.546296 0.284786 0.350380 0.071930
C48   C     C_R   0.592199 0.367843 0.407799 0.000064
C49   C     C_R   0.672272 0.341668 0.376346 -0.120537
C50   C     C_R   0.708941 0.237255 0.284318 -0.109211
C51   C     C_R   0.664844 0.148200 0.228384 -0.094023
C52   C     C_R   0.584381 0.166832 0.262926 -0.183288
H12   H     H_    0.565642 0.445283 0.480952 0.166180
H13   H     H_    0.705894 0.403478 0.423262 0.117449
H14   H     H_    0.771078 0.219104 0.258872 0.114725
H15   H     H_    0.692836 0.057600 0.160635 0.128302
H16   H     H_    0.552864 0.076427 0.225782 0.158455
O21   O     O_3   0.655280 0.718692 0.274853 -0.634938
H17   H     H_    0.690691 0.691684 0.201355 0.284463
O22   O     O_3   0.338905 0.169986 0.719824 -0.622569
H18   H     H_    0.302722 0.136066 0.791564 0.276616
O23   O     O_3   0.531165 0.765252 0.432897 -0.635661
H19   H     H_    0.540544 0.867702 0.379528 0.316795
O24   O     O_3   0.460083 0.235873 0.574654 -0.625415
H20   H     H_    0.502751 0.148685 0.539306 0.276679
O25   O     O_3   0.713769 0.857710 0.701787 -0.653267
H21   H     H_    0.686495 0.907832 0.774494 0.287050
O26   O     O_3   0.287732 0.345528 0.294108 -0.651332
H22   H     H_    0.313470 0.412092 0.225891 0.285603
O27   O     O_3   0.950667 0.088808 0.549473 -0.643297
H23   H     H_    0.006467 0.089373 0.507782 0.302596
O28   O     O_3   0.049732 0.593419 0.450244 -0.644241
H24   H     H_    0.994216 0.601496 0.492872 0.302145

loop_
_geom_bond_atom_site_label_1
_geom_bond_atom_site_label_2
_ccdc_geom_bond_type
C33   C35   T    
O21   H17   S    
C15   C17   A    
C43   C44   A    
O22   H18   S    
O1    C3    A    
O2    C4    A    
C2    O7    A    
O23   H19   S    
C50   C51   A    
O5    C3    A    
C18   C26   A    
C37   O18   A    
O25   H21   S    
C38   O17   A    
C23   C25   A    
C12   C14   A    
C51   H15   S    
C6    C30   A    
C41   C46   A    
C8    C28   A    
O13   C37   A    
C32   C37   S    
O14   C38   A    
C47   C52   A    
C11   O27   S    
O16   V4    S    
C9    C31   A    
C10   C32   A    
O17   V3    S    
O20   V3    S    
C30   C47   S    
O28   H24   S    
C19   C21   A    
O18   V4    S    
C45   H10   S    
C13   H3    S    
C14   H4    S    
C29   C41   S    
O5    V1    S    
C48   H12   S    
O6    V2    S    
C52   H16   S    
C17   C31   A    
C18   C32   A    
C5    C21   A    
O11   C39   A    
C34   C36   T    
C27   O25   S    
C9    H1    S    
C23   O21   S    
C3    C8    S    
C44   C45   A    
O16   C40   A    
C15   C19   A    
C1    C36   S    
C16   C20   A    
C49   C50   A    
O4    C2    A    
C12   O28   S    
C51   C52   A    
O14   V4    S    
C43   H8    S    
O19   V3    S    
C33   C40   S    
C20   C22   A    
O4    V2    S    
C45   C46   A    
C42   H7    S    
C25   H5    S    
C48   C49   A    
O6    C4    A    
O1    V2    S    
O2    V1    S    
C6    C22   A    
C7    C27   A    
C31   C38   S    
C10   H2    S    
C47   C48   A    
C44   H9    S    
C9    C11   A    
C10   C12   A    
C6    O24   S    
C2    C35   S    
C20   C28   A    
O3    V1    S    
O15   V3    S    
C42   C43   A    
O3    C1    A    
C46   H11   S    
C8    C30   A    
C50   H14   S    
C26   H6    S    
C13   C15   A    
O27   H23   S    
C14   C16   A    
O24   H20   S    
O19   V4    S    
C16   C18   A    
O7    V1    S    
C1    O8    A    
O8    V2    S    
C28   O26   S    
C24   O22   S    
O12   C40   A    
C4    C7    S    
C24   C26   A    
C21   C23   A    
C19   C27   A    
C22   C24   A    
C11   C13   A    
C5    C29   A    
O11   V4    S    
O15   C39   A    
C41   C42   A    
O20   V4    S    
O12   V3    S    
C49   H13   S    
O9    V2    S    
C17   C25   A    
O26   H22   S    
O10   V1    S    
O13   V3    S    
C5    O23   S    
C34   C39   S    
C7    C29   A    
