data_mof_unit_28355.cif
_audit_creation_date              2013-03-05T15:40:25-0500
_audit_creation_method            fapswitch 2.2
_symmetry_space_group_name_H-M    P1
_symmetry_Int_Tables_number       1
_space_group_crystal_system       triclinic
_cell_length_a                    7.729719
_cell_length_b                    8.57612
_cell_length_c                    10.714499
_cell_angle_alpha                 91.28822
_cell_angle_beta                  87.150467
_cell_angle_gamma                 93.403747
_cell_volume                      708.009303736

loop_
_atom_site_label
_atom_site_type_symbol
_atom_site_description
_atom_site_fract_x
_atom_site_fract_y
_atom_site_fract_z
_atom_type_partial_charge
O1    O     O_R   0.389250 0.738570 0.508280 -0.592760
O2    O     O_R   0.678390 0.711630 0.486650 -0.639728
C1    C     C_R   0.545488 0.794650 0.493753 1.015686
O3    O     O_R   0.355400 0.513470 0.694050 -0.586614
O4    O     O_R   0.644540 0.486530 0.672420 -0.573230
C2    C     C_R   0.506597 0.511294 0.739858 0.966022
Zn1   Zn    Zn3+2 0.306930 0.517990 0.514440 1.014178
Zn2   Zn    Zn3+2 0.693070 0.482010 0.485560 0.995519
O5    O     O_R   0.321610 0.288370 0.513350 -0.617162
O6    O     O_R   0.610750 0.261430 0.491720 -0.613228
O7    O     O_R   0.355460 0.513470 0.327580 -0.661244
O8    O     O_R   0.644600 0.486530 0.305950 -0.636337
C3    C     C_R   0.454237 0.205197 0.500600 0.965614
C4    C     C_R   0.493197 0.492299 0.259750 0.870706
C5    C     C_R   0.285195 0.721598 0.893710 0.355231
C6    C     C_R   0.125279 0.753241 0.953727 -0.120103
H1    H     H_    0.043049 0.836838 0.916218 0.202084
C7    C     C_R   0.071094 0.679182 0.063784 -0.193039
H2    H     H_    0.944814 0.699575 0.107391 0.168180
C8    C     C_R   0.182567 0.584763 0.121123 -0.134072
H3    H     H_    0.131170 0.528695 0.205030 0.169418
C9    C     C_R   0.348678 0.557278 0.065608 0.066019
C10   C     C_R   0.386710 0.605741 0.942910 -0.038540
C11   C     C_R   0.520042 0.531086 0.872860 -0.202339
C12   C     C_R   0.641645 0.445751 0.932370 0.305619
H4    H     H_    0.721202 0.368120 0.104963 0.191469
C13   C     C_R   0.622536 0.427344 0.058939 -0.269682
C14   C     C_R   0.480428 0.484658 0.126396 -0.150581
C15   C     C_2   0.569869 0.957868 0.489766 -0.310825
H5    H     H_    0.702402 0.008497 0.486257 0.180019
C16   C     C_2   0.429897 0.041904 0.495121 -0.286974
H6    H     H_    0.297465 0.991223 0.497016 0.198527
N1    N     N_2   0.950330 0.457950 0.466250 -0.173364
H7    H     H_    0.013369 0.381571 0.406899 0.178339
N2    N     N_2   0.049670 0.542050 0.533750 -0.141634
H8    H     H_    0.986717 0.618791 0.592829 0.237080
N3    N     N_R   0.785399 0.377039 0.866689 0.223142
O9    O     O_R   0.912370 0.467018 0.819519 -0.386245
O10   O     O_R   0.808444 0.229231 0.879297 -0.355534
N4    N     N_R   0.351137 0.819329 0.792883 0.193373
O11   O     O_R   0.245048 0.896866 0.730987 -0.402557
O12   O     O_R   0.516818 0.855866 0.780002 -0.410434

loop_
_geom_bond_atom_site_label_1
_geom_bond_atom_site_label_2
_geom_bond_distance
_ccdc_geom_bond_type
O4    Zn2   2.018473 S    
C10   C11   1.419598 A    
C15   H5    1.087888 S    
C12   C13   1.368490 A    
N2    H8    1.029220 S    
Zn2   O8    1.980423 S    
C2    C11   1.439487 S    
C5    C10   1.427633 A    
O2    C1    1.282459 A    
O8    C4    1.297176 A    
C15   C16   1.333369 D    
C6    C7    1.386482 A    
C9    C14   1.417287 A    
C11   C12   1.409936 A    
Zn1   O7    2.018473 S    
H4    C13   1.085100 S    
N3    O9    1.300939 A    
O3    Zn1   1.980423 S    
N4    O12   1.301560 A    
N4    O11   1.301190 A    
N1    N2    1.264471 D    
C8    C9    1.418341 A    
N1    H7    1.029200 S    
C7    C8    1.390487 A    
Zn2   N1    2.011367 S    
O4    C2    1.283554 A    
O7    C4    1.278573 A    
C5    N4    1.436877 S    
O3    C2    1.291189 A    
C5    C6    1.402873 A    
Zn1   O5    1.978971 S    
C8    H3    1.076344 S    
N3    O10   1.301437 A    
C7    H2    1.083020 S    
C13   C14   1.392767 A    
C1    C15   1.402599 S    
O5    C3    1.283339 A    
C9    C10   1.399682 A    
C4    C14   1.436877 S    
O1    Zn1   1.961214 S    
Zn1   N2    2.011367 S    
C3    C16   1.402187 S    
Zn2   O6    1.961214 S    
O2    Zn2   1.978971 S    
C16   H6    1.087529 S    
C12   N3    1.434773 S    
C6    H1    1.082585 S    
O1    C1    1.276603 A    
O6    C3    1.275374 A    
