data_mof_unit_26902.cif
_audit_creation_date              2012-10-26T21:02:38-0400
_audit_creation_method            fapswitch 2.2
_symmetry_space_group_name_H-M    P1
_symmetry_Int_Tables_number       1
_space_group_crystal_system       triclinic
_cell_length_a                    12.440167
_cell_length_b                    13.17535
_cell_length_c                    15.040404
_cell_angle_alpha                 75.479448
_cell_angle_beta                  101.15466
_cell_angle_gamma                 117.211242
_cell_volume                      2113.40753899

loop_
_atom_site_label
_atom_site_type_symbol
_atom_type_description
_atom_site_fract_x
_atom_site_fract_y
_atom_site_fract_z
_atom_type_partial_charge
C1    C     C_R   0.855178 0.285847 0.509974 0.646265
C2    C     C_R   0.035240 0.422208 0.835496 -0.128942
C3    C     C_R   0.996517 0.495702 0.767657 -0.008768
C4    C     C_R   0.999337 0.499027 0.670866 0.557014
C5    C     C_R   0.954402 0.565660 0.791971 -0.122799
C6    C     C_R   0.288047 0.023954 0.364277 -0.114569
C7    C     C_R   0.228806 0.837162 0.466089 -0.000155
C8    C     C_R   0.808269 0.080579 0.584521 0.222950
C9    C     C_R   0.723516 0.965044 0.606092 -0.129276
C10   C     C_R   0.603908 0.930199 0.569005 -0.157253
C11   C     C_R   0.565532 0.008528 0.504679 -0.022704
C12   C     C_R   0.963586 0.573377 0.070083 0.056801
C13   C     C_R   0.654678 0.121118 0.471495 0.019515
C14   C     C_R   0.441769 0.977317 0.470777 0.023756
C15   C     C_R   0.410034 0.054265 0.398775 0.015368
C16   C     C_R   0.144970 0.713959 0.486108 0.516916
C17   C     C_R   0.500577 0.157711 0.358500 -0.117436
C18   C     C_R   0.622977 0.189747 0.391325 0.245882
C19   C     C_R   0.348136 0.871119 0.505994 -0.118188
C20   C     C_R   0.197857 0.915216 0.397102 -0.127481
C21   C     C_R   0.773437 0.160438 0.518745 0.060534
C22   C     C_R   0.332679 0.315511 0.642785 -0.135467
C23   C     C_R   0.072648 0.344826 0.092430 0.295230
C24   C     C_R   0.762381 0.649747 0.375674 0.052475
C25   C     C_R   0.667984 0.682887 0.348688 -0.148132
C26   C     C_R   0.563436 0.625351 0.395151 -0.126981
C27   C     C_R   0.550809 0.532623 0.470037 -0.045215
C28   C     C_R   0.000955 0.501365 0.329051 0.582394
C29   C     C_R   0.650018 0.500124 0.496575 0.208576
C30   C     C_R   0.443452 0.471882 0.519607 -0.019748
C31   C     C_R   0.434140 0.377184 0.591992 0.000557
C32   C     C_R   0.526697 0.344321 0.616011 -0.145228
C33   C     C_R   0.634416 0.404550 0.573719 0.267511
C34   C     C_R   0.066897 0.340314 0.998738 0.227009
C35   C     C_R   0.343356 0.500008 0.501564 0.068536
C36   C     C_R   0.239162 0.348203 0.622293 0.072442
C37   C     C_R   0.974941 0.583015 0.162239 0.178141
C38   C     C_R   0.001983 0.501775 0.232087 0.018272
C39   C     C_R   0.023712 0.415660 0.209845 0.227921
C40   C     C_R   0.030069 0.416485 0.116815 -0.012152
C41   C     C_R   0.994470 0.492615 0.047018 -0.078809
C42   C     C_R   0.030044 0.415746 0.929203 -0.015327
C43   C     C_R   0.992583 0.490748 0.953693 0.017311
C44   C     C_R   0.954867 0.565838 0.884386 0.027866
C45   C     C_R   0.920314 0.641888 0.908110 -0.146268
C46   C     C_R   0.926055 0.646743 0.000035 -0.077575
Cu1   Cu    Cu3+1 0.098270 0.475420 0.521130 1.003427
Cu2   Cu    Cu3+1 0.901730 0.524580 0.478870 1.014572
H1    H     H_    0.476255 0.212326 0.299293 0.106748
H2    H     H_    0.069664 0.371042 0.813929 0.141567
H3    H     H_    0.105715 0.889913 0.365177 0.127385
H4    H     H_    0.011654 0.696255 0.238570 0.320583
H5    H     H_    0.263230 0.082282 0.308972 0.135901
H6    H     H_    0.365338 0.810668 0.563075 0.119929
H7    H     H_    0.932774 0.051040 0.672941 0.314872
H8    H     H_    0.675423 0.319334 0.287414 0.326803
H9    H     H_    0.516698 0.271541 0.672474 0.099161
H10   H     H_    0.979402 0.253679 0.259475 0.357129
H11   H     H_    0.697156 0.301823 0.663902 0.297739
H12   H     H_    0.544548 0.840053 0.590707 0.116554
H13   H     H_    0.155509 0.242498 0.134301 0.370765
H14   H     H_    0.040653 0.226677 0.926968 0.320579
H15   H     H_    0.925248 0.623024 0.738811 0.125488
H16   H     H_    0.891277 0.699573 0.855369 0.105776
H17   H     H_    0.901018 0.708481 0.015886 0.175709
H18   H     H_    0.748963 0.902149 0.655111 0.106191
H19   H     H_    0.159908 0.301516 0.660606 0.157888
H20   H     H_    0.326127 0.242879 0.698419 0.102339
H21   H     H_    0.340010 0.569896 0.447353 0.117578
H22   H     H_    0.843241 0.695294 0.339163 0.141024
H23   H     H_    0.493460 0.655042 0.370633 0.111967
H24   H     H_    0.675883 0.753800 0.291299 0.120046
N1    N     N_R   0.246280 0.438190 0.553160 -0.238711
N2    N     N_R   0.754320 0.561190 0.447410 -0.223817
O1    O     O_R   0.972510 0.318130 0.526570 -0.441452
O2    O     O_3   0.924197 0.117542 0.628991 -0.703790
O3    O     O_3   0.712838 0.281729 0.341361 -0.683291
O4    O     O_3   0.031987 0.328542 0.280222 -0.616292
O5    O     O_3   0.723521 0.369591 0.612560 -0.655042
O6    O     O_3   0.123073 0.282994 0.161155 -0.674149
O7    O     O_3   0.099069 0.262331 0.977549 -0.722090
O8    O     O_R   0.806530 0.359650 0.490890 -0.413249
O9    O     O_R   0.082980 0.479210 0.647590 -0.519672
O10   O     O_R   0.917000 0.520730 0.611900 -0.443290
O11   O     O_R   0.193470 0.640350 0.509110 -0.522916
O12   O     O_R   0.027490 0.681870 0.473430 -0.525696
O13   O     O_R   0.083000 0.479270 0.388100 -0.461056
O14   O     O_R   0.917020 0.520790 0.352410 -0.487943
O15   O     O_3   0.959715 0.672612 0.181743 -0.716032

loop_
_geom_bond_atom_site_label_1
_geom_bond_atom_site_label_2
_ccdc_geom_bond_type
C1    C21   S    
C27   C29   A    
C34   C42   A    
C36   H19   S    
C24   H22   S    
C45   C46   A    
C26   C27   A    
C37   C38   A    
C13   C18   A    
Cu1   O11   S    
C20   H3    S    
C30   C31   A    
C11   C14   A    
H13   O6    S    
C23   C40   A    
C29   C33   A    
C8    O2    S    
C5    H15   S    
C12   C37   A    
C9    H18   S    
C2    H2    S    
C6    C15   A    
C31   C32   A    
C8    C9    A    
C28   O14   A    
Cu2   O14   S    
C34   O7    S    
Cu1   O9    S    
C23   O6    S    
C9    C10   A    
C27   C30   A    
C16   O12   A    
C26   H23   S    
C41   C43   A    
H4    O15   S    
C32   H9    S    
C8    C21   A    
C22   C31   A    
C1    O1    A    
C39   O4    S    
Cu2   N2    S    
C24   C25   A    
Cu1   N1    S    
C46   H17   S    
C12   C46   A    
C36   N1    A    
C17   H1    S    
C39   C40   A    
C33   O5    S    
C29   N2    A    
C1    O8    A    
H8    O3    S    
Cu2   O10   S    
Cu1   O13   S    
C10   H12   S    
C43   C44   A    
C12   C41   A    
Cu1   Cu2   S    
C4    O10   A    
C28   C38   S    
C23   C34   A    
C28   O13   A    
C17   C18   A    
C13   C21   A    
C25   H24   S    
C22   H20   S    
H7    O2    S    
C30   C35   A    
C19   H6    S    
C7    C16   S    
H14   O7    S    
C7    C19   A    
C16   O11   A    
Cu2   O12   S    
C42   C43   A    
C6    H5    S    
H11   O5    S    
C3    C4    S    
C6    C20   A    
C44   C45   A    
C15   C17   A    
C35   N1    A    
C14   C19   A    
C5    C44   A    
C3    C5    A    
C22   C36   A    
C45   H16   S    
C37   O15   S    
C32   C33   A    
C2    C3    A    
C25   C26   A    
Cu1   O1    S    
C11   C13   A    
C24   N2    A    
C38   C39   A    
C4    O9    A    
C2    C42   A    
C18   O3    S    
Cu2   O8    S    
C10   C11   A    
H10   O4    S    
C35   H21   S    
C7    C20   A    
C14   C15   A    
C40   C41   A    
