data_mof_unit_33704.cif
_audit_creation_date              2012-12-11T17:24:08-0500
_audit_creation_method            fapswitch 2.2
_symmetry_space_group_name_H-M    P1
_symmetry_Int_Tables_number       1
_space_group_crystal_system       triclinic
_cell_length_a                    22.890545
_cell_length_b                    7.182658
_cell_length_c                    20.931477
_cell_angle_alpha                 89.998957
_cell_angle_beta                  93.588687
_cell_angle_gamma                 89.997989
_cell_volume                      3434.69955929

loop_
_atom_site_label
_atom_site_type_symbol
_atom_type_description
_atom_site_fract_x
_atom_site_fract_y
_atom_site_fract_z
_atom_type_partial_charge
O1    O     O_R   0.307200 0.614510 0.194080 -0.536585
O2    O     O_R   0.692800 0.385490 0.805920 -0.536979
O3    O     O_R   0.192800 0.114510 0.305920 -0.536580
O4    O     O_R   0.807200 0.885490 0.694080 -0.536978
O5    O     O_R   0.188140 0.283260 0.181690 -0.514457
O6    O     O_R   0.811860 0.716740 0.818310 -0.510977
O7    O     O_R   0.311860 0.783260 0.318310 -0.514460
O8    O     O_R   0.688140 0.216740 0.681690 -0.511006
C1    C     C_R   0.168000 0.453216 0.166570 0.721128
C2    C     C_R   0.832058 0.546811 0.833351 0.715029
C3    C     C_R   0.332000 0.953209 0.333431 0.721112
C4    C     C_R   0.667941 0.046818 0.666649 0.715018
O9    O     O_R   0.306460 0.284700 0.186400 -0.537681
O10   O     O_R   0.693540 0.715300 0.813600 -0.538971
O11   O     O_R   0.193540 0.784700 0.313600 -0.537685
O12   O     O_R   0.806460 0.215300 0.686400 -0.538971
O13   O     O_R   0.311970 0.115840 0.310660 -0.535005
O14   O     O_R   0.688030 0.884160 0.689340 -0.532544
O15   O     O_R   0.188030 0.615840 0.189340 -0.535026
O16   O     O_R   0.811970 0.384160 0.810660 -0.532551
C5    C     C_R   0.325194 0.453282 0.171564 0.719947
C6    C     C_R   0.674738 0.546732 0.828356 0.719005
C7    C     C_R   0.174806 0.953284 0.328436 0.719942
C8    C     C_R   0.825262 0.046730 0.671644 0.718994
O17   O     O_3   0.251670 0.448440 0.290760 -0.372710
O18   O     O_3   0.748330 0.551560 0.709240 -0.372127
O19   O     O_3   0.248330 0.948440 0.209240 -0.372719
O20   O     O_3   0.751670 0.051560 0.790760 -0.372115
V1    V     V_3+5 0.249690 0.173030 0.242440 1.477846
V2    V     V_3+5 0.750310 0.826970 0.757560 1.502778
V3    V     V_3+5 0.250310 0.673030 0.257560 1.477835
V4    V     V_3+5 0.749690 0.326970 0.742440 1.502748
C9    C     C_R   0.955597 0.134840 0.488796 0.212133
C10   C     C_R   0.044772 0.865501 0.511639 0.210871
C11   C     C_R   0.544401 0.634834 0.011204 0.212155
C12   C     C_R   0.455228 0.365513 0.988359 0.210887
C13   C     C_R   0.954460 0.015615 0.542856 -0.211071
C14   C     C_R   0.045884 0.984645 0.457554 -0.209723
C15   C     C_R   0.545539 0.515621 0.957143 -0.211079
C16   C     C_R   0.454116 0.484644 0.042446 -0.209724
C17   C     C_R   0.998654 0.880049 0.553163 0.444938
C18   C     C_R   0.001729 0.120343 0.447296 0.448425
C19   C     C_R   0.501346 0.380065 0.946834 0.444953
C20   C     C_R   0.498271 0.620334 0.052705 0.448422
C21   C     C_1   0.908436 0.028579 0.588106 0.048708
C22   C     C_1   0.091831 0.971510 0.412211 0.051545
C23   C     C_1   0.591563 0.528586 0.911893 0.048714
C24   C     C_1   0.408170 0.471504 0.087789 0.051524
C25   C     C_1   0.129801 0.962406 0.374219 -0.181747
C26   C     C_1   0.870373 0.037627 0.625987 -0.181448
C27   C     C_1   0.370200 0.462400 0.125781 -0.181751
C28   C     C_1   0.629626 0.537634 0.874012 -0.181438
C29   C     C_R   0.430740 0.080979 0.371376 0.312916
C30   C     C_R   0.568411 0.923809 0.629668 0.330166
C31   C     C_R   0.069266 0.581045 0.128612 0.312853
C32   C     C_R   0.931579 0.423721 0.870347 0.330208
C33   C     C_R   0.382456 0.963759 0.381638 -0.294010
C34   C     C_R   0.617428 0.036628 0.618473 -0.279814
C35   C     C_R   0.117545 0.463783 0.118361 -0.293965
C36   C     C_R   0.882570 0.536601 0.881528 -0.279808
C37   C     C_R   0.380980 0.862637 0.439158 0.409816
C38   C     C_R   0.619345 0.135059 0.560414 0.459889
C39   C     C_R   0.119017 0.362624 0.060850 0.409672
C40   C     C_R   0.880657 0.635074 0.939578 0.459953
C41   C     C_R   0.428980 0.870025 0.485487 -0.136782
C42   C     C_R   0.570787 0.131094 0.514591 -0.111621
C43   C     C_R   0.071012 0.369976 0.014530 -0.136879
C44   C     C_R   0.929215 0.631114 0.985400 -0.111601
C45   C     C_R   0.475797 0.995550 0.476808 -0.166184
C46   C     C_R   0.523020 0.010066 0.524289 -0.160371
C47   C     C_R   0.024199 0.495538 0.023196 -0.166153
C48   C     C_R   0.976975 0.510038 0.975716 -0.160306
C49   C     C_R   0.475583 0.105901 0.420539 -0.065729
C50   C     C_R   0.522241 0.904148 0.581586 -0.047076
C51   C     C_R   0.024421 0.605950 0.079450 -0.065798
C52   C     C_R   0.977745 0.404052 0.918434 -0.047104
C53   C     C_R   0.430721 0.756692 0.540860 0.346785
C54   C     C_R   0.569439 0.244049 0.459009 0.369449
C55   C     C_R   0.069259 0.256570 0.959176 0.346747
C56   C     C_R   0.930569 0.744126 0.040967 0.369368
C57   C     C_R   0.474419 0.783216 0.590189 0.391561
C58   C     C_R   0.520851 0.237898 0.414169 0.379098
C59   C     C_R   0.025555 0.283045 0.909852 0.391756
C60   C     C_R   0.979158 0.737983 0.085806 0.379097
O21   O     O_3   0.001427 0.232453 0.393482 -0.520118
C61   C     C_3   0.029518 0.401883 0.410288 -0.130748
H1    H     H_    0.074464 0.379260 0.432487 0.113342
H2    H     H_    0.003074 0.485095 0.442680 0.155684
H3    H     H_    0.033798 0.484891 0.366128 0.156659
O22   O     O_3   0.999041 0.768305 0.607075 -0.522714
C62   C     C_3   0.971096 0.598520 0.590432 -0.139519
H4    H     H_    0.997568 0.515362 0.558051 0.155800
H5    H     H_    0.926104 0.620633 0.568291 0.118147
H6    H     H_    0.966965 0.515708 0.634665 0.149842
O23   O     O_3   0.498575 0.732429 0.106522 -0.520114
C63   C     C_3   0.470466 0.901843 0.089725 -0.130744
H7    H     H_    0.425504 0.879191 0.067577 0.113343
H8    H     H_    0.496874 0.985030 0.057292 0.155647
H9    H     H_    0.466224 0.984892 0.133882 0.156683
O24   O     O_3   0.500957 0.268336 0.892920 -0.522711
C64   C     C_3   0.528906 0.098546 0.909558 -0.139523
H10   H     H_    0.502437 0.015376 0.941936 0.155805
H11   H     H_    0.573898 0.120650 0.931698 0.118143
H12   H     H_    0.533039 0.015750 0.865322 0.149847
O25   O     O_3   0.912870 0.267059 0.474128 -0.626187
H13   H     H_    0.882879 0.264624 0.506105 0.290239
O26   O     O_3   0.087522 0.733367 0.526317 -0.626802
H14   H     H_    0.117506 0.735833 0.494333 0.290391
O27   O     O_3   0.587126 0.767048 0.025873 -0.626171
H15   H     H_    0.617117 0.764615 0.993896 0.290235
O28   O     O_3   0.412479 0.233388 0.973679 -0.626800
H16   H     H_    0.382495 0.235852 0.005663 0.290396
O29   O     O_3   0.435912 0.168513 0.313100 -0.601349
H17   H     H_    0.415460 0.094474 0.278636 0.282245
O30   O     O_3   0.565044 0.830497 0.687123 -0.603161
H18   H     H_    0.584881 0.904694 0.721961 0.276826
O31   O     O_3   0.064100 0.668640 0.186878 -0.601339
H19   H     H_    0.084546 0.594611 0.221350 0.282266
O32   O     O_3   0.934945 0.330373 0.812900 -0.603190
H20   H     H_    0.915110 0.404556 0.778056 0.276833
O33   O     O_3   0.332368 0.754350 0.449313 -0.524093
C65   C     C_3   0.291011 0.865373 0.479051 -0.121844
H21   H     H_    0.309094 0.920346 0.525938 0.133485
H22   H     H_    0.252543 0.777729 0.488305 0.152457
H23   H     H_    0.275247 0.982241 0.447627 0.078049
O34   O     O_3   0.668948 0.237381 0.549043 -0.515034
C66   C     C_3   0.710855 0.117160 0.524270 -0.165102
H24   H     H_    0.747765 0.202401 0.508628 0.150509
H25   H     H_    0.692553 0.037868 0.481913 0.118864
H26   H     H_    0.729016 0.018760 0.561325 0.095489
O35   O     O_3   0.167632 0.254353 0.050693 -0.524184
C67   C     C_3   0.208972 0.365377 0.020935 -0.121973
H27   H     H_    0.190877 0.420290 0.974044 0.133515
H28   H     H_    0.247446 0.277752 0.011685 0.152479
H29   H     H_    0.224730 0.482278 0.052343 0.078112
O36   O     O_3   0.831055 0.737425 0.950940 -0.515023
C68   C     C_3   0.789156 0.617248 0.975745 -0.165128
H30   H     H_    0.752222 0.702493 0.991324 0.150498
H31   H     H_    0.807454 0.538158 0.018151 0.118914
H32   H     H_    0.771033 0.518672 0.938733 0.095476
O37   O     O_3   0.387273 0.626946 0.550007 -0.527102
C69   C     C_3   0.407347 0.449452 0.532531 -0.111106
H33   H     H_    0.449560 0.411446 0.558612 0.136176
H34   H     H_    0.411544 0.441321 0.480128 0.116393
H35   H     H_    0.374463 0.344126 0.544915 0.144655
O38   O     O_3   0.612958 0.375796 0.451946 -0.523655
C70   C     C_3   0.644303 0.335899 0.397429 -0.096708
H36   H     H_    0.626182 0.416977 0.355644 0.174860
H37   H     H_    0.645402 0.184853 0.385138 0.093297
H38   H     H_    0.690280 0.381670 0.407161 0.142148
O39   O     O_3   0.112687 0.126745 0.950036 -0.527089
C71   C     C_3   0.092658 0.949377 0.967704 -0.111184
H39   H     H_    0.050187 0.911695 0.942117 0.135435
H40   H     H_    0.088994 0.941228 0.020182 0.117209
H41   H     H_    0.125306 0.843805 0.954896 0.144650
O40   O     O_3   0.887056 0.875922 0.048007 -0.523661
C72   C     C_3   0.855731 0.836223 0.102556 -0.096670
H42   H     H_    0.873832 0.917586 0.144278 0.174826
H43   H     H_    0.854688 0.685255 0.114955 0.093347
H44   H     H_    0.809738 0.881805 0.092806 0.142099
O41   O     O_3   0.471485 0.679170 0.645564 -0.516210
C73   C     C_3   0.433414 0.769681 0.686058 -0.094482
H45   H     H_    0.387574 0.769767 0.665055 0.135771
H46   H     H_    0.447931 0.914816 0.697093 0.123819
H47   H     H_    0.433924 0.692604 0.732013 0.165197
O42   O     O_3   0.519569 0.358935 0.362610 -0.520151
C74   C     C_3   0.492355 0.526421 0.379689 -0.127536
H48   H     H_    0.510562 0.582532 0.426425 0.117324
H49   H     H_    0.444267 0.507002 0.380291 0.145990
H50   H     H_    0.500098 0.632764 0.342732 0.161601
O43   O     O_3   0.028463 0.178838 0.854510 -0.516098
C75   C     C_3   0.066537 0.269167 0.813976 -0.094227
H51   H     H_    0.112383 0.269200 0.834962 0.135779
H52   H     H_    0.052046 0.414309 0.802905 0.123778
H53   H     H_    0.066000 0.191984 0.768041 0.165165
O44   O     O_3   0.980448 0.859074 0.137350 -0.520136
C76   C     C_3   0.007637 0.026567 0.120237 -0.127597
H54   H     H_    0.989491 0.082469 0.073448 0.117214
H55   H     H_    0.055732 0.007268 0.119735 0.145977
H56   H     H_    0.999804 0.133035 0.157119 0.161567

loop_
_geom_bond_atom_site_label_1
_geom_bond_atom_site_label_2
_ccdc_geom_bond_type
C44   C56   A    
C55   C59   A    
O43   C75   S    
C40   O36   S    
C34   C38   A    
O34   C66   S    
C32   C52   A    
C31   C35   A    
O19   V1    S    
O31   H19   S    
O13   V1    S    
O12   C8    A    
O1    C5    A    
O3    C7    A    
O23   C63   S    
C5    C27   S    
C56   C60   A    
O15   V3    S    
O41   C73   S    
C74   H49   S    
O21   C61   S    
O7    C3    A    
C68   H31   S    
C22   C25   T    
C64   H10   S    
C10   O26   S    
C40   C44   A    
C55   O39   S    
O40   C72   S    
C70   H37   S    
C14   C18   A    
C30   C34   A    
O4    C8    A    
C61   H2    S    
C51   C60   A    
C7    C25   S    
O30   H18   S    
C63   H9    S    
O1    V3    S    
O2    V4    S    
O3    V1    S    
C70   H36   S    
C30   C50   A    
C1    O15   A    
C24   C27   T    
O28   H16   S    
C2    O16   A    
C67   H27   S    
C76   H55   S    
C63   H8    S    
C46   C50   A    
O26   H14   S    
C45   C49   A    
O14   V2    S    
C39   O35   S    
C73   H46   S    
C11   O27   S    
C75   H53   S    
C44   C48   A    
C68   H30   S    
C31   C51   A    
O11   C7    A    
C17   O22   S    
O39   C71   S    
C72   H43   S    
C30   O30   S    
C72   H42   S    
C69   H35   S    
C10   C17   A    
O10   V2    S    
C52   C59   A    
C29   O29   S    
C56   O40   S    
C74   H50   S    
O5    V1    S    
C8    C26   S    
C42   C54   A    
C68   H32   S    
C39   C43   A    
O7    V3    S    
C38   C42   A    
O8    V4    S    
C12   C16   A    
C70   H38   S    
C9    O25   S    
C19   O24   S    
O27   H15   S    
C74   H48   S    
C38   O34   S    
C29   C33   A    
C61   H1    S    
C15   C19   A    
C31   O31   S    
C9    C13   A    
C32   C36   A    
C59   O43   S    
C1    C35   S    
C11   C15   A    
C66   H25   S    
O5    C1    A    
C62   H5    S    
C73   H47   S    
C54   C58   A    
C71   H41   S    
C53   C57   A    
O8    C4    A    
C76   H56   S    
C63   H7    S    
C12   O28   S    
O9    C5    A    
C48   C52   A    
C18   O21   S    
O2    C6    A    
O11   V3    S    
C11   C20   A    
O33   C65   S    
O38   C70   S    
O44   C76   S    
O6    V2    S    
C71   H40   S    
C72   H44   S    
O42   C74   S    
C32   O32   S    
C69   H34   S    
O12   V4    S    
C9    C18   A    
C50   C57   A    
C65   H22   S    
O35   C67   S    
C49   C58   A    
C62   H4    S    
C75   H51   S    
C15   C23   S    
O29   H17   S    
O16   V4    S    
O9    V1    S    
C16   C24   S    
C2    C36   S    
C3    O13   A    
C41   C53   A    
C10   C14   A    
C57   O41   S    
O17   V3    S    
C29   C49   A    
C37   O33   S    
O36   C68   S    
C61   H3    S    
O6    C2    A    
O32   H20   S    
C33   C37   A    
C23   C28   T    
O18   V4    S    
C73   H45   S    
O25   H13   S    
C35   C39   A    
C64   H11   S    
C36   C40   A    
C58   O42   S    
O10   C6    A    
C65   H23   S    
O20   V2    S    
C66   H26   S    
C4    C34   S    
C47   C48   A    
C20   O23   S    
C3    C33   S    
O37   C69   S    
C62   H6    S    
C47   C51   A    
O22   C62   S    
C42   C46   A    
C21   C26   T    
C67   H29   S    
C41   C45   A    
O24   C64   S    
C75   H52   S    
C6    C28   S    
C43   C47   A    
C13   C17   A    
C45   C46   A    
C53   O37   S    
C14   C22   S    
C54   O38   S    
C37   C41   A    
C16   C20   A    
C71   H39   S    
C67   H28   S    
C76   H54   S    
C4    O14   A    
C69   H33   S    
C12   C19   A    
C64   H12   S    
C65   H21   S    
C60   O44   S    
C13   C21   S    
C43   C55   A    
O4    V2    S    
C66   H24   S    
