data_mof_unit_6559.cif
_audit_creation_date              2012-12-10T19:24:07-0500
_audit_creation_method            fapswitch 2.2
_symmetry_space_group_name_H-M    P1
_symmetry_Int_Tables_number       1
_space_group_crystal_system       triclinic
_cell_length_a                    10.489267
_cell_length_b                    10.501651
_cell_length_c                    9.850656
_cell_angle_alpha                 91.877965
_cell_angle_beta                  90.180329
_cell_angle_gamma                 90.302758
_cell_volume                      1084.49134263

loop_
_atom_site_label
_atom_site_type_symbol
_atom_type_description
_atom_site_fract_x
_atom_site_fract_y
_atom_site_fract_z
_atom_type_partial_charge
C1    C     C_R   0.503677 0.258188 0.498207 0.917466
C2    C     C_3   0.604667 0.546137 0.049498 0.234624
C3    C     C_R   0.257995 0.498062 0.499345 0.893861
C4    C     C_R   0.742005 0.501938 0.500655 0.893848
C5    C     C_3   0.041790 0.408674 0.582454 -0.219863
C6    C     C_3   0.958210 0.591327 0.417546 -0.219858
C7    C     C_3   0.954292 0.385311 0.456842 -0.193891
C8    C     C_3   0.045708 0.614689 0.543157 -0.193885
C9    C     C_3   0.877014 0.502304 0.502390 -0.032062
C10   C     C_3   0.122986 0.497696 0.497610 -0.032060
C11   C     C_3   0.962499 0.525456 0.626656 0.253238
C12   C     C_R   0.496322 0.741812 0.501793 0.917488
C13   C     C_3   0.037500 0.474544 0.373344 0.253241
C14   C     C_3   0.576224 0.044773 0.599314 -0.000486
C15   C     C_3   0.423774 0.955227 0.400687 -0.000483
C16   C     C_3   0.617144 0.954336 0.482355 0.143587
C17   C     C_3   0.382854 0.045664 0.517645 0.143593
C18   C     C_3   0.495629 0.876734 0.504162 -0.116909
C19   C     C_3   0.504369 0.123266 0.495838 -0.116899
C20   C     C_3   0.920495 0.556118 0.771748 -0.895002
C21   C     C_3   0.079504 0.443881 0.228252 -0.894999
C22   C     C_3   0.749995 0.898905 0.463461 -0.891266
C23   C     C_3   0.453959 0.965937 0.622576 -0.237792
C24   C     C_3   0.250004 0.101095 0.536539 -0.891279
C25   C     C_2   0.664202 0.097744 0.707642 0.924673
C26   C     C_2   0.335794 0.902259 0.292359 0.924657
C27   C     C_3   0.473420 0.251701 0.090757 -0.756423
C28   C     C_3   0.526579 0.748299 0.909243 -0.756466
C29   C     C_3   0.272167 0.397461 0.892875 -0.869806
C30   C     C_3   0.727833 0.602539 0.107125 -0.869809
C31   C     C_3   0.546039 0.034063 0.377424 -0.237788
C32   C     C_3   0.487552 0.386645 0.042928 0.189552
C33   C     C_3   0.512448 0.613355 0.957072 0.189562
C34   C     C_3   0.593206 0.432144 0.948340 -0.143454
C35   C     C_3   0.406794 0.567856 0.051660 -0.143465
C36   C     C_3   0.395333 0.453863 0.950502 0.234627
H1    H     H_    0.913036 0.292471 0.421161 0.167490
H2    H     H_    0.857975 0.641096 0.773765 0.242508
H3    H     H_    0.867939 0.473731 0.812140 0.249474
H4    H     H_    0.994803 0.423561 0.163301 0.230196
H5    H     H_    0.132065 0.526266 0.187861 0.249476
H6    H     H_    0.142020 0.358900 0.226234 0.242508
H7    H     H_    0.820368 0.977216 0.453082 0.264915
H8    H     H_    0.775585 0.842093 0.552545 0.232286
H9    H     H_    0.751751 0.836608 0.370453 0.232301
H10   H     H_    0.179630 0.022784 0.546916 0.264905
H11   H     H_    0.248247 0.163391 0.629548 0.232309
H12   H     H_    0.086964 0.707530 0.578839 0.167488
H13   H     H_    0.224414 0.157909 0.447456 0.232288
H14   H     H_    0.820243 0.204087 0.752814 0.332359
H15   H     H_    0.179773 0.795889 0.247180 0.332353
H16   H     H_    0.458483 0.185588 0.001881 0.259186
H17   H     H_    0.562448 0.225416 0.143090 0.237705
H18   H     H_    0.390262 0.244819 0.159509 0.244004
H19   H     H_    0.541513 0.814412 0.998120 0.259171
H20   H     H_    0.609738 0.755183 0.840492 0.244002
H21   H     H_    0.437551 0.774583 0.856909 0.237708
H22   H     H_    0.216391 0.354532 0.975322 0.227206
H23   H     H_    0.078916 0.334909 0.650121 0.157634
H24   H     H_    0.214509 0.473548 0.847942 0.249644
H25   H     H_    0.294167 0.322503 0.814706 0.254606
H26   H     H_    0.783609 0.645468 0.024678 0.227205
H27   H     H_    0.705833 0.677497 0.185294 0.254604
H28   H     H_    0.785491 0.526452 0.152057 0.249645
H29   H     H_    0.921084 0.665092 0.349879 0.157632
H30   H     H_    0.413339 0.939754 0.721375 0.178363
H31   H     H_    0.586659 0.060246 0.278625 0.178361
H32   H     H_    0.670535 0.374072 0.901523 0.151399
H33   H     H_    0.329465 0.625928 0.098477 0.151392
H34   H     H_    0.005196 0.576443 0.836698 0.230196
N1    N     N_3   0.499910 0.500030 0.863290 -0.101297
N2    N     N_3   0.500090 0.499970 0.136710 -0.101297
O1    O     O_R   0.500010 0.313960 0.616610 -0.613742
O2    O     O_R   0.768360 0.172660 0.671306 -0.827245
O3    O     O_2   0.355700 0.924456 0.173277 -0.656517
O4    O     O_R   0.231661 0.827305 0.328689 -0.827238
O5    O     O_R   0.499990 0.686040 0.383390 -0.613738
O6    O     O_R   0.500060 0.313950 0.383350 -0.628308
O7    O     O_R   0.499940 0.686050 0.616650 -0.628310
O8    O     O_R   0.313930 0.499970 0.616610 -0.626795
O9    O     O_R   0.686070 0.500030 0.383390 -0.626793
O10   O     O_R   0.313980 0.499960 0.383350 -0.606114
O11   O     O_R   0.686020 0.500040 0.616650 -0.606122
O12   O     O_2   0.644273 0.075588 0.826727 -0.656526
Zn1   Zn    Zn3+2 0.499970 0.500010 0.655740 0.948725
Zn2   Zn    Zn3+2 0.500030 0.499990 0.344260 0.948726

loop_
_geom_bond_atom_site_label_1
_geom_bond_atom_site_label_2
_ccdc_geom_bond_type
C15   C18   S    
C30   H28   S    
C35   C36   S    
C19   C31   S    
C6    C9    S    
C28   H20   S    
C27   H18   S    
C32   N2    S    
C28   H21   S    
C16   C31   S    
C31   H31   S    
C21   H4    S    
C29   C36   S    
C17   C23   S    
C32   C36   S    
C23   H30   S    
C5    C11   S    
H14   O2    S    
C28   C33   S    
C12   O7    A    
C7    C9    S    
C25   O2    S    
C17   C19   S    
N1    Zn1   S    
C6    H29   S    
C22   H8    S    
C4    O9    A    
C25   O12   D    
C26   O4    S    
O9    Zn2   S    
C36   N1    S    
C2    C34   S    
C30   H27   S    
C1    O6    A    
C20   H34   S    
C2    N2    S    
C3    O8    A    
C28   H19   S    
C29   H25   S    
C11   C20   S    
C1    C19   S    
C17   C24   S    
C5    H23   S    
C18   C23   S    
H15   O4    S    
C34   H32   S    
C5    C7    S    
C20   H3    S    
C15   C26   S    
C6    C8    S    
O10   Zn2   S    
C32   C34   S    
C14   C23   S    
C8    H12   S    
O8    Zn1   S    
C20   H2    S    
C22   H7    S    
C29   H24   S    
C12   O5    A    
C3    O10   A    
C26   O3    D    
C7    H1    S    
C13   C21   S    
C9    C11   S    
O1    Zn1   S    
C21   H5    S    
C2    C33   S    
C16   C18   S    
O11   Zn1   S    
O5    Zn2   S    
C30   H26   S    
C14   C16   S    
O7    Zn1   S    
C27   H16   S    
C24   H13   S    
C15   C17   S    
C16   C22   S    
C27   C32   S    
C24   H11   S    
C14   C19   S    
C10   C13   S    
C35   N2    S    
N2    Zn2   S    
C27   H17   S    
C15   C31   S    
C2    C30   S    
C1    O1    A    
C24   H10   S    
C5    C10   S    
C3    C10   S    
C6    C13   S    
O6    Zn2   S    
C4    O11   A    
C8    C11   S    
C33   C35   S    
C14   C25   S    
C33   N1    S    
C21   H6    S    
C7    C13   S    
C22   H9    S    
C29   H22   S    
C35   H33   S    
C8    C10   S    
C12   C18   S    
C4    C9    S    
C34   N1    S    
