data_mof_unit_41921.cif
_audit_creation_date              2013-03-05T16:12:51-0500
_audit_creation_method            fapswitch 2.2
_symmetry_space_group_name_H-M    P1
_symmetry_Int_Tables_number       1
_space_group_crystal_system       triclinic
_cell_length_a                    10.706311
_cell_length_b                    9.827916
_cell_length_c                    27.706387
_cell_angle_alpha                 90.194255
_cell_angle_beta                  89.953997
_cell_angle_gamma                 89.944281
_cell_volume                      2915.26705106

loop_
_atom_site_label
_atom_site_type_symbol
_atom_site_description
_atom_site_fract_x
_atom_site_fract_y
_atom_site_fract_z
_atom_type_partial_charge
O1    O     O_R   0.316770 0.614620 0.500000 -0.634602
O2    O     O_R   0.683230 0.385380 0.500000 -0.634133
O3    O     O_R   0.683230 0.614620 0.500000 -0.627600
O4    O     O_R   0.316770 0.385380 0.500000 -0.627603
C1    C     C_R   0.259857 0.500045 0.499941 0.886381
C2    C     C_R   0.740144 0.499953 0.500073 0.887925
O5    O     O_R   0.500030 0.614650 0.428760 -0.618485
O6    O     O_R   0.499970 0.385350 0.571240 -0.617636
O7    O     O_R   0.499970 0.614650 0.571240 -0.583688
O8    O     O_R   0.500030 0.385350 0.428760 -0.580789
C3    C     C_R   0.497135 0.499750 0.406128 0.959906
C4    C     C_R   0.502182 0.500257 0.593839 0.961481
Zn1   Zn    Zn3+2 0.500000 0.653120 0.500000 0.990293
Zn2   Zn    Zn3+2 0.500000 0.346880 0.500000 0.991676
C5    C     C_R   0.416514 0.601104 0.177571 0.635519
C6    C     C_R   0.568180 0.414930 0.822030 0.600872
O9    O     O_2   0.346992 0.692047 0.202475 -0.490860
O10   O     O_2   0.650745 0.338318 0.797024 -0.500094
N1    N     N_R   0.488323 0.508855 0.201702 -0.331234
N2    N     N_R   0.484852 0.495125 0.798025 -0.331732
C7    C     C_R   0.560268 0.415297 0.178019 0.598053
C8    C     C_R   0.398762 0.573005 0.821792 0.633908
C9    C     C_R   0.561978 0.599185 0.278752 0.326024
C10   C     C_R   0.410895 0.414052 0.719809 0.326119
C11   C     C_R   0.564229 0.594848 0.328742 -0.267174
C12   C     C_R   0.417830 0.414452 0.669863 -0.268933
C13   C     C_R   0.413542 0.408927 0.328233 0.180346
C14   C     C_R   0.583014 0.584981 0.672891 0.176292
C15   C     C_R   0.411916 0.412131 0.277610 0.281427
C16   C     C_R   0.576991 0.584043 0.723502 0.282207
C17   C     C_R   0.486188 0.508018 0.253154 0.070862
C18   C     C_R   0.489469 0.499375 0.746638 0.071732
C19   C     C_R   0.486726 0.504258 0.101736 -0.046685
C20   C     C_R   0.482046 0.493922 0.897981 -0.046923
C21   C     C_R   0.414070 0.600348 0.127108 -0.042782
C22   C     C_R   0.568173 0.412494 0.872478 -0.038573
C23   C     C_R   0.340848 0.693228 0.101754 -0.099822
C24   C     C_R   0.653358 0.332256 0.897684 -0.097393
C25   C     C_R   0.560921 0.411236 0.127581 -0.037266
C26   C     C_R   0.396091 0.574420 0.872255 -0.041530
C27   C     C_R   0.491659 0.499807 0.353634 -0.207853
C28   C     C_R   0.501834 0.500465 0.646277 -0.204036
H1    H     H_    0.285964 0.769613 0.120485 0.204307
H2    H     H_    0.721613 0.270307 0.878818 0.204767
C29   C     C_R   0.398996 0.583099 0.974211 0.043714
C30   C     C_R   0.562623 0.407129 0.025580 0.043566
C31   C     C_R   0.566447 0.409846 0.974488 0.043333
C32   C     C_R   0.405694 0.591699 0.025182 0.043974
C33   C     C_R   0.482349 0.495444 0.949097 0.082841
C34   C     C_R   0.485021 0.501029 0.050630 0.082810
C35   C     C_R   0.310992 0.658819 0.947286 -0.197450
C36   C     C_R   0.633520 0.312966 0.052708 -0.199298
C37   C     C_R   0.309923 0.654544 0.897266 -0.098950
C38   C     C_R   0.632718 0.315421 0.102731 -0.099187
O11   O     O_2   0.317289 0.649754 0.796548 -0.494982
O12   O     O_2   0.630625 0.326623 0.203346 -0.503347
C39   C     C_R   0.336715 0.689373 0.051755 -0.197841
C40   C     C_R   0.652819 0.330857 0.947708 -0.198350
H3    H     H_    0.356059 0.348943 0.649313 0.201498
H4    H     H_    0.624015 0.664899 0.348253 0.204337
H5    H     H_    0.241304 0.715160 0.878246 0.203914
H6    H     H_    0.688734 0.241290 0.121877 0.204549
H7    H     H_    0.239565 0.720661 0.963784 0.151643
H8    H     H_    0.688787 0.233506 0.036448 0.151505
H9    H     H_    0.280529 0.766847 0.034983 0.151440
H10   H     H_    0.723969 0.269196 0.964256 0.151614
C41   C     C_R   0.064118 0.380601 0.487785 -0.142329
C42   C     C_R   0.935885 0.619375 0.512268 -0.140673
C43   C     C_R   0.936163 0.380482 0.487924 -0.169490
C44   C     C_R   0.063842 0.619495 0.512129 -0.168587
H11   H     H_    0.113108 0.288055 0.477888 0.169061
H12   H     H_    0.886892 0.711919 0.522164 0.168242
H13   H     H_    0.887389 0.287850 0.478135 0.166066
H14   H     H_    0.112620 0.712125 0.521916 0.165968
C45   C     C_R   0.872549 0.499894 0.500128 -0.020178
C46   C     C_R   0.127454 0.500091 0.499913 -0.020455
C47   C     C_R   0.589854 0.072130 0.524343 -0.053004
C48   C     C_R   0.410114 0.927862 0.475679 -0.051472
C49   C     C_R   0.410029 0.071810 0.475737 -0.031747
C50   C     C_R   0.589869 0.928168 0.524331 -0.035868
H15   H     H_    0.661600 0.126832 0.543834 0.147278
H16   H     H_    0.338332 0.873163 0.456207 0.147555
H17   H     H_    0.337962 0.126202 0.456444 0.164801
H18   H     H_    0.661729 0.873729 0.543748 0.162529
N3    N     N_R   0.500000 0.857200 0.500000 -0.093293
N4    N     N_R   0.500000 0.142800 0.500000 -0.093187
Br1   Br    Br    0.297695 0.292195 0.361828 -0.416485
Br2   Br    Br    0.703084 0.699979 0.640796 -0.409250
N5    N     N_R   0.335569 0.318377 0.250891 0.241709
O13   O     O_R   0.345214 0.188176 0.258375 -0.273861
O14   O     O_R   0.261470 0.361918 0.217087 -0.348888
N6    N     N_R   0.660442 0.666725 0.751572 0.240635
O15   O     O_R   0.780665 0.654345 0.746268 -0.277439
O16   O     O_R   0.617120 0.746989 0.785067 -0.346842
Br3   Br    Br    0.294493 0.294315 0.750641 -0.372431
Br4   Br    Br    0.666233 0.728176 0.246173 -0.372370

loop_
_geom_bond_atom_site_label_1
_geom_bond_atom_site_label_2
_geom_bond_distance
_ccdc_geom_bond_type
C16   C18   1.409084 A    
C48   H16   1.081745 S    
C13   C15   1.403165 A    
C50   H18   1.081373 S    
O3    C2    1.280612 A    
N1    C17   1.425766 S    
C15   N5    1.436299 S    
C32   C39   1.414876 A    
C31   C33   1.420150 A    
C42   C45   1.396794 A    
O5    C3    1.290194 A    
C19   C25   1.408353 A    
O1    C1    1.280840 A    
N1    C7    1.364938 A    
C10   C12   1.385784 A    
C29   C32   1.416339 A    
C25   C38   1.394621 A    
C29   C35   1.414766 A    
C30   C36   1.414822 A    
C14   Br2   1.930902 S    
C9    Br4   1.917453 S    
C14   C28   1.409729 A    
O7    Zn1   2.010943 S    
C4    C28   1.452850 S    
C24   C40   1.386104 A    
C37   H5    1.083602 S    
C40   H10   1.076690 S    
C44   H14   1.083741 S    
C43   H13   1.083742 S    
C11   H4    1.083880 S    
C47   H15   1.081741 S    
N5    O14   1.301136 A    
C12   H3    1.083974 S    
C20   C22   1.408435 A    
O3    Zn1   1.997513 S    
C6    N2    1.364764 A    
C32   C34   1.419949 A    
O2    C2    1.280827 A    
C5    C21   1.398405 A    
C36   C38   1.386113 A    
C2    C45   1.417578 S    
C35   H7    1.076936 S    
Zn2   N4    2.005681 S    
C16   N6    1.435844 S    
C36   H8    1.076661 S    
C10   Br3   1.917171 S    
C11   C27   1.398819 A    
C48   C49   1.414696 A    
C38   H6    1.083581 S    
C19   C34   1.416338 A    
C42   H12   1.083827 S    
C35   C37   1.386430 A    
C9    C17   1.400791 A    
C23   H1    1.083588 S    
C5    N1    1.365141 A    
C10   C18   1.400543 A    
C24   H2    1.083646 S    
C50   N3    1.365956 A    
C13   C27   1.410893 A    
C7    C25   1.397904 A    
C29   C33   1.419902 A    
O6    C4    1.289655 A    
C8    C26   1.398447 A    
N6    O16   1.300863 A    
C13   Br1   1.931073 S    
C48   N3    1.365780 A    
C6    O10   1.350004 S    
N2    C8    1.364996 A    
C47   N4    1.365893 A    
C44   C46   1.396724 A    
C20   C26   1.408644 A    
O1    Zn1   1.998236 S    
C12   C28   1.398135 A    
N2    C18   1.425324 S    
C47   C50   1.414845 A    
C5    O9    1.350066 S    
C30   C31   1.416485 A    
C20   C33   1.416269 A    
O6    Zn2   2.008425 S    
C21   C23   1.394669 A    
C39   H9    1.076783 S    
O4    C1    1.280590 A    
C7    O12   1.350201 S    
C8    O11   1.349914 S    
C30   C34   1.420163 A    
C1    C46   1.417552 S    
C22   C24   1.394526 A    
C15   C17   1.408692 A    
C6    C22   1.398007 A    
C31   C40   1.414883 A    
C49   H17   1.081014 S    
C14   C16   1.403743 A    
N6    O15   1.300924 A    
C19   C21   1.408635 A    
C43   C45   1.396729 A    
C41   H11   1.083830 S    
C9    C11   1.386090 A    
O4    Zn2   1.997513 S    
O2    Zn2   1.998236 S    
O7    C4    1.288913 A    
O8    C3    1.289564 A    
O5    Zn1   2.008431 S    
C42   C44   1.369951 A    
C26   C37   1.394704 A    
C3    C27   1.455638 S    
Zn1   N3    2.005681 S    
C41   C46   1.396789 A    
C41   C43   1.369929 A    
N5    O13   1.301005 A    
C49   N4    1.365912 A    
C23   C39   1.386429 A    
O8    Zn2   2.010948 S    
