data_mof_unit_9043.cif
_audit_creation_date              2012-12-10T20:37:25-0500
_audit_creation_method            fapswitch 2.2
_symmetry_space_group_name_H-M    P1
_symmetry_Int_Tables_number       1
_space_group_crystal_system       triclinic
_cell_length_a                    15.718868
_cell_length_b                    10.672444
_cell_length_c                    9.862395
_cell_angle_alpha                 89.961886
_cell_angle_beta                  90.03144
_cell_angle_gamma                 90.058201
_cell_volume                      1654.50147538

loop_
_atom_site_label
_atom_site_type_symbol
_atom_type_description
_atom_site_fract_x
_atom_site_fract_y
_atom_site_fract_z
_atom_type_partial_charge
C1    C     C_R   0.502550 0.259929 0.500077 0.874948
C2    C     C_3   0.082737 0.496780 0.500034 0.143360
C3    C     C_3   0.972087 0.556174 0.613499 -0.268975
C4    C     C_3   0.917308 0.498566 0.500164 0.144330
C5    C     C_3   0.027631 0.613977 0.501498 0.544916
C6    C     C_3   0.971958 0.558650 0.388192 -0.268773
C7    C     C_1   0.173633 0.497677 0.499962 -0.023029
C8    C     C_1   0.826436 0.499077 0.500168 -0.060879
C9    C     C_R   0.514962 0.063764 0.623288 0.139559
C10   C     C_R   0.516131 0.128564 0.500794 -0.101071
C11   C     C_R   0.533717 0.064907 0.379624 -0.228336
C12   C     C_R   0.337887 0.499798 0.499957 0.911005
C13   C     C_R   0.533895 0.935335 0.379595 -0.228876
C14   C     C_R   0.516453 0.871393 0.500727 -0.100161
C15   C     C_R   0.515196 0.935980 0.623274 0.120401
C16   C     C_3   0.453557 0.928382 0.738424 -0.467939
C17   C     C_3   0.453136 0.070393 0.738213 -0.491843
C18   C     C_R   0.460074 0.406430 0.071292 0.214365
C19   C     C_R   0.545619 0.585974 0.071958 -0.128146
C20   C     C_R   0.545615 0.585998 0.927957 -0.131557
C21   C     C_R   0.459973 0.406531 0.928718 0.215715
C22   C     C_3   0.367555 0.375244 0.923315 -0.514606
C23   C     C_R   0.502732 0.740042 0.499976 0.880024
C24   C     C_3   0.367805 0.374665 0.077240 -0.506612
C25   C     C_R   0.662133 0.500051 0.500051 0.899498
C26   C     C_3   0.971233 0.378865 0.498675 -0.123231
C27   C     C_3   0.027820 0.439044 0.387609 -0.217767
C28   C     C_1   0.248947 0.498704 0.499927 -0.188495
C29   C     C_1   0.751105 0.499589 0.500125 -0.192076
C30   C     C_3   0.027953 0.436587 0.611101 -0.218652
H1    H     H_    0.052835 0.390632 0.296380 0.149878
H2    H     H_    0.482886 0.887596 0.831063 0.200526
H3    H     H_    0.390877 0.111067 0.707706 0.199276
H4    H     H_    0.482021 0.111763 0.830883 0.203149
H5    H     H_    0.581118 0.656861 0.126281 0.140914
H6    H     H_    0.581095 0.656915 0.873602 0.144468
H7    H     H_    0.328578 0.452068 0.879300 0.225955
H8    H     H_    0.355748 0.281251 0.878845 0.196783
H9    H     H_    0.328775 0.450935 0.122067 0.225753
H10   H     H_    0.356678 0.280197 0.121370 0.200819
H11   H     H_    0.945510 0.281951 0.497517 0.133604
H12   H     H_    0.947067 0.608780 0.297861 0.137065
H13   H     H_    0.947301 0.604298 0.705058 0.137094
H14   H     H_    0.053077 0.386179 0.701093 0.149575
H15   H     H_    0.541369 0.114060 0.284247 0.170595
H16   H     H_    0.541652 0.886362 0.284216 0.165982
H17   H     H_    0.391496 0.886519 0.708492 0.210556
N1    N     N_R   0.499430 0.499140 0.142800 -0.105663
N2    N     N_R   0.499430 0.499180 0.857150 -0.104910
O1    O     O_R   0.500010 0.316790 0.614690 -0.616513
O2    O     O_R   0.500000 0.316760 0.385350 -0.624453
O3    O     O_R   0.376780 0.500010 0.614650 -0.615684
O4    O     O_R   0.376770 0.499970 0.385310 -0.612179
O5    O     O_R   0.500000 0.683240 0.614650 -0.621312
O6    O     O_R   0.499990 0.683210 0.385310 -0.625072
O7    O     O_R   0.623230 0.500030 0.614690 -0.614863
O8    O     O_R   0.623220 0.499990 0.385350 -0.615927
Zn1   Zn    Zn3+2 0.500010 0.500020 0.653130 0.945789
Zn2   Zn    Zn3+2 0.499990 0.499980 0.346870 0.945668
O9    O     O_3   0.064198 0.734775 0.502931 -0.610955
C31   C     C_3   0.999082 0.825574 0.504171 0.096300
H18   H     H_    0.958754 0.815873 0.596346 0.133507
H19   H     H_    0.958511 0.817867 0.411988 0.133631
C32   C     C_3   0.038941 0.955522 0.505625 -0.815840
H20   H     H_    0.078884 0.969014 0.413892 0.257360
H21   H     H_    0.988232 0.027906 0.506644 0.195667
H22   H     H_    0.079156 0.967009 0.597428 0.256362

loop_
_geom_bond_atom_site_label_1
_geom_bond_atom_site_label_2
_ccdc_geom_bond_type
C14   C23   S    
C3    C30   S    
C4    C26   S    
N1    Zn2   S    
C23   O6    A    
C20   N2    A    
N2    Zn1   S    
O6    Zn2   S    
C31   C32   S    
C18   C21   A    
C1    O2    A    
C9    C10   A    
C2    C7    S    
C14   C15   A    
C25   O7    A    
C2    C30   S    
C4    C8    S    
C30   H14   S    
C32   H20   S    
C18   N1    A    
C19   C20   A    
C21   N2    A    
O4    Zn2   S    
C17   H4    S    
C19   H5    S    
C21   C22   S    
C5    C6    S    
C11   C13   A    
C3    H13   S    
C26   C27   S    
C2    C27   S    
C12   O4    A    
C17   H3    S    
C12   C28   S    
C18   C24   S    
C8    C29   T    
C16   H17   S    
C9    C17   S    
C12   O3    A    
O7    Zn1   S    
C26   C30   S    
C25   C29   S    
C31   H18   S    
O3    Zn1   S    
C22   C24   S    
C11   H15   S    
C2    C5    S    
C16   H2    S    
C10   C11   A    
C1    C10   S    
C27   H1    S    
C15   C16   S    
O1    Zn1   S    
C32   H22   S    
C25   O8    A    
C26   H11   S    
C24   H9    S    
O2    Zn2   S    
O8    Zn2   S    
C23   O5    A    
C4    C6    S    
C1    O1    A    
O5    Zn1   S    
C31   H19   S    
C13   H16   S    
O9    C31   S    
C19   N1    A    
C5    O9    S    
C24   H10   S    
C13   C14   A    
C22   H7    S    
C6    H12   S    
C22   H8    S    
C7    C28   T    
C6    C27   S    
C9    C15   A    
C32   H21   S    
C16   C17   S    
C3    C5    S    
C3    C4    S    
C20   H6    S    
