data_mof_unit_45162.cif
_audit_creation_date              2013-03-05T16:05:19-0500
_audit_creation_method            fapswitch 2.2
_symmetry_space_group_name_H-M    P1
_symmetry_Int_Tables_number       1
_space_group_crystal_system       triclinic
_cell_length_a                    26.982593
_cell_length_b                    7.204694
_cell_length_c                    22.816647
_cell_angle_alpha                 90.008116
_cell_angle_beta                  101.673122
_cell_angle_gamma                 89.996649
_cell_volume                      4343.8488414

loop_
_atom_site_label
_atom_site_type_symbol
_atom_site_description
_atom_site_fract_x
_atom_site_fract_y
_atom_site_fract_z
_atom_type_partial_charge
O1    O     O_R   0.707300 0.594030 0.176840 -0.578529
O2    O     O_R   0.292700 0.405970 0.823160 -0.586036
O3    O     O_R   0.792700 0.094030 0.323160 -0.579799
O4    O     O_R   0.207300 0.905970 0.676840 -0.572264
O5    O     O_R   0.697330 0.262360 0.295660 -0.591257
O6    O     O_R   0.302670 0.737640 0.704340 -0.593067
O7    O     O_R   0.802670 0.762360 0.204340 -0.590679
O8    O     O_R   0.197330 0.237640 0.795660 -0.594218
C1    C     C_R   0.684631 0.432195 0.311661 0.927231
C2    C     C_R   0.315064 0.567842 0.688047 0.930200
C3    C     C_R   0.815413 0.932196 0.188392 0.930636
C4    C     C_R   0.184935 0.067850 0.811951 0.926910
O9    O     O_R   0.701410 0.264250 0.175600 -0.578656
O10   O     O_R   0.298590 0.735750 0.824400 -0.571622
O11   O     O_R   0.798590 0.764250 0.324400 -0.577842
O12   O     O_R   0.201410 0.235750 0.675600 -0.571706
O13   O     O_R   0.796800 0.094950 0.202240 -0.593057
O14   O     O_R   0.203200 0.905050 0.797760 -0.590197
O15   O     O_R   0.703200 0.594950 0.297760 -0.592853
O16   O     O_R   0.296800 0.405050 0.702240 -0.591991
C5    C     C_R   0.689837 0.432689 0.153254 0.910582
C6    C     C_R   0.309984 0.567372 0.846824 0.899821
C7    C     C_R   0.810646 0.932590 0.346562 0.911191
C8    C     C_R   0.189560 0.067150 0.653324 0.898245
O17   O     O_3   0.781290 0.427390 0.258880 -0.274688
O18   O     O_3   0.218710 0.572610 0.741120 -0.269066
O19   O     O_3   0.718710 0.927390 0.241120 -0.274755
O20   O     O_3   0.281290 0.072610 0.758880 -0.279637
V1    V     V_3+5 0.744190 0.152150 0.248350 1.196169
V2    V     V_3+5 0.255810 0.847850 0.751650 1.202872
V3    V     V_3+5 0.755810 0.652150 0.251650 1.196901
V4    V     V_3+5 0.244190 0.347850 0.748350 1.198559
C9    C     C_R   0.156204 0.057363 0.593048 -0.189092
C10   C     C_R   0.844843 0.936104 0.406459 -0.203479
C11   C     C_R   0.343302 0.560022 0.906834 -0.204341
C12   C     C_R   0.656195 0.440164 0.093338 -0.204854
C13   C     C_R   0.143540 0.064232 0.483970 -0.061045
C14   C     C_R   0.859921 0.886411 0.514534 -0.065978
C15   C     C_R   0.356643 0.564193 0.015717 -0.051762
C16   C     C_R   0.643050 0.445220 0.984359 -0.061160
C17   C     C_R   0.176019 0.083383 0.541034 -0.153685
C18   C     C_R   0.825690 0.904839 0.458684 -0.121421
C19   C     C_R   0.323693 0.585742 0.959100 -0.146452
C20   C     C_R   0.675936 0.422466 0.040924 -0.117439
C21   C     C_R   0.104536 0.019448 0.588080 -0.080584
C22   C     C_R   0.897088 0.959284 0.410592 -0.108688
C23   C     C_R   0.395213 0.530329 0.911146 -0.090930
C24   C     C_R   0.604302 0.469764 0.089185 -0.098023
C25   C     C_R   0.072032 0.984301 0.532028 0.129369
C26   C     C_R   0.932561 0.926371 0.464708 0.130592
C27   C     C_R   0.429761 0.533380 0.966850 0.141082
C28   C     C_R   0.569764 0.471291 0.033429 0.136605
C29   C     C_R   0.091926 0.010748 0.479638 0.053807
C30   C     C_R   0.913226 0.891711 0.517099 0.050642
C31   C     C_R   0.409291 0.531975 0.019285 0.036928
C32   C     C_R   0.590276 0.475588 0.980915 0.038511
C33   C     C_R   0.019866 0.929202 0.526415 -0.107759
C34   C     C_R   0.986681 0.930961 0.468761 -0.108474
C35   C     C_R   0.483810 0.525984 0.971964 -0.104074
C36   C     C_R   0.515654 0.478664 0.028365 -0.103168
C37   C     C_R   0.009499 0.927522 0.417810 0.335153
C38   C     C_R   0.999817 0.862900 0.575453 0.336014
C39   C     C_R   0.491961 0.439780 0.077401 0.344095
C40   C     C_R   0.507316 0.564648 0.922846 0.340311
C41   C     C_R   0.060717 0.971358 0.423843 -0.221286
C42   C     C_R   0.947530 0.850360 0.570532 -0.244099
C43   C     C_R   0.441201 0.485923 0.073889 -0.263381
C44   C     C_R   0.558097 0.519807 0.926317 -0.265846
H1    H     H_    0.076455 0.964403 0.383952 0.202073
H2    H     H_    0.934136 0.797285 0.608819 0.199985
H3    H     H_    0.425788 0.466561 0.113665 0.200653
H4    H     H_    0.573038 0.538319 0.886272 0.210898
H5    H     H_    0.909044 0.003559 0.370505 0.146970
H6    H     H_    0.090372 0.021249 0.629019 0.136719
H7    H     H_    0.591894 0.497385 0.130418 0.140483
H8    H     H_    0.407713 0.499814 0.870140 0.135034
C45   C     C_R   0.860884 0.102974 0.118693 -0.096524
C46   C     C_R   0.117577 0.897576 0.852057 -0.083214
C47   C     C_R   0.639515 0.602653 0.381774 -0.102719
C48   C     C_R   0.382386 0.397522 0.647855 -0.092212
H9    H     H_    0.837963 0.224542 0.121475 0.135327
H10   H     H_    0.122250 0.778596 0.824663 0.148792
H11   H     H_    0.662650 0.723776 0.379213 0.133778
H12   H     H_    0.377625 0.278343 0.675112 0.138344
C49   C     C_R   0.896423 0.110112 0.081912 -0.019421
C50   C     C_R   0.081815 0.888156 0.888552 -0.016008
C51   C     C_R   0.603977 0.609961 0.418558 -0.024879
C52   C     C_R   0.418214 0.388271 0.611442 -0.017957
H13   H     H_    0.899854 0.236402 0.057267 0.134699
H14   H     H_    0.059889 0.762218 0.888658 0.132668
H15   H     H_    0.600683 0.736082 0.443358 0.134339
H16   H     H_    0.440105 0.262267 0.611269 0.131154
C53   C     C_R   0.927816 0.957842 0.077278 -0.019948
C54   C     C_R   0.074682 0.037863 0.925316 -0.019816
C55   C     C_R   0.572418 0.458052 0.423003 -0.020660
C56   C     C_R   0.425448 0.538201 0.574826 -0.016045
C57   C     C_R   0.922662 0.793984 0.109972 -0.031108
C58   C     C_R   0.103606 0.201723 0.924378 -0.029686
C59   C     C_R   0.577418 0.294344 0.390158 -0.029455
C60   C     C_R   0.396553 0.702112 0.575840 -0.024099
C61   C     C_R   0.885871 0.787443 0.146065 -0.059230
C62   C     C_R   0.139002 0.210460 0.886549 -0.101954
C63   C     C_R   0.614156 0.287715 0.353995 -0.068186
C64   C     C_R   0.361105 0.710693 0.613606 -0.102353
H17   H     H_    0.881564 0.661800 0.170628 0.174547
H18   H     H_    0.161270 0.335242 0.885753 0.158699
H19   H     H_    0.618315 0.162258 0.329263 0.174594
H20   H     H_    0.338885 0.835562 0.614481 0.155200
C65   C     C_R   0.854648 0.941086 0.150779 -0.190296
C66   C     C_R   0.146515 0.058869 0.850425 -0.184279
C67   C     C_R   0.645500 0.441080 0.349407 -0.189308
C68   C     C_R   0.353499 0.558897 0.649586 -0.167242
C69   C     C_R   0.017753 0.975259 0.063251 -0.131782
C70   C     C_R   0.985142 0.017802 0.939548 -0.151131
C71   C     C_R   0.482491 0.477688 0.436881 -0.134884
C72   C     C_R   0.515005 0.516097 0.560743 -0.151073
H21   H     H_    0.030844 0.959484 0.111089 0.154972
H22   H     H_    0.972066 0.034107 0.891724 0.144909
H23   H     H_    0.469442 0.463460 0.388983 0.150876
H24   H     H_    0.528046 0.530753 0.608630 0.144749
C73   C     C_R   0.053230 0.996222 0.026537 -0.127290
C74   C     C_R   0.949667 0.998484 0.976300 -0.150251
C75   C     C_R   0.446989 0.498695 0.473560 -0.132093
C76   C     C_R   0.550511 0.496768 0.524025 -0.152954
H25   H     H_    0.093228 0.995278 0.046470 0.154812
H26   H     H_    0.909680 0.000195 0.956311 0.142043
H27   H     H_    0.407010 0.499345 0.453537 0.150578
H28   H     H_    0.590483 0.496815 0.544100 0.140033
C77   C     C_R   0.037164 0.017938 0.964418 0.055647
C78   C     C_R   0.965663 0.975612 0.038392 0.060748
C79   C     C_R   0.463004 0.518366 0.535761 0.058294
C80   C     C_R   0.534555 0.475987 0.461853 0.064393
C81   C     C_2   0.769621 0.898154 0.453682 0.469411
H29   H     H_    0.745303 0.852582 0.412454 0.003290
O21   O     O_2   0.749698 0.950854 0.494229 -0.580826
C82   C     C_2   0.230590 0.134285 0.547770 0.530171
H30   H     H_    0.258055 0.086330 0.586298 0.008415
O22   O     O_2   0.245265 0.235987 0.512010 -0.554879
C83   C     C_2   0.731407 0.388820 0.046858 0.479869
H31   H     H_    0.752631 0.321491 0.086534 0.002800
O23   O     O_2   0.754405 0.440329 0.008905 -0.575939
C84   C     C_2   0.268350 0.624003 0.953174 0.572225
H32   H     H_    0.242001 0.591860 0.911846 -0.003664
O24   O     O_2   0.251419 0.696150 0.993376 -0.554653
C85   C     C_2   0.164471 0.094387 0.429243 0.617027
H33   H     H_    0.200061 0.030397 0.425310 0.049860
O25   O     O_2   0.143164 0.196819 0.389374 -0.538089
C86   C     C_2   0.839547 0.854358 0.569567 0.613201
H34   H     H_    0.810291 0.751032 0.569596 0.044033
O26   O     O_2   0.853910 0.948061 0.614387 -0.550921
C87   C     C_2   0.335736 0.569138 0.070918 0.606534
H35   H     H_    0.325422 0.700831 0.088175 0.068781
O27   O     O_2   0.329246 0.425322 0.096627 -0.544615
C88   C     C_2   0.663936 0.428918 0.929197 0.628913
H36   H     H_    0.682058 0.300742 0.919981 0.037461
O28   O     O_2   0.663565 0.561361 0.895738 -0.552383
N1    N     N_R   0.984204 0.849813 0.361671 0.225498
O29   O     O_R   0.959851 0.693528 0.360760 -0.380521
O30   O     O_R   0.991762 0.918907 0.311504 -0.366585
N2    N     N_R   0.031310 0.778184 0.626862 0.222215
O31   O     O_R   0.066211 0.660361 0.619792 -0.392847
O32   O     O_R   0.020474 0.796846 0.679607 -0.400051
N3    N     N_R   0.516222 0.331261 0.127985 0.226017
O33   O     O_R   0.539147 0.177519 0.119556 -0.384121
O34   O     O_R   0.508791 0.369371 0.181308 -0.378009
N4    N     N_R   0.482686 0.671460 0.872018 0.224739
O35   O     O_R   0.490013 0.632290 0.818728 -0.400188
O36   O     O_R   0.459384 0.824665 0.880102 -0.388946
C89   C     C_2   0.954295 0.627710 0.105669 0.509173
H37   H     H_    0.978383 0.621567 0.073010 0.021094
O37   O     O_2   0.953912 0.494746 0.138766 -0.558743
C90   C     C_2   0.096739 0.364865 0.961786 0.498517
H38   H     H_    0.067187 0.366025 0.987690 0.028365
O38   O     O_2   0.124137 0.500760 0.964215 -0.564291
C91   C     C_2   0.545661 0.128342 0.394365 0.502400
H39   H     H_    0.521386 0.122687 0.426827 0.022637
O39   O     O_2   0.546168 0.995021 0.361430 -0.564416
C92   C     C_2   0.403516 0.865516 0.538604 0.482110
H40   H     H_    0.433250 0.867139 0.512967 0.032159
O40   O     O_2   0.375988 0.001107 0.536017 -0.574676

loop_
_geom_bond_atom_site_label_1
_geom_bond_atom_site_label_2
_geom_bond_distance
_ccdc_geom_bond_type
O17   V3    1.753901 S    
C59   C63   1.413047 A    
C52   C56   1.403266 A    
O1    C5    1.326697 A    
N1    O29   1.301781 A    
C51   H15   1.083481 S    
C3    C65   1.493011 S    
C9    C21   1.402548 A    
C89   H37   1.084267 S    
O3    C7    1.329632 A    
C1    C67   1.492847 S    
C10   C18   1.409600 A    
C60   C64   1.412318 A    
C48   H12   1.083075 S    
C11   C23   1.400562 A    
C4    C66   1.489224 S    
C85   H33   1.085186 S    
C57   C89   1.485601 S    
C33   C38   1.420518 A    
C91   O39   1.221251 D    
C5    C12   1.481088 S    
C42   H2    1.080665 S    
O7    C3    1.341144 A    
C6    C11   1.479101 S    
C35   C40   1.422545 A    
C26   C30   1.419834 A    
C18   C81   1.494761 S    
C40   C44   1.394321 A    
O9    V1    1.991221 S    
N3    O34   1.301701 A    
C86   O26   1.221151 D    
C23   H8    1.079406 S    
C14   C18   1.420683 A    
O4    C8    1.327293 A    
C55   C59   1.418306 A    
C43   H3    1.081136 S    
O19   V1    1.753930 S    
C54   C58   1.417789 A    
C61   C65   1.408256 A    
C15   C87   1.481011 S    
O1    V3    1.974322 S    
O13   V1    1.973829 S    
C31   C43   1.403438 A    
C76   C80   1.404611 A    
O2    V4    1.974323 S    
O3    V1    1.974393 S    
C40   N4    1.437756 S    
C50   C54   1.403249 A    
C73   H25   1.083072 S    
C49   C53   1.402964 A    
C1    O15   1.338330 A    
C15   C31   1.425380 A    
N3    O33   1.301747 A    
C2    O16   1.337203 A    
C16   C32   1.427056 A    
C51   C55   1.402967 A    
O2    C6    1.326361 A    
C87   H35   1.084863 S    
C2    C68   1.489291 S    
C10   C22   1.403653 A    
C21   C25   1.419508 A    
C11   C19   1.411262 A    
C16   C20   1.420064 A    
C88   O28   1.220883 D    
C44   H4    1.079022 S    
C22   H5    1.077914 S    
C76   H28   1.083119 S    
C13   C29   1.429058 A    
C46   C50   1.397947 A    
C34   C37   1.421555 A    
O11   C7    1.328835 A    
O15   V3    1.973918 S    
C35   C36   1.436397 A    
O12   C8    1.330487 A    
N4    O36   1.301737 A    
C89   O37   1.221245 D    
C24   H7    1.078975 S    
C16   C88   1.484069 S    
O10   V2    1.991224 S    
C47   C51   1.397258 A    
C85   O25   1.221136 D    
C90   O38   1.221337 D    
C92   H40   1.084395 S    
O5    V1    1.986546 S    
C71   C80   1.405140 A    
C61   H17   1.083297 S    
C39   C43   1.395849 A    
C54   C77   1.485574 S    
C71   C75   1.401898 A    
C69   C78   1.405223 A    
C38   C42   1.395415 A    
C26   C34   1.444802 A    
C52   H16   1.083479 S    
O7    V3    1.986728 S    
C86   H34   1.085183 S    
C82   O22   1.220794 D    
C50   H14   1.083485 S    
C64   C68   1.407341 A    
C49   H13   1.083460 S    
O18   V4    1.753900 S    
C23   C27   1.416111 A    
C58   C62   1.412346 A    
C72   H24   1.083142 S    
C21   H6    1.078531 S    
O8    V4    1.986730 S    
C74   H26   1.083126 S    
C39   N3    1.437491 S    
O5    C1    1.341039 A    
C37   N1    1.437380 S    
C46   H10   1.083111 S    
C92   O40   1.221357 D    
C91   H39   1.084268 S    
C14   C30   1.428144 A    
C45   H9    1.081427 S    
O8    C4    1.340487 A    
C7    C10   1.486455 S    
C48   C68   1.404716 A    
O9    C5    1.328865 A    
C46   C66   1.404773 A    
C45   C65   1.405259 A    
C14   C86   1.487168 S    
C88   H36   1.085186 S    
C70   H22   1.083147 S    
C56   C79   1.485696 S    
C69   H21   1.083099 S    
O6    V2    1.986547 S    
C60   C92   1.485935 S    
C20   C83   1.495101 S    
C71   H23   1.083090 S    
C36   C39   1.424272 A    
N4    O35   1.301639 A    
C70   C77   1.403577 A    
C38   N2    1.437800 S    
C12   C20   1.409926 A    
C27   C35   1.440298 A    
N1    O30   1.301646 A    
C53   C78   1.487671 S    
C53   C57   1.418351 A    
C75   H27   1.083068 S    
C64   H20   1.083516 S    
C84   O24   1.220549 D    
C29   C41   1.405862 A    
C90   H38   1.084401 S    
O16   V4    1.973920 S    
C3    O13   1.338313 A    
C72   C76   1.401362 A    
C75   C79   1.404551 A    
C73   C77   1.404515 A    
C82   H30   1.085271 S    
C55   C80   1.487481 S    
O6    C2    1.340421 A    
C25   C33   1.443041 A    
C15   C19   1.420775 A    
C83   H31   1.083105 S    
O11   V3    1.991086 S    
C30   C42   1.405452 A    
C63   C67   1.408232 A    
O12   V4    1.991088 S    
C22   C26   1.420851 A    
C8    C9    1.485111 S    
C47   C67   1.405189 A    
C9    C17   1.409363 A    
N2    O31   1.301839 A    
O10   C6    1.328316 A    
O20   V2    1.753932 S    
C58   C90   1.485959 S    
C48   C52   1.397955 A    
C32   C44   1.403443 A    
C47   H11   1.081416 S    
C83   O23   1.220751 D    
C33   C34   1.433783 A    
C81   H29   1.083243 S    
C72   C79   1.403661 A    
C59   C91   1.485689 S    
C41   H1    1.080573 S    
C56   C60   1.417812 A    
C12   C24   1.400487 A    
C27   C31   1.415606 A    
C87   O27   1.220704 D    
C13   C17   1.421443 A    
O4    V2    1.974393 S    
C25   C29   1.418839 A    
C62   C66   1.407341 A    
O14   V2    1.973823 S    
C45   C49   1.397202 A    
C70   C74   1.401327 A    
C37   C41   1.397018 A    
C24   C28   1.416777 A    
C69   C73   1.401940 A    
C28   C36   1.442077 A    
C62   H18   1.083539 S    
C4    O14   1.337113 A    
C81   O21   1.220734 D    
C84   H32   1.084868 S    
C19   C84   1.497483 S    
C63   H19   1.083293 S    
C13   C85   1.486884 S    
C74   C78   1.404692 A    
C17   C82   1.494918 S    
C57   C61   1.413066 A    
C28   C32   1.418188 A    
N2    O32   1.301630 A    
