data_mof_unit_9935.cif
_audit_creation_date              2012-12-10T17:02:53-0500
_audit_creation_method            fapswitch 2.2
_symmetry_space_group_name_H-M    P1
_symmetry_Int_Tables_number       1
_space_group_crystal_system       triclinic
_cell_length_a                    18.859396
_cell_length_b                    18.526347
_cell_length_c                    18.931512
_cell_angle_alpha                 109.195565
_cell_angle_beta                  110.333993
_cell_angle_gamma                 109.151081
_cell_volume                      5074.5443594

loop_
_atom_site_label
_atom_site_type_symbol
_atom_type_description
_atom_site_fract_x
_atom_site_fract_y
_atom_site_fract_z
_atom_type_partial_charge
C1    C     C_R   0.620803 0.621507 0.501822 0.872275
C2    C     C_R   0.373778 0.380781 0.493578 0.889806
C3    C     C_R   0.243461 0.493491 0.313186 -0.170959
C4    C     C_R   0.757359 0.570021 0.747886 -0.151608
C5    C     C_R   0.177761 0.488442 0.247162 -0.185697
C6    C     C_R   0.823277 0.569745 0.808469 -0.105156
C7    C     C_R   0.187592 0.494188 0.179335 -0.024376
C8    C     C_R   0.812622 0.490571 0.805386 -0.046892
C9    C     C_R   0.801674 0.749383 0.656325 -0.030138
C10   C     C_R   0.213860 0.393562 0.482899 -0.040805
C11   C     C_R   0.885135 0.763668 0.704781 -0.290910
C12   C     C_R   0.127724 0.376836 0.450844 -0.129277
C13   C     C_R   0.940927 0.771293 0.671799 -0.097579
C14   C     C_R   0.071874 0.318574 0.463113 -0.259786
C15   C     C_R   0.918034 0.774852 0.594449 0.061674
C16   C     C_R   0.101023 0.273634 0.501375 0.038431
C17   C     C_R   0.837200 0.771076 0.550717 -0.086419
C18   C     C_R   0.172198 0.263742 0.499747 0.047880
C19   C     C_R   0.773830 0.738998 0.571851 0.091102
C20   C     C_R   0.232203 0.326839 0.492904 -0.016387
C21   C     C_R   0.686002 0.691658 0.504285 -0.099957
C22   C     C_R   0.304644 0.317462 0.493166 -0.160353
C23   C     C_R   0.382647 0.502763 0.380084 0.854089
C24   C     C_R   0.617159 0.496631 0.619422 0.855581
C25   C     C_R   0.662797 0.699239 0.429880 -0.328822
C26   C     C_R   0.315494 0.248470 0.498858 -0.279319
C27   C     C_R   0.725958 0.757334 0.423346 0.546284
C28   C     C_R   0.255883 0.185843 0.503373 0.499776
C29   C     C_R   0.814569 0.795795 0.485866 -0.255341
C30   C     C_R   0.185244 0.193867 0.505378 -0.192827
C31   C     C_R   0.998490 0.620468 0.117783 1.036773
C32   C     C_R   0.000551 0.379406 0.881670 1.024933
C33   C     C_R   0.120160 0.497112 0.117107 0.952292
C34   C     C_R   0.879805 0.496465 0.876605 0.977844
C35   C     C_R   0.001211 0.121909 0.620588 0.948888
C36   C     C_R   0.006833 0.886440 0.380175 0.889539
C37   C     C_R   0.880119 0.872425 0.493351 0.895558
C38   C     C_R   0.120034 0.122432 0.501856 0.945959
C39   C     C_R   0.880959 0.691024 0.073582 0.426710
C40   C     C_R   0.102573 0.293938 0.925795 0.419094
C41   C     C_R   0.848167 0.743837 0.050988 -0.153734
C42   C     C_R   0.175546 0.281067 0.950280 -0.148306
C43   C     C_R   0.880970 0.830071 0.115510 0.419123
C44   C     C_R   0.201439 0.255167 0.889567 0.424238
C45   C     C_R   0.409338 0.523388 0.243235 -0.284778
C46   C     C_R   0.590910 0.328544 0.611045 -0.258577
C47   C     C_R   0.940870 0.860525 0.201630 -0.218211
C48   C     C_R   0.149842 0.233455 0.803936 -0.135857
C49   C     C_R   0.968315 0.805900 0.225813 -0.072689
C50   C     C_R   0.070562 0.234469 0.776530 -0.061214
C51   C     C_R   0.949035 0.726842 0.160282 -0.085960
C52   C     C_R   0.056425 0.279966 0.840384 -0.091415
C53   C     C_R   0.000372 0.688366 0.183850 -0.189823
C54   C     C_R   0.998335 0.311435 0.816127 -0.142322
C55   C     C_R   0.063999 0.723924 0.271012 -0.141711
C56   C     C_R   0.942471 0.282211 0.728293 -0.098620
C57   C     C_R   0.068700 0.791418 0.336731 0.434025
C58   C     C_R   0.937616 0.213272 0.664743 0.408062
C59   C     C_R   0.016713 0.829241 0.313827 -0.190500
C60   C     C_R   0.004664 0.192223 0.687885 -0.146746
C61   C     C_R   0.417479 0.521283 0.171852 -0.055060
C62   C     C_R   0.582699 0.247360 0.601624 -0.032267
C63   C     C_R   0.347704 0.510345 0.100773 -0.019258
C64   C     C_R   0.651111 0.246552 0.663006 0.013130
C65   C     C_R   0.271572 0.500199 0.103077 -0.167164
C66   C     C_R   0.727369 0.326866 0.728946 -0.196971
C67   C     C_R   0.263514 0.502764 0.175329 0.113556
C68   C     C_R   0.736529 0.408735 0.737775 0.059503
C69   C     C_R   0.331962 0.511243 0.244657 0.125795
C70   C     C_R   0.668389 0.409361 0.676839 0.103708
C71   C     C_R   0.320207 0.505741 0.313043 -0.073909
C72   C     C_R   0.680283 0.491400 0.683461 -0.069134
H1    H     H_    0.233254 0.485379 0.363327 0.200642
H2    H     H_    0.766747 0.631944 0.751102 0.119772
H3    H     H_    0.002709 0.775900 0.707688 0.186104
H4    H     H_    0.013461 0.320776 0.457233 0.148704
H5    H     H_    0.967808 0.928620 0.248741 0.184233
H6    H     H_    0.174123 0.217989 0.760319 0.214886
H7    H     H_    0.463778 0.532475 0.296926 0.148512
H8    H     H_    0.536372 0.327448 0.565060 0.148694
H9    H     H_    0.217831 0.487710 0.046215 0.197720
H10   H     H_    0.779990 0.323934 0.772400 0.201134
H11   H     H_    0.119410 0.481226 0.249707 0.152209
H12   H     H_    0.881716 0.632127 0.859770 0.151126
H13   H     H_    0.595411 0.661658 0.378214 0.127780
H14   H     H_    0.371518 0.243501 0.500542 0.148400
H15   H     H_    0.907483 0.769767 0.768583 0.143770
H16   H     H_    0.110139 0.422316 0.435869 0.177648
O1    O     O_R   0.591640 0.539900 0.448300 -0.630016
O2    O     O_R   0.408360 0.460100 0.551700 -0.649017
O3    O     O_R   0.051700 0.091600 0.643340 -0.652210
O4    O     O_R   0.948300 0.908400 0.356660 -0.640724
O5    O     O_R   0.856660 0.908400 0.448280 -0.567813
O6    O     O_R   0.143340 0.091600 0.551720 -0.557264
O7    O     O_R   0.960090 0.908380 0.551710 -0.645745
O8    O     O_R   0.039910 0.091620 0.448290 -0.669537
O9    O     O_R   0.591610 0.643330 0.551720 -0.573911
O10   O     O_R   0.408390 0.356670 0.448280 -0.624162
O11   O     O_R   0.408410 0.448290 0.356670 -0.619407
O12   O     O_R   0.591590 0.551710 0.643330 -0.608982
O13   O     O_R   0.408380 0.551730 0.460100 -0.588619
O14   O     O_R   0.591620 0.448270 0.539900 -0.625094
O15   O     O_R   0.948260 0.539910 0.091610 -0.641023
O16   O     O_R   0.051740 0.460090 0.908390 -0.586583
O17   O     O_R   0.051720 0.643340 0.091610 -0.587167
O18   O     O_R   0.948280 0.356660 0.908390 -0.629394
O19   O     O_R   0.039880 0.448280 0.091630 -0.625351
O20   O     O_R   0.960120 0.551720 0.908370 -0.609523
O21   O     O_R   0.143330 0.551710 0.091620 -0.623416
O22   O     O_R   0.856670 0.448290 0.908380 -0.639526
O23   O     O_R   0.948270 0.091630 0.539910 -0.586440
O24   O     O_R   0.051730 0.908370 0.460090 -0.584401
Zn1   Zn    Zn3+2 0.500020 0.430940 0.430940 0.973324
Zn2   Zn    Zn3+2 0.499980 0.569060 0.569060 1.036553
Zn3   Zn    Zn3+2 0.930920 0.430950 0.000010 0.974644
Zn4   Zn    Zn3+2 0.069080 0.569050 0.999990 1.053473
Zn5   Zn    Zn3+2 0.930940 0.000030 0.430950 0.966987
Zn6   Zn    Zn3+2 0.069060 0.999970 0.569050 1.002232
C73   C     C_2   0.970952 0.766427 0.553117 0.414575
H17   H     H_    0.947819 0.755362 0.487385 0.047785
O25   O     O_2   0.039997 0.769523 0.591302 -0.615752
C74   C     C_2   0.073192 0.261714 0.562202 0.403901
H18   H     H_    0.008773 0.250156 0.549984 0.107941
O26   O     O_2   0.125063 0.272222 0.630295 -0.595786
O27   O     O_3   0.703566 0.768721 0.351314 -0.596418
C75   C     C_3   0.641176 0.796608 0.340805 -0.263047
H19   H     H_    0.640658 0.825273 0.297714 0.187197
H20   H     H_    0.657354 0.848926 0.403633 0.158424
H21   H     H_    0.574624 0.739745 0.308387 0.153342
O28   O     O_3   0.268176 0.117535 0.508162 -0.591083
C76   C     C_3   0.234314 0.050545 0.423155 -0.238954
H22   H     H_    0.163479 0.025105 0.381292 0.125921
H23   H     H_    0.241497 0.994581 0.426772 0.236486
H24   H     H_    0.271029 0.073926 0.392874 0.151386
C77   C     C_2   0.126311 0.691550 0.294512 0.434788
H25   H     H_    0.134798 0.672123 0.343498 0.061400
O29   O     O_2   0.170302 0.688221 0.260401 -0.556273
C78   C     C_2   0.888957 0.321871 0.700134 0.394639
H26   H     H_    0.826374 0.281691 0.639948 0.122326
O30   O     O_2   0.916432 0.400852 0.740790 -0.592206
O31   O     O_3   0.845240 0.604538 0.011345 -0.605021
C79   C     C_3   0.779858 0.550198 0.020032 -0.151026
H27   H     H_    0.749090 0.480878 0.968619 0.194838
H28   H     H_    0.727531 0.567739 0.011288 0.176094
H29   H     H_    0.807782 0.553408 0.084048 0.135666
O32   O     O_3   0.075278 0.317336 0.984315 -0.611071
C80   C     C_3   0.006903 0.240012 0.966402 -0.162905
H30   H     H_    0.028551 0.192173 0.972662 0.165239
H31   H     H_    0.949108 0.207862 0.900550 0.150897
H32   H     H_    0.986173 0.258370 0.014543 0.191703
C81   C     C_2   0.779775 0.710934 0.960912 0.421127
H33   H     H_    0.765931 0.756618 0.942722 0.110036
O33   O     O_2   0.736466 0.632708 0.906330 -0.548592
C82   C     C_2   0.225811 0.293997 0.038191 0.446942
H34   H     H_    0.286984 0.293676 0.057993 0.119344
O34   O     O_2   0.199641 0.303880 0.089321 -0.551182
O35   O     O_3   0.855956 0.885744 0.093939 -0.616453
C83   C     C_3   0.797086 0.893653 0.121645 -0.298123
H35   H     H_    0.829896 0.929228 0.193836 0.170655
H36   H     H_    0.739770 0.827998 0.093326 0.159076
H37   H     H_    0.772239 0.932908 0.098529 0.197245
O36   O     O_3   0.278596 0.252985 0.914557 -0.588454
C84   C     C_3   0.258751 0.164248 0.880528 -0.293685
H38   H     H_    0.217301 0.128384 0.900980 0.142462
H39   H     H_    0.320632 0.163022 0.906539 0.207841
H40   H     H_    0.226695 0.129510 0.808406 0.170029
O37   O     O_3   0.134443 0.830871 0.422221 -0.602732
C85   C     C_3   0.110432 0.781151 0.461074 -0.192501
H41   H     H_    0.151647 0.750560 0.473077 0.166328
H42   H     H_    0.125286 0.827439 0.525733 0.238779
H43   H     H_    0.040155 0.729235 0.423472 0.115280
O38   O     O_3   0.872876 0.173531 0.578877 -0.621809
C86   C     C_3   0.799258 0.102163 0.562241 -0.269153
H44   H     H_    0.814929 0.052543 0.573430 0.162636
H45   H     H_    0.748070 0.068697 0.492923 0.195544
H46   H     H_    0.771683 0.125167 0.602322 0.189043
C87   C     C_2   0.498351 0.526066 0.173679 0.371966
H47   H     H_    0.557382 0.556546 0.235552 0.093055
O39   O     O_2   0.499275 0.491970 0.107051 -0.559996
C88   C     C_2   0.503293 0.165858 0.524207 0.379974
H48   H     H_    0.444110 0.167419 0.492928 0.079165
O40   O     O_2   0.504121 0.097648 0.491058 -0.580589
C89   C     C_2   0.353269 0.512495 0.024987 0.466942
H49   H     H_    0.415873 0.542691 0.029865 0.122847
O41   O     O_2   0.287427 0.481772 0.955986 -0.565692
C90   C     C_2   0.643041 0.163977 0.663230 0.404878
H50   H     H_    0.580138 0.104358 0.626186 0.142891
O42   O     O_2   0.706814 0.162069 0.707200 -0.610455
C91   C     C_2   0.755549 0.766550 0.703482 0.444253
H51   H     H_    0.766277 0.755889 0.758338 0.036470
O43   O     O_2   0.711146 0.800512 0.686591 -0.533804
C92   C     C_2   0.279278 0.488876 0.537660 0.449112
H52   H     H_    0.330994 0.513959 0.602724 0.108133
O44   O     O_2   0.271814 0.541636 0.514763 -0.595850

loop_
_geom_bond_atom_site_label_1
_geom_bond_atom_site_label_2
_ccdc_geom_bond_type
C66   C68   A    
C63   C65   A    
C1    C21   S    
C75   H19   S    
C27   C29   A    
C17   C29   A    
O17   Zn4   S    
C23   O11   A    
C80   H30   S    
C33   O19   A    
O4    Zn5   S    
C76   H24   S    
C49   C51   A    
C77   H25   S    
C39   C41   A    
C23   O13   A    
C86   H44   S    
O38   C86   S    
O2    Zn2   S    
C61   C87   S    
C84   H39   S    
C30   C38   S    
O35   C83   S    
C42   C44   A    
C46   C62   A    
C42   C82   S    
O36   C84   S    
C89   O41   D    
C62   C88   S    
C5    H11   S    
C57   C59   A    
C29   C37   S    
C58   C60   A    
C11   C13   A    
C37   O7    A    
C2    O2    A    
C48   H6    S    
C69   C71   A    
C16   C74   S    
C62   C64   A    
O21   Zn4   S    
C39   C51   A    
O16   Zn4   S    
C9    C19   A    
C85   H43   S    
C13   H3    S    
C11   H15   S    
C87   O39   D    
C2    C22   S    
C50   C52   A    
C81   H33   S    
C32   O16   A    
C18   C30   A    
C56   C58   A    
C4    H2    S    
C83   H37   S    
C36   C59   S    
C85   H42   S    
C32   O18   A    
C90   O42   D    
C83   H36   S    
O13   Zn2   S    
C41   C43   A    
C79   H29   S    
C44   O36   S    
C9    C91   S    
C14   H4    S    
C37   O5    A    
C32   C54   S    
C52   C54   A    
O1    Zn1   S    
C73   O25   D    
O7    Zn6   S    
C54   C56   A    
C6    H12   S    
C7    C33   S    
C45   C69   A    
C23   C71   S    
O8    Zn5   S    
C84   H40   S    
C63   C89   S    
C47   C49   A    
C10   C20   A    
O37   C85   S    
C5    C7    A    
C12   H16   S    
O10   Zn1   S    
C6    C8    A    
C75   H21   S    
C65   C67   A    
C40   C52   A    
C10   C92   S    
C35   C60   S    
C51   C53   A    
C64   C66   A    
C31   O15   A    
C3    C71   A    
O15   Zn3   S    
C89   H49   S    
O9    Zn2   S    
C36   O24   A    
C66   H10   S    
C24   O14   A    
C56   C78   S    
C65   H9    S    
C26   H14   S    
C38   O6    A    
C25   H13   S    
O3    Zn6   S    
O12   Zn2   S    
C45   H7    S    
C16   C18   A    
C8    C34   S    
C31   C53   S    
C75   H20   S    
C48   C50   A    
C9    C11   A    
O19   Zn3   S    
C82   H34   S    
C86   H45   S    
C10   C12   A    
C39   O31   S    
C4    C6    A    
C85   H41   S    
C12   C14   A    
C8    C68   A    
C13   C15   A    
C22   C26   A    
O27   C75   S    
C34   O22   A    
C78   O30   D    
C14   C16   A    
C33   O21   A    
C47   H5    S    
C53   C55   A    
C1    O9    A    
C76   H22   S    
C3    C5    A    
C80   H32   S    
C4    C72   A    
C79   H28   S    
C35   O23   A    
C88   H48   S    
C24   C72   S    
O32   C80   S    
C86   H46   S    
C77   O29   D    
C21   C25   A    
C1    O1    A    
C88   O40   D    
C80   H31   S    
C24   O12   A    
C82   O34   D    
C61   C63   A    
C20   C22   A    
C40   C42   A    
C76   H23   S    
C49   C59   A    
O11   Zn1   S    
C73   H17   S    
C15   C17   A    
C58   O38   S    
C57   O37   S    
C25   C27   A    
C26   C28   A    
O5    Zn5   S    
C40   O32   S    
O18   Zn3   S    
O23   Zn5   S    
C50   C60   A    
C92   H52   S    
O20   Zn4   S    
C55   C57   A    
C41   C81   S    
C74   H18   S    
C34   O20   A    
C28   C30   A    
O14   Zn1   S    
O31   C79   S    
O24   Zn6   S    
O6    Zn6   S    
C28   O28   S    
C36   O4    A    
C83   H35   S    
C43   C47   A    
C55   C77   S    
C27   O27   S    
C45   C61   A    
C17   C19   A    
C15   C73   S    
O28   C76   S    
C18   C20   A    
C81   O33   D    
C43   O35   S    
C91   H51   S    
C3    H1    S    
C46   C70   A    
C84   H38   S    
C78   H26   S    
C7    C67   A    
C2    O10   A    
C68   C70   A    
C87   H47   S    
C31   O17   A    
C38   O8    A    
C79   H27   S    
C70   C72   A    
C46   H8    S    
C67   C69   A    
C90   H50   S    
C74   O26   D    
O22   Zn3   S    
C64   C90   S    
C44   C48   A    
C92   O44   D    
C91   O43   D    
C19   C21   A    
C35   O3    A    
