data_mof_unit_42439.cif
_audit_creation_date              2012-12-10T17:46:14-0500
_audit_creation_method            fapswitch 2.2
_symmetry_space_group_name_H-M    P1
_symmetry_Int_Tables_number       1
_space_group_crystal_system       triclinic
_cell_length_a                    14.135358
_cell_length_b                    10.656937
_cell_length_c                    10.00443
_cell_angle_alpha                 90.577867
_cell_angle_beta                  89.91946
_cell_angle_gamma                 92.664674
_cell_volume                      1505.35675742

loop_
_atom_site_label
_atom_site_type_symbol
_atom_type_description
_atom_site_fract_x
_atom_site_fract_y
_atom_site_fract_z
_atom_type_partial_charge
C1    C     C_R   0.501198 0.261166 0.499128 0.894541
C2    C     C_R   0.581837 0.067305 0.480879 -0.029404
C3    C     C_R   0.579218 0.938346 0.482270 0.643250
C4    C     C_R   0.329426 0.496531 0.499948 1.006765
C5    C     C_R   0.493419 0.871713 0.503525 -0.276961
C6    C     C_R   0.355749 0.357141 0.136243 0.703455
C7    C     C_R   0.277093 0.307959 0.067524 -0.041031
C8    C     C_R   0.277052 0.309282 0.930365 -0.404299
C9    C     C_R   0.355204 0.358181 0.862118 0.680898
C10   C     C_R   0.429321 0.430782 0.927422 -0.082733
C11   C     C_R   0.429428 0.430589 0.071666 -0.201707
C12   C     C_1   0.772031 0.498915 0.499734 -0.140851
C13   C     C_R   0.566035 0.567230 0.071999 0.623686
C14   C     C_R   0.566097 0.567600 0.929030 0.031804
C15   C     C_R   0.497045 0.739080 0.500869 1.050981
C16   C     C_R   0.670517 0.500301 0.499898 0.875351
C17   C     C_1   0.227774 0.494564 0.499862 -0.096943
C18   C     C_1   0.142450 0.494102 0.499795 -0.007954
C19   C     C_1   0.042516 0.494711 0.499733 0.008376
C20   C     C_1   0.957228 0.495819 0.499697 0.023127
C21   C     C_1   0.857311 0.497475 0.499690 0.012783
C22   C     C_R   0.322922 0.125977 0.517716 -0.022342
C23   C     C_R   0.237208 0.060223 0.539874 -0.284847
C24   C     C_R   0.235102 0.930404 0.558229 0.085144
C25   C     C_R   0.319599 0.866994 0.550680 0.609514
C26   C     C_R   0.407103 0.932060 0.522396 -0.157673
C27   C     C_R   0.408832 0.063196 0.512007 0.025504
C28   C     C_R   0.496913 0.128601 0.496373 -0.166574
F1    F     F_    0.359317 0.315135 0.737069 -0.670480
F2    F     F_    0.315071 0.743136 0.577195 -0.708712
F3    F     F_    0.660864 0.877287 0.465079 -0.637339
F4    F     F_    0.633324 0.636967 0.139486 -0.638413
F5    F     F_    0.361497 0.313621 0.260271 -0.654650
H1    H     H_    0.220321 0.259515 0.876031 0.202904
H2    H     H_    0.196338 0.150540 0.104641 0.206869
H3    H     H_    0.138462 0.285626 0.114511 0.192660
H4    H     H_    0.321089 0.226318 0.504600 0.190261
H5    H     H_    0.172674 0.111051 0.544375 0.168132
H6    H     H_    0.667657 0.190074 0.378443 0.192767
H7    H     H_    0.683160 0.193943 0.546532 0.170022
H8    H     H_    0.702970 0.612761 0.887287 0.204787
H9    H     H_    0.631212 0.735445 0.889324 0.212675
H10   H     H_    0.091951 0.922038 0.592557 0.185541
H11   H     H_    0.133147 0.801342 0.504704 0.205674
N1    N     N_R   0.499190 0.498800 0.142780 -0.134817
N2    N     N_R   0.499160 0.498720 0.857170 -0.098025
N3    N     N_3   0.671285 0.134644 0.463751 -0.385041
N4    N     N_3   0.636375 0.641881 0.858873 -0.369600
N5    N     N_3   0.147819 0.861274 0.586199 -0.398781
N6    N     N_3   0.201584 0.243737 0.138599 -0.394411
O1    O     O_R   0.500000 0.316780 0.614690 -0.551840
O2    O     O_R   0.499990 0.316750 0.385360 -0.558295
O3    O     O_R   0.373720 0.500010 0.614690 -0.522346
O4    O     O_R   0.373710 0.499990 0.385360 -0.578684
O5    O     O_R   0.500010 0.683250 0.614640 -0.573569
O6    O     O_R   0.500000 0.683220 0.385310 -0.574282
O7    O     O_R   0.626290 0.500010 0.614640 -0.601374
O8    O     O_R   0.626280 0.499990 0.385310 -0.550431
Zn1   Zn    Zn3+2 0.500010 0.500020 0.653130 1.043062
Zn2   Zn    Zn3+2 0.499990 0.499980 0.346870 1.063873

loop_
_geom_bond_atom_site_label_1
_geom_bond_atom_site_label_2
_ccdc_geom_bond_type
H11   N5    S    
C10   N2    A    
H7    N3    S    
C13   N1    A    
C23   C24   A    
N1    Zn2   S    
C6    C7    A    
O5    Zn1   S    
N2    Zn1   S    
C1    C28   S    
C23   H5    S    
C9    C10   A    
C13   F4    S    
C19   C20   T    
C6    F5    S    
C9    F1    S    
C16   O7    A    
C15   O6    A    
C3    C5    A    
H2    N6    S    
C17   C18   T    
O3    Zn1   S    
H3    N6    S    
C7    C8    A    
C14   N2    A    
O4    Zn2   S    
C13   C14   A    
C24   C25   A    
C3    F3    S    
C1    O1    A    
C26   C27   A    
H9    N4    S    
C4    C17   S    
H8    N4    S    
C2    C3    A    
C16   O8    A    
C22   C27   A    
C6    C11   A    
C2    N3    S    
C1    O2    A    
C5    C15   S    
C4    O3    A    
C11   N1    A    
C10   C11   A    
O8    Zn2   S    
C5    C26   A    
O6    Zn2   S    
C24   N5    S    
O1    Zn1   S    
C20   C21   S    
O7    Zn1   S    
H6    N3    S    
C18   C19   S    
C25   F2    S    
C14   N4    S    
C22   C23   A    
H10   N5    S    
C2    C28   A    
O2    Zn2   S    
C4    O4    A    
C25   C26   A    
C8    H1    S    
C22   H4    S    
C12   C21   T    
C12   C16   S    
C7    N6    S    
C8    C9    A    
C27   C28   A    
C15   O5    A    
