data_mof_unit_38794.cif
_audit_creation_date              2012-12-10T17:36:23-0500
_audit_creation_method            fapswitch 2.2
_symmetry_space_group_name_H-M    P1
_symmetry_Int_Tables_number       1
_space_group_crystal_system       triclinic
_cell_length_a                    12.33482
_cell_length_b                    13.120306
_cell_length_c                    15.866993
_cell_angle_alpha                 77.899167
_cell_angle_beta                  100.951328
_cell_angle_gamma                 116.467101
_cell_volume                      2233.93256298

loop_
_atom_site_label
_atom_site_type_symbol
_atom_type_description
_atom_site_fract_x
_atom_site_fract_y
_atom_site_fract_z
_atom_type_partial_charge
C1    C     C_R   0.855023 0.286268 0.508701 0.767826
C2    C     C_3   0.072703 0.434915 0.070201 -0.367369
C3    C     C_3   0.004291 0.504384 0.082723 0.325366
C4    C     C_3   0.063904 0.630469 0.034917 0.038438
C5    C     C_3   0.062370 0.628404 0.936805 -0.368777
C6    C     C_1   0.003052 0.502254 0.175221 -0.105009
C7    C     C_1   0.999559 0.501630 0.824541 -0.106947
C8    C     C_1   0.999026 0.500710 0.749031 -0.182050
C9    C     C_R   0.285125 0.020671 0.370578 -0.186328
C10   C     C_R   0.227943 0.835953 0.462718 -0.065879
C11   C     C_R   0.811858 0.085932 0.574607 -0.191295
C12   C     C_R   0.999485 0.499897 0.659540 0.823916
C13   C     C_R   0.730900 0.971965 0.594810 -0.149632
C14   C     C_R   0.609047 0.934140 0.560804 -0.184946
C15   C     C_R   0.566257 0.009460 0.502394 0.091506
C16   C     C_R   0.652401 0.122245 0.474681 0.082040
C17   C     C_R   0.441298 0.976383 0.469580 0.072184
C18   C     C_R   0.407103 0.051904 0.404323 0.118784
C19   C     C_R   0.495318 0.157094 0.371366 -0.231620
C20   C     C_R   0.616251 0.191176 0.405087 -0.195840
C21   C     C_R   0.349083 0.870857 0.499928 -0.301660
C22   C     C_R   0.194885 0.912617 0.397857 0.176392
C23   C     C_R   0.145003 0.713893 0.484797 0.803273
C24   C     C_R   0.773153 0.162773 0.516574 -0.101502
C25   C     C_R   0.343604 0.325692 0.638888 0.094504
C26   C     C_R   0.757502 0.642904 0.381895 0.070010
C27   C     C_R   0.660986 0.674284 0.356586 -0.260273
C28   C     C_R   0.558752 0.620702 0.401740 -0.188226
C29   C     C_R   0.551442 0.533930 0.473043 0.009536
C30   C     C_R   0.653395 0.505495 0.496900 0.291327
C31   C     C_R   0.447055 0.474150 0.521032 -0.075810
C32   C     C_R   0.446057 0.386397 0.591395 0.154665
C33   C     C_R   0.547351 0.360958 0.613107 -0.277026
C34   C     C_R   0.000558 0.500201 0.340457 0.817761
C35   C     C_R   0.647976 0.419219 0.567468 -0.186280
C36   C     C_R   0.342782 0.497573 0.502055 0.000455
C37   C     C_R   0.244628 0.354224 0.615850 0.066139
C38   C     C_3   0.074022 0.437192 0.972423 -0.382395
C39   C     C_3   0.869636 0.445055 0.942380 -0.389902
C40   C     C_3   0.871318 0.446476 0.039999 -0.441428
C41   C     C_1   0.001993 0.500976 0.250864 -0.187058
C42   C     C_3   0.001202 0.502983 0.916742 0.296681
Cu1   Cu    Cu3+1 0.098280 0.475420 0.519630 0.932081
Cu2   Cu    Cu3+1 0.901720 0.524580 0.480370 0.920466
H1    H     H_    0.026716 0.344131 0.101107 0.159023
H2    H     H_    0.167486 0.469648 0.102688 0.167228
H3    H     H_    0.007309 0.674988 0.040216 0.142512
H4    H     H_    0.470784 0.213520 0.319039 0.142315
H5    H     H_    0.260904 0.079608 0.320489 0.132081
H6    H     H_    0.369199 0.812579 0.552237 0.156615
H7    H     H_    0.904220 0.114760 0.606467 0.148294
H8    H     H_    0.551594 0.844833 0.580021 0.130570
H9    H     H_    0.761934 0.913208 0.639367 0.140146
H10   H     H_    0.033868 0.347463 0.957558 0.161889
H11   H     H_    0.681179 0.271199 0.374221 0.170299
H12   H     H_    0.165141 0.309494 0.650861 0.126312
H13   H     H_    0.550584 0.295194 0.666290 0.165213
H14   H     H_    0.335886 0.562694 0.450179 0.134612
H15   H     H_    0.835181 0.683417 0.345476 0.129458
H16   H     H_    0.486813 0.648396 0.378887 0.135882
H17   H     H_    0.719655 0.392818 0.590125 0.206233
H18   H     H_    0.815547 0.490952 0.903084 0.166169
H19   H     H_    0.823927 0.354613 0.928618 0.169125
H20   H     H_    0.825136 0.356713 0.072774 0.175257
H21   H     H_    0.818620 0.493669 0.047514 0.160644
H22   H     H_    0.156277 0.671556 0.916950 0.174336
H23   H     H_    0.011522 0.677375 0.897340 0.139265
N1    N     N_R   0.246300 0.438200 0.549400 -0.200682
N2    N     N_R   0.754300 0.561180 0.451130 -0.204497
O1    O     O_R   0.972520 0.318130 0.524690 -0.579203
O2    O     O_R   0.806530 0.359650 0.491530 -0.601162
O3    O     O_R   0.083030 0.479240 0.637150 -0.576390
O4    O     O_R   0.917040 0.520750 0.603990 -0.591798
O5    O     O_R   0.193470 0.640350 0.508470 -0.586038
O6    O     O_R   0.027480 0.681870 0.475310 -0.575958
O7    O     O_R   0.082960 0.479250 0.396010 -0.572562
O8    O     O_R   0.916970 0.520760 0.362850 -0.590654
H24   H     H_    0.169880 0.479297 0.956566 0.163796
C43   C     C_3   0.067215 0.880180 0.353324 -0.866259
H25   H     H_    0.003896 0.862074 0.401339 0.248628
H26   H     H_    0.059961 0.950323 0.302823 0.216142
H27   H     H_    0.039468 0.803813 0.320782 0.224754
C44   C     C_3   0.337306 0.231122 0.713465 -0.930673
H28   H     H_    0.345368 0.160694 0.690515 0.245222
H29   H     H_    0.412073 0.265787 0.765480 0.237448
H30   H     H_    0.249717 0.193698 0.742068 0.226483
H31   H     H_    0.665149 0.739949 0.301441 0.143648
C45   C     C_3   0.193673 0.702324 0.075064 -0.906366
H32   H     H_    0.226830 0.792060 0.040958 0.232955
H33   H     H_    0.194548 0.705581 0.144536 0.241410
H34   H     H_    0.258119 0.667035 0.069033 0.242180

loop_
_geom_bond_atom_site_label_1
_geom_bond_atom_site_label_2
_ccdc_geom_bond_type
C5    C42   S    
Cu1   O3    S    
C19   C20   A    
C5    H23   S    
C3    C6    S    
C7    C8    T    
C2    H2    S    
C26   C27   A    
C1    O2    A    
C30   C35   A    
Cu2   O8    S    
C22   C43   S    
C38   C42   S    
C36   H14   S    
C34   O8    A    
C9    C22   A    
C15   C16   A    
C37   N1    A    
C11   C24   A    
Cu2   O2    S    
C18   C19   A    
C7    C42   S    
C25   C37   A    
C37   H12   S    
C14   H8    S    
C44   H28   S    
Cu1   N1    S    
C6    C41   T    
C26   H15   S    
C16   C20   A    
C25   C32   A    
C12   O3    A    
C16   C24   A    
C12   O4    A    
C34   C41   S    
C20   H11   S    
C21   H6    S    
C39   C42   S    
C13   H9    S    
C28   H16   S    
C10   C21   A    
C9    H5    S    
C39   C40   S    
C43   H26   S    
C19   H4    S    
C4    C5    S    
C38   H24   S    
C10   C22   A    
Cu2   O6    S    
Cu1   Cu2   S    
C29   C30   A    
C2    C38   S    
C31   C32   A    
C38   H10   S    
C45   H34   S    
C8    C12   S    
C17   C18   A    
Cu2   N2    S    
C35   H17   S    
C27   H31   S    
C44   H29   S    
C45   H33   S    
C3    C40   S    
Cu1   O1    S    
C40   H21   S    
C23   O5    A    
C3    C4    S    
C30   N2    A    
Cu1   O7    S    
C15   C17   A    
C39   H18   S    
C28   C29   A    
C33   H13   S    
C31   C36   A    
C23   O6    A    
C5    H22   S    
C43   H27   S    
C36   N1    A    
C4    C45   S    
C10   C23   S    
C39   H19   S    
C1    O1    A    
C40   H20   S    
C32   C33   A    
C2    C3    S    
C29   C31   A    
C11   C13   A    
Cu1   O5    S    
C33   C35   A    
Cu2   O4    S    
C17   C21   A    
C11   H7    S    
C2    H1    S    
C43   H25   S    
C9    C18   A    
C44   H30   S    
C45   H32   S    
C1    C24   S    
C27   C28   A    
C25   C44   S    
C26   N2    A    
C14   C15   A    
C13   C14   A    
C34   O7    A    
C4    H3    S    
