data_mof_unit_50832.cif
_audit_creation_date              2012-12-11T17:07:36-0500
_audit_creation_method            fapswitch 2.2
_symmetry_space_group_name_H-M    P1
_symmetry_Int_Tables_number       1
_space_group_crystal_system       triclinic
_cell_length_a                    6.957517
_cell_length_b                    14.534182
_cell_length_c                    16.063278
_cell_angle_alpha                 89.984586
_cell_angle_beta                  90.066989
_cell_angle_gamma                 90.019939
_cell_volume                      1624.34661277

loop_
_atom_site_label
_atom_site_type_symbol
_atom_type_description
_atom_site_fract_x
_atom_site_fract_y
_atom_site_fract_z
_atom_type_partial_charge
O1    O     O_R   0.505720 0.583900 0.413310 -0.537910
O2    O     O_R   0.175940 0.594920 0.586080 -0.548481
O3    O     O_R   0.005640 0.416100 0.586690 -0.535784
C1    C     C_R   0.344728 0.616763 0.615000 0.711686
O4    O     O_R   0.176000 0.594930 0.413930 -0.542439
O5    O     O_R   0.005700 0.416110 0.413310 -0.540145
C2    C     C_R   0.344710 0.617037 0.385229 0.700029
O6    O     O_R   0.505660 0.583890 0.586690 -0.533452
O7    O     O_3   0.339200 0.441330 0.500000 -0.367349
V1    V     V_3+5 0.064350 0.510880 0.500000 1.407571
O8    O     O_R   0.675980 0.405080 0.413920 -0.543481
C3    C     C_R   0.845004 0.383093 0.385115 0.682034
O9    O     O_R   0.675920 0.405070 0.586070 -0.538375
C4    C     C_R   0.844941 0.383510 0.614862 0.696306
V2    V     V_3+5 0.564340 0.489120 0.500000 1.418955
O10   O     O_3   0.839360 0.558670 0.500000 -0.369899
H1    H     H_    0.619290 0.082721 0.517758 0.146931
C5    C     C_R   0.992687 0.432964 0.777572 -0.149658
C6    C     C_R   0.061277 0.459584 0.855407 -0.127709
C7    C     C_R   0.068296 0.396469 0.920277 -0.121428
C8    C     C_R   0.008002 0.306128 0.907623 -0.136956
C9    C     C_R   0.940288 0.276582 0.828834 0.071909
C10   C     C_R   0.930594 0.341633 0.762591 0.069636
C11   C     C_R   0.879174 0.184518 0.815914 -0.167463
C12   C     C_R   0.807244 0.157742 0.736687 0.027143
C13   C     C_R   0.795692 0.223143 0.670746 0.073797
C14   C     C_R   0.856365 0.315195 0.683747 -0.170942
C15   C     C_R   0.750020 0.065781 0.720895 -0.179986
C16   C     C_R   0.681584 0.039418 0.642754 0.318825
C17   C     C_R   0.670773 0.103350 0.578599 -0.135388
C18   C     C_R   0.727955 0.193913 0.591924 -0.196888
H2    H     H_    0.988473 0.485067 0.729655 0.104307
H3    H     H_    0.107926 0.529790 0.865527 0.110700
H4    H     H_    0.120029 0.417671 0.980901 0.107741
H5    H     H_    0.013796 0.260279 0.960591 0.101704
H6    H     H_    0.759316 0.013167 0.768342 0.127199
H7    H     H_    0.720209 0.240155 0.539285 0.122372
C19   C     C_R   0.729322 0.181698 0.242300 0.108479
C20   C     C_R   0.882209 0.182405 0.185533 -0.109852
C21   C     C_R   0.032871 0.245024 0.200580 -0.181038
H8    H     H_    0.154569 0.247833 0.158914 0.129592
C22   C     C_R   0.021596 0.309176 0.266161 -0.174789
H9    H     H_    0.135536 0.359223 0.273155 0.123580
C23   C     C_R   0.859030 0.312852 0.318467 -0.107110
C24   C     C_R   0.717805 0.245362 0.306981 0.099616
C25   C     C_3   0.506120 0.255797 0.296567 -0.409751
C26   C     C_3   0.518547 0.186061 0.226303 -0.396443
H10   H     H_    0.466403 0.325940 0.275073 0.165494
H11   H     H_    0.425167 0.230139 0.351500 0.179647
H12   H     H_    0.485342 0.215515 0.164065 0.170144
H13   H     H_    0.445370 0.119955 0.240744 0.171820
C27   C     C_R   0.502714 0.680287 0.743927 0.099700
C28   C     C_R   0.352208 0.682037 0.685863 -0.090188
C29   C     C_R   0.202221 0.745254 0.700155 -0.135613
H14   H     H_    0.081320 0.748510 0.657932 0.144212
C30   C     C_R   0.213473 0.809581 0.765654 -0.129829
H15   H     H_    0.100607 0.860295 0.771841 0.130961
C31   C     C_R   0.375037 0.812580 0.818795 -0.088403
C32   C     C_R   0.513944 0.743826 0.808609 0.091854
C33   C     C_3   0.726884 0.751215 0.801304 -0.388995
C34   C     C_3   0.714625 0.681730 0.730735 -0.376309
H16   H     H_    0.802170 0.724172 0.857257 0.157825
H17   H     H_    0.773049 0.820734 0.780768 0.198951
H18   H     H_    0.782083 0.614729 0.746297 0.150431
H19   H     H_    0.753988 0.710493 0.668974 0.207481
C35   C     C_R   0.508516 0.748098 0.311119 0.134320
C36   C     C_R   0.352623 0.687673 0.318755 -0.112141
C37   C     C_R   0.200496 0.697889 0.261573 -0.180739
H20   H     H_    0.077506 0.652686 0.264869 0.128643
C38   C     C_R   0.212250 0.761762 0.195714 -0.179131
H21   H     H_    0.096879 0.764681 0.150651 0.128641
C39   C     C_R   0.377081 0.816811 0.184785 -0.112314
C40   C     C_R   0.520528 0.811014 0.245769 0.105476
C41   C     C_3   0.730776 0.795414 0.235825 -0.421225
C42   C     C_3   0.717781 0.727248 0.307328 -0.394775
H22   H     H_    0.816411 0.857735 0.251184 0.180706
H23   H     H_    0.765329 0.762540 0.175213 0.168545
H24   H     H_    0.795210 0.750332 0.364181 0.191202
H25   H     H_    0.745637 0.654924 0.288357 0.160295
O11   O     O_R   0.229140 0.916090 0.913340 -0.543299
O12   O     O_R   0.558860 0.905090 0.086080 -0.540669
O13   O     O_R   0.729100 0.083920 0.086690 -0.536560
C43   C     C_R   0.389885 0.882903 0.114725 0.692526
O14   O     O_R   0.558860 0.905090 0.913930 -0.540964
O15   O     O_R   0.729100 0.083920 0.913310 -0.534569
C44   C     C_R   0.389638 0.883057 0.885182 0.704805
O16   O     O_R   0.229140 0.916080 0.086720 -0.539898
O17   O     O_3   0.395570 0.058660 0.000020 -0.366622
V3    V     V_3+5 0.670450 0.989140 0.000000 1.404271
O18   O     O_R   0.058810 0.094980 0.913910 -0.536994
C45   C     C_R   0.889898 0.116387 0.884989 0.697769
O19   O     O_R   0.058810 0.094980 0.086060 -0.544968
C46   C     C_R   0.890077 0.116984 0.114828 0.689402
V4    V     V_3+5 0.170450 0.010950 0.999970 1.406549
O20   O     O_3   0.895460 0.941370 0.999990 -0.374277
Br1   Br    Br    0.604834 0.915189 0.622789 -0.630583

loop_
_geom_bond_atom_site_label_1
_geom_bond_atom_site_label_2
_ccdc_geom_bond_type
C43   O16   A    
C1    C28   S    
C40   C41   S    
C6    C7    A    
C1    O6    A    
O15   C45   A    
C28   C29   A    
C23   C24   A    
C12   C15   A    
C25   H11   S    
C13   C14   A    
O13   V3    S    
C41   H22   S    
C33   H17   S    
C15   C16   A    
O14   C44   A    
C27   C34   S    
O5    C3    A    
C17   C18   A    
V2    O10   S    
O16   V4    S    
C30   H15   S    
C33   H16   S    
C5    C6    A    
C20   C46   S    
C19   C24   A    
O11   C44   A    
C25   C26   S    
O8    V2    S    
C37   H20   S    
C41   H23   S    
C38   H21   S    
O1    V2    S    
C10   C14   A    
C4    C14   S    
O7    V1    S    
O12   V3    S    
C21   C22   A    
C35   C36   A    
C32   C33   S    
O13   C46   A    
C8    C9    A    
H1    C17   S    
C22   C23   A    
C31   C44   S    
O12   C43   A    
O18   V4    S    
C26   H12   S    
C29   C30   A    
O17   V4    S    
C41   C42   S    
C36   C37   A    
C11   C12   A    
C6    H3    S    
C20   C21   A    
O4    C2    A    
O15   V3    S    
C26   H13   S    
C12   C13   A    
C24   C25   S    
C35   C40   A    
C5    C10   A    
C18   H7    S    
C33   C34   S    
V3    O20   S    
C34   H18   S    
O2    C1    A    
C16   C17   A    
C27   C32   A    
O19   V4    S    
C7    C8    A    
C19   C26   S    
O3    C4    A    
C21   H8    S    
O6    V2    S    
O9    V2    S    
C9    C11   A    
C5    H2    S    
C22   H9    S    
O11   V4    S    
O2    V1    S    
C11   C45   S    
C27   C28   A    
C29   H14   S    
O1    C2    A    
C39   C40   A    
O5    V1    S    
C16   Br1   S    
O8    C3    A    
C8    H5    S    
C31   C32   A    
C7    H4    S    
O4    V1    S    
C3    C23   S    
O3    V1    S    
V1    O10   S    
O18   C45   A    
C19   C20   A    
C35   C42   S    
O19   C46   A    
C30   C31   A    
O7    V2    S    
V4    O20   S    
C42   H24   S    
C39   C43   S    
C2    C36   S    
C25   H10   S    
C34   H19   S    
C13   C18   A    
O17   V3    S    
C15   H6    S    
C37   C38   A    
O14   V3    S    
C9    C10   A    
C38   C39   A    
O9    C4    A    
C42   H25   S    
