data_mof_unit_18121.cif
_audit_creation_date              2012-12-11T17:43:15-0500
_audit_creation_method            fapswitch 2.2
_symmetry_space_group_name_H-M    P1
_symmetry_Int_Tables_number       1
_space_group_crystal_system       triclinic
_cell_length_a                    15.066575
_cell_length_b                    15.146553
_cell_length_c                    16.913107
_cell_angle_alpha                 108.905213
_cell_angle_beta                  106.076239
_cell_angle_gamma                 109.384543
_cell_volume                      3108.46828188

loop_
_atom_site_label
_atom_site_type_symbol
_atom_type_description
_atom_site_fract_x
_atom_site_fract_y
_atom_site_fract_z
_atom_type_partial_charge
C1    C     C_R   0.089238 0.275492 0.028980 -0.128443
C2    C     C_R   0.083451 0.061009 0.943039 -0.251497
C3    C     C_R   0.997819 0.886195 0.927045 0.046777
C4    C     C_R   0.994141 0.072738 0.940061 0.061153
C5    C     C_R   0.085438 0.966701 0.934097 0.071041
C6    C     C_R   0.901695 0.984534 0.918683 0.072393
C7    C     C_R   0.717054 0.921584 0.814975 -0.157481
C8    C     C_R   0.277954 0.027553 0.001671 -0.180395
C9    C     C_R   0.600079 0.963967 0.874244 -0.318904
C10   C     C_R   0.349836 0.917802 0.934720 -0.305071
C11   C     C_R   0.489383 0.685121 0.353373 -0.114660
C12   C     C_R   0.913911 0.708128 0.918785 -0.152716
C13   C     C_R   0.523211 0.433345 0.730514 -0.116774
C14   C     C_R   0.501885 0.675492 0.272609 -0.132016
C15   C     C_R   0.528739 0.451088 0.818557 -0.118781
C16   C     C_R   0.935830 0.451071 0.734569 -0.132973
C17   C     C_R   0.064707 0.481695 0.253678 -0.139917
C18   C     C_R   0.525212 0.596525 0.226859 0.115587
C19   C     C_R   0.557512 0.552592 0.884371 0.102480
C20   C     C_R   0.537383 0.528640 0.264433 -0.171611
C21   C     C_R   0.578695 0.635437 0.860328 -0.183113
C22   C     C_R   0.525197 0.538874 0.345458 -0.106163
C23   C     C_R   0.028227 0.465469 0.725572 0.055741
C24   C     C_R   0.573950 0.617395 0.772458 -0.124895
C25   C     C_R   0.501001 0.616853 0.389757 -0.102131
C26   C     C_R   0.546299 0.516412 0.707609 -0.108744
C27   C     C_R   0.618903 0.571262 0.127300 -0.239934
C28   C     C_R   0.481541 0.588672 0.991251 -0.225989
C29   C     C_R   0.629237 0.560957 0.045383 0.068945
C30   C     C_R   0.463512 0.586624 0.067222 0.058432
C31   C     C_R   0.560498 0.571715 0.977103 0.017320
C32   C     C_R   0.535455 0.584467 0.139493 0.023224
C33   C     C_R   0.618146 0.913011 0.800061 -0.203792
C34   C     C_R   0.973794 0.422562 0.256203 0.069182
C35   C     C_R   0.363150 0.009064 0.003719 -0.171867
C36   C     C_R   0.966312 0.381447 0.322961 0.123562
C37   C     C_R   0.037745 0.421238 0.639127 0.130873
C38   C     C_R   0.142914 0.441721 0.554742 -0.236215
C39   C     C_R   0.862309 0.305917 0.392792 -0.221900
C40   C     C_R   0.719162 0.216292 0.823888 -0.156688
C41   C     C_R   0.223279 0.796892 0.187812 -0.131289
C42   C     C_R   0.135967 0.455704 0.637727 -0.135975
C43   C     C_R   0.868598 0.323799 0.318512 -0.148095
C44   C     C_R   0.947429 0.357246 0.555398 -0.277284
C45   C     C_R   0.663011 0.218539 0.745312 0.072888
C46   C     C_R   0.057504 0.408749 0.397243 -0.279804
C47   C     C_R   0.953432 0.348676 0.472983 0.185253
C48   C     C_R   0.051838 0.396064 0.473691 0.193497
C49   C     C_R   0.554092 0.144808 0.678785 0.133236
C50   C     C_R   0.280167 0.898134 0.361008 0.131393
C51   C     C_R   0.383920 0.087494 0.445989 -0.230763
C52   C     C_R   0.407320 0.971314 0.608389 -0.230337
C53   C     C_R   0.315671 0.997372 0.362733 -0.167580
C54   C     C_R   0.499309 0.052824 0.683607 -0.184661
C55   C     C_R   0.298404 0.891888 0.444508 -0.285620
C56   C     C_R   0.239780 0.802648 0.274679 0.056386
C57   C     C_R   0.508305 0.160143 0.603497 -0.300793
C58   C     C_R   0.371148 0.980871 0.527535 0.195207
C59   C     C_R   0.418562 0.078057 0.527022 0.196383
C60   C     C_R   0.681366 0.024427 0.964628 0.714820
C61   C     C_R   0.250383 0.844567 0.860761 0.694896
C62   C     C_R   0.779300 0.028368 0.979846 -0.301269
C63   C     C_R   0.165143 0.862848 0.860839 -0.279616
C64   C     C_R   0.300853 0.598065 0.006031 -0.163011
C65   C     C_R   0.736829 0.462948 0.047393 -0.144240
C66   C     C_R   0.798593 0.980223 0.904711 0.031801
C67   C     C_R   0.359262 0.565758 0.056125 0.060168
C68   C     C_R   0.177882 0.953457 0.931287 0.048481
C69   C     C_R   0.725643 0.310469 0.747099 -0.137508
C70   C     C_R   0.217779 0.702103 0.265508 -0.129515
C71   C     C_R   0.295524 0.499610 0.079321 -0.125997
C72   C     C_R   0.754544 0.565732 0.976791 -0.108808
C73   C     C_R   0.109857 0.536185 0.812598 -0.057062
C74   C     C_R   0.891999 0.398951 0.177414 -0.135703
C75   C     C_R   0.916764 0.196042 0.944300 -0.130319
C76   C     C_R   0.085918 0.796294 0.000028 -0.133964
C77   C     C_R   0.001438 0.177731 0.965927 0.058594
C78   C     C_R   0.709404 0.536389 0.030215 0.051014
C79   C     C_R   0.000696 0.800314 0.946969 0.072783
C80   C     C_3   0.631042 0.147234 0.026146 -0.334803
C81   C     C_3   0.310280 0.761585 0.762219 -0.313991
C82   C     C_R   0.905749 0.893682 0.912956 -0.244825
H1    H     H_    0.169069 0.290814 0.061446 0.095116
H2    H     H_    0.510507 0.386074 0.835464 0.114448
H3    H     H_    0.554502 0.466687 0.230265 0.105390
H4    H     H_    0.599786 0.713934 0.909936 0.128700
H5    H     H_    0.534013 0.485946 0.373673 0.103141
H6    H     H_    0.591288 0.681561 0.754522 0.119598
H7    H     H_    0.675068 0.567647 0.180748 0.131265
H8    H     H_    0.425959 0.589747 0.935314 0.129113
H9    H     H_    0.133594 0.449772 0.400866 0.115009
H10   H     H_    0.871319 0.324857 0.554579 0.119018
H11   H     H_    0.219090 0.476095 0.555762 0.123102
H12   H     H_    0.836669 0.677582 0.865621 0.102626
H13   H     H_    0.786250 0.267666 0.390786 0.128783
H14   H     H_    0.857031 0.401635 0.681361 0.097786
H15   H     H_    0.143284 0.501275 0.296327 0.088049
H16   H     H_    0.547540 0.230932 0.598786 0.111093
H17   H     H_    0.266695 0.816732 0.444893 0.119668
H18   H     H_    0.417575 0.162460 0.445355 0.123738
H19   H     H_    0.370336 0.897830 0.610476 0.121915
H20   H     H_    0.522841 0.956122 0.861064 0.124619
H21   H     H_    0.416782 0.904080 0.940573 0.149220
H22   H     H_    0.841280 0.071976 0.049522 0.153989
H23   H     H_    0.730196 0.882089 0.756689 0.127016
H24   H     H_    0.088039 0.804983 0.806384 0.148417
H25   H     H_    0.689027 0.164834 0.852043 0.095218
H26   H     H_    0.232996 0.859911 0.169228 0.094966
H27   H     H_    0.702427 0.346567 0.705165 0.088267
H28   H     H_    0.222673 0.676960 0.318629 0.094810
H29   H     H_    0.192286 0.565115 0.831872 0.106368
H30   H     H_    0.811473 0.343306 0.150728 0.092718
H31   H     H_    0.838682 0.142493 0.892274 0.126803
H32   H     H_    0.167128 0.850246 0.026399 0.113012
H33   H     H_    0.836882 0.831269 0.904786 0.134966
H34   H     H_    0.289341 0.097320 0.057070 0.120991
H35   H     H_    0.151831 0.125589 0.952999 0.131350
H36   H     H_    0.796630 0.298206 0.260877 0.124876
H37   H     H_    0.207517 0.500753 0.700740 0.121862
H38   H     H_    0.555363 0.866978 0.730820 0.137809
H39   H     H_    0.439419 0.064592 0.060241 0.152028
H40   H     H_    0.530361 0.040248 0.742264 0.126647
H41   H     H_    0.298453 0.005601 0.299891 0.116494
H42   H     H_    0.548516 0.106161 0.974324 0.155943
H43   H     H_    0.681030 0.198869 0.005198 0.133621
H44   H     H_    0.635068 0.198538 0.092397 0.166957
H45   H     H_    0.491270 0.624378 0.452283 0.095757
H46   H     H_    0.376537 0.760544 0.810657 0.150816
H47   H     H_    0.336731 0.833680 0.752542 0.135303
H48   H     H_    0.279218 0.693163 0.693923 0.183053
H49   H     H_    0.328905 0.659970 0.986894 0.106307
H50   H     H_    0.713232 0.422411 0.085854 0.093879
H51   H     H_    0.317835 0.466437 0.124490 0.106101
H52   H     H_    0.753343 0.624224 0.954123 0.115792
H53   H     H_    0.542113 0.502368 0.639411 0.098169
H54   H     H_    0.470636 0.745521 0.387721 0.114236
H55   H     H_    0.500283 0.355072 0.679819 0.112976
H56   H     H_    0.492963 0.729338 0.245557 0.116940
N1    N     N_R   0.055660 0.348550 0.045620 -0.040217
N2    N     N_R   0.185200 0.638170 0.176300 -0.039605
N3    N     N_R   0.201680 0.494570 0.045620 -0.040439
N4    N     N_R   0.798320 0.505430 0.954380 -0.041807
N5    N     N_R   0.068420 0.560530 0.871650 -0.046842
N6    N     N_R   0.931580 0.439470 0.128350 -0.038542
N7    N     N_R   0.948070 0.295860 0.997670 -0.043091
N8    N     N_R   0.051930 0.704140 0.002330 -0.040869
N9    N     N_R   0.944340 0.651450 0.954380 -0.039311
N10   N     N_R   0.960830 0.507850 0.823700 -0.043703
N11   N     N_R   0.039170 0.492150 0.176300 -0.038490
N12   N     N_R   0.811290 0.303410 0.871650 -0.041406
N13   N     N_R   0.188710 0.696590 0.128350 -0.040449
N14   N     N_R   0.205200 0.552990 0.997670 -0.042403
N15   N     N_R   0.794800 0.447010 0.002330 -0.041441
N16   N     N_R   0.814800 0.361830 0.823700 -0.038262
Ni1   Ni    Ni4+2 0.119340 0.493420 0.109960 0.214609
Ni2   Ni    Ni4+2 0.880660 0.506580 0.890040 0.215249
Ni3   Ni    Ni4+2 0.872590 0.372590 0.000000 0.207516
Ni4   Ni    Ni4+2 0.127410 0.627410 0.000000 0.221727
O1    O     O_3   0.665714 0.075144 0.039864 -0.619519
O2    O     O_3   0.230230 0.749918 0.791978 -0.626562

loop_
_geom_bond_atom_site_label_1
_geom_bond_atom_site_label_2
_ccdc_geom_bond_type
C70   N2    A    
C6    C82   A    
N12   Ni3   S    
C27   C29   A    
C1    C77   A    
C14   C18   A    
C2    C4    A    
C60   O1    S    
C19   C31   S    
C75   N7    A    
C15   C19   A    
C64   N14   A    
C12   N9    A    
C10   H21   S    
C41   H26   S    
C24   C26   A    
C82   H33   S    
C38   C42   A    
C74   H30   S    
C11   C14   A    
C42   H37   S    
C57   C59   A    
C67   C71   A    
C80   H43   S    
C11   C25   A    
C49   C54   A    
C12   C79   A    
C49   C57   A    
C60   C62   A    
C37   C42   A    
C61   C63   A    
C72   H52   S    
C72   C78   A    
C26   H53   S    
C70   H28   S    
C21   H4    S    
C69   H27   S    
C29   C78   S    
C14   H56   S    
C9    H20   S    
C22   C25   A    
C76   H32   S    
C7    H23   S    
C36   C46   A    
C10   C35   A    
C75   H31   S    
N1    Ni1   S    
N16   Ni2   S    
C30   C67   S    
C1    N1    A    
C44   C47   A    
C71   N3    A    
C54   H40   S    
C76   N8    A    
C81   O2    S    
C9    C33   A    
C7    C33   A    
C12   H12   S    
N5    N10   A    
C23   C73   A    
C5    C68   S    
C2    H35   S    
C52   C54   A    
C73   H29   S    
C62   H22   S    
C40   C45   A    
C46   C48   A    
C52   H19   S    
C16   H14   S    
C50   C53   A    
C62   C66   A    
C45   C69   A    
N13   Ni4   S    
C35   H39   S    
C4    C6    A    
C53   H41   S    
C61   O2    S    
N3    Ni1   S    
C80   O1    S    
C39   C43   A    
C46   H9    S    
C43   H36   S    
C58   C59   A    
C23   C37   S    
C50   C56   S    
C51   C53   A    
C8    C35   A    
C13   H55   S    
C72   N4    A    
C64   C67   A    
C41   C56   A    
N6    N11   A    
N7    Ni3   S    
C81   H47   S    
C47   C48   A    
C64   H49   S    
C45   C49   S    
C20   H3    S    
C3    C82   A    
C40   N12   A    
C22   H5    S    
C63   H24   S    
N9    Ni2   S    
C75   C77   A    
N2    N13   A    
C39   H13   S    
C3    C79   S    
N11   Ni1   S    
C52   C58   A    
C34   C74   A    
N14   Ni4   S    
C41   N13   A    
C20   C22   A    
C8    C68   A    
C16   C23   A    
C56   C70   A    
C40   H25   S    
C81   H46   S    
C13   C26   A    
C21   C24   A    
C10   C61   A    
C51   C59   A    
C17   C34   A    
C65   H50   S    
N5    Ni4   S    
C39   C47   A    
N8    N9    A    
C80   H42   S    
C65   N15   A    
C51   H18   S    
C74   N6    A    
C63   C68   A    
N1    N7    A    
C65   C78   A    
C19   C21   A    
C27   C32   A    
C38   C48   A    
C24   H6    S    
C28   C31   A    
C17   N11   A    
C69   N16   A    
C3    C5    A    
C44   H10   S    
C71   H51   S    
C15   H2    S    
N8    Ni4   S    
C1    H1    S    
C50   C55   A    
C16   N10   A    
C9    C60   A    
C37   C44   A    
C13   C15   A    
C25   H45   S    
C4    C77   S    
C29   C31   A    
C11   H54   S    
C7    C66   A    
C30   C32   A    
C81   H48   S    
C80   H44   S    
C57   H16   S    
C38   H11   S    
C28   C30   A    
C34   C36   S    
C27   H7    S    
C18   C20   A    
N4    N15   A    
N15   Ni3   S    
C73   N5    A    
C8    H34   S    
N2    Ni1   S    
C2    C5    A    
C6    C66   S    
C76   C79   A    
C18   C32   S    
C33   H38   S    
N12   N16   A    
C55   C58   A    
C55   H17   S    
C36   C43   A    
C28   H8    S    
N10   Ni2   S    
N4    Ni2   S    
N6    Ni3   S    
C17   H15   S    
N3    N14   A    
