data_mof_unit_30117.cif
_audit_creation_date              2013-03-05T16:04:52-0500
_audit_creation_method            fapswitch 2.2
_symmetry_space_group_name_H-M    P1
_symmetry_Int_Tables_number       1
_space_group_crystal_system       triclinic
_cell_length_a                    15.420478
_cell_length_b                    15.333514
_cell_length_c                    9.506934
_cell_angle_alpha                 89.940957
_cell_angle_beta                  90.803455
_cell_angle_gamma                 90.103924
_cell_volume                      2247.6897931

loop_
_atom_site_label
_atom_site_type_symbol
_atom_site_description
_atom_site_fract_x
_atom_site_fract_y
_atom_site_fract_z
_atom_type_partial_charge
O1    O     O_R   0.090170 0.409820 0.618740 -0.551191
O2    O     O_R   0.909830 0.590180 0.381260 -0.553549
O3    O     O_R   0.909830 0.590180 0.618740 -0.558283
O4    O     O_R   0.090170 0.409820 0.381260 -0.554929
O5    O     O_R   0.909830 0.409820 0.381260 -0.564634
O6    O     O_R   0.090170 0.590180 0.618740 -0.556804
O7    O     O_R   0.090170 0.590180 0.381260 -0.559031
O8    O     O_R   0.909830 0.409820 0.618740 -0.563260
O9    O     O_R   0.590170 0.909820 0.618740 -0.553436
O10   O     O_R   0.409830 0.090180 0.381260 -0.551173
O11   O     O_R   0.409830 0.090180 0.618740 -0.554933
O12   O     O_R   0.590170 0.909820 0.381260 -0.558375
O13   O     O_R   0.409830 0.909820 0.381260 -0.556839
O14   O     O_R   0.590170 0.090180 0.618740 -0.564655
O15   O     O_R   0.590170 0.090180 0.381260 -0.563236
O16   O     O_R   0.409830 0.909820 0.618740 -0.558983
C1    C     C_R   0.117964 0.380091 0.500774 0.894544
C2    C     C_R   0.882029 0.619899 0.499185 0.897969
C3    C     C_R   0.881449 0.380727 0.499402 0.905604
C4    C     C_R   0.118045 0.619787 0.500779 0.897445
C5    C     C_R   0.617974 0.880104 0.500815 0.897845
C6    C     C_R   0.382035 0.119908 0.499226 0.894567
C7    C     C_R   0.381955 0.880212 0.499221 0.897365
C8    C     C_R   0.618551 0.119273 0.500598 0.905608
H1    H     H_    0.994306 0.362333 0.130697 0.135871
H2    H     H_    0.002945 0.637649 0.869368 0.136303
H3    H     H_    0.005636 0.637664 0.130311 0.144110
H4    H     H_    0.993322 0.362309 0.869627 0.147417
H5    H     H_    0.497101 0.862348 0.130631 0.136332
H6    H     H_    0.505660 0.137668 0.869302 0.135889
H7    H     H_    0.506651 0.137691 0.130372 0.147391
H8    H     H_    0.494445 0.862331 0.869686 0.144132
N1    N     N_R   1.000000 0.500000 0.852070 -0.154383
N2    N     N_R   0.000000 0.500000 0.147930 -0.154877
N3    N     N_R   0.500000 0.000000 0.852070 -0.154874
N4    N     N_R   0.500000 0.000000 0.147930 -0.154366
Cu1   Cu    Cu3+1 1.000000 0.500000 0.640660 0.998158
Cu2   Cu    Cu3+1 0.000000 0.500000 0.359340 0.996154
Cu3   Cu    Cu3+1 0.500000 0.000000 0.640660 0.996176
Cu4   Cu    Cu3+1 0.500000 0.000000 0.359340 0.998125
C9    C     C_R   0.996856 0.423507 0.074503 -0.015347
C10   C     C_R   0.002106 0.576473 0.925521 -0.008724
C11   C     C_R   0.002927 0.576468 0.074336 -0.018449
C12   C     C_R   0.996558 0.423513 0.925644 -0.022309
C13   C     C_R   0.497919 0.923526 0.074479 -0.008854
C14   C     C_R   0.503123 0.076493 0.925496 -0.015374
C15   C     C_R   0.503425 0.076487 0.074355 -0.022216
C16   C     C_R   0.497106 0.923530 0.925662 -0.018419
C17   C     C_R   0.754350 0.309235 0.386635 0.335694
C18   C     C_R   0.240416 0.696656 0.619339 0.338598
C19   C     C_R   0.190999 0.744107 0.386164 0.342122
C20   C     C_R   0.812789 0.251972 0.608895 0.340531
C21   C     C_R   0.237074 0.299740 0.622363 0.338262
C22   C     C_R   0.761560 0.698891 0.378758 0.341986
C23   C     C_R   0.807116 0.742178 0.616023 0.341042
C24   C     C_R   0.194258 0.259192 0.382466 0.342488
C25   C     C_R   0.259582 0.803345 0.380662 0.338609
C26   C     C_R   0.745653 0.190762 0.613361 0.335700
C27   C     C_R   0.687212 0.248025 0.391103 0.340503
C28   C     C_R   0.309000 0.755894 0.613839 0.342111
C29   C     C_R   0.738435 0.801108 0.621251 0.341962
C30   C     C_R   0.262920 0.200256 0.377640 0.338278
C31   C     C_R   0.305734 0.240802 0.617540 0.342505
C32   C     C_R   0.692885 0.757824 0.383985 0.341059
C33   C     C_R   0.183853 0.687857 0.502485 -0.376215
C34   C     C_R   0.815227 0.313068 0.498230 -0.369181
C35   C     C_R   0.816262 0.688038 0.497549 -0.377874
C36   C     C_R   0.183731 0.311959 0.502275 -0.377752
C37   C     C_R   0.684774 0.186930 0.501769 -0.369175
C38   C     C_R   0.316148 0.812142 0.497517 -0.376241
C39   C     C_R   0.316263 0.188037 0.497728 -0.377749
C40   C     C_R   0.683741 0.811968 0.502452 -0.377889
O17   O     O_3   0.755250 0.371379 0.280710 -0.533539
C41   C     C_3   0.786167 0.332860 0.156309 -0.181753
H9    H     H_    0.846701 0.294710 0.174993 0.113445
H10   H     H_    0.801554 0.385507 0.080482 0.178417
H11   H     H_    0.735739 0.290962 0.106500 0.170443
O18   O     O_3   0.232597 0.643271 0.735962 -0.528330
C42   C     C_3   0.192992 0.691608 0.843728 -0.191796
H12   H     H_    0.182688 0.648043 0.935221 0.179879
H13   H     H_    0.128782 0.717513 0.809198 0.116952
H14   H     H_    0.234721 0.746536 0.879410 0.168090
O19   O     O_3   0.132989 0.739629 0.273930 -0.557196
C43   C     C_3   0.064687 0.798518 0.298056 -0.297316
H15   H     H_    0.024224 0.776090 0.386914 0.124125
H16   H     H_    0.022559 0.800771 0.202628 0.161198
H17   H     H_    0.088788 0.866025 0.317487 0.182176
O20   O     O_3   0.874214 0.253467 0.716434 -0.562714
C44   C     C_3   0.943102 0.197775 0.680755 -0.302751
H18   H     H_    0.985575 0.189271 0.774817 0.165073
H19   H     H_    0.982799 0.227478 0.596773 0.126846
H20   H     H_    0.920196 0.131685 0.648615 0.179792
O21   O     O_3   0.226948 0.350311 0.741564 -0.529346
C45   C     C_3   0.183593 0.300203 0.843593 -0.193021
H21   H     H_    0.119402 0.277290 0.803674 0.119135
H22   H     H_    0.172433 0.341654 0.937126 0.185678
H23   H     H_    0.222846 0.243313 0.878526 0.173023
O22   O     O_3   0.770767 0.647369 0.260428 -0.526326
C46   C     C_3   0.813308 0.696809 0.156640 -0.195354
H24   H     H_    0.824015 0.654681 0.063713 0.181610
H25   H     H_    0.877694 0.720348 0.194941 0.118429
H26   H     H_    0.773582 0.753317 0.121510 0.170551
O23   O     O_3   0.863187 0.735835 0.730593 -0.554890
C47   C     C_3   0.931529 0.795909 0.712754 -0.292382
H27   H     H_    0.973060 0.776532 0.623467 0.123242
H28   H     H_    0.972699 0.795666 0.809356 0.159802
H29   H     H_    0.907281 0.863716 0.697677 0.186207
O24   O     O_3   0.140013 0.267319 0.265874 -0.553787
C48   C     C_3   0.071928 0.206313 0.277165 -0.292801
H30   H     H_    0.034168 0.206191 0.177003 0.161945
H31   H     H_    0.027126 0.225259 0.362204 0.126295
H32   H     H_    0.096207 0.138723 0.294437 0.183624
O25   O     O_3   0.267396 0.856736 0.264042 -0.528303
C49   C     C_3   0.307004 0.808405 0.156268 -0.191756
H33   H     H_    0.371222 0.782512 0.190791 0.116927
H34   H     H_    0.317296 0.851973 0.064772 0.179903
H35   H     H_    0.265284 0.753468 0.120592 0.168054
O26   O     O_3   0.744757 0.128611 0.719278 -0.533571
C50   C     C_3   0.713847 0.167121 0.843689 -0.181754
H36   H     H_    0.698445 0.114470 0.919496 0.178418
H37   H     H_    0.653324 0.205289 0.825018 0.113453
H38   H     H_    0.764285 0.208999 0.893514 0.170451
O27   O     O_3   0.625790 0.246523 0.283562 -0.562719
C51   C     C_3   0.556925 0.302255 0.319194 -0.302719
H39   H     H_    0.517249 0.272623 0.403265 0.126807
H40   H     H_    0.514423 0.310704 0.225154 0.165043
H41   H     H_    0.579858 0.368361 0.351189 0.179924
O28   O     O_3   0.367002 0.760382 0.726082 -0.557188
C52   C     C_3   0.435284 0.701465 0.702022 -0.297351
H42   H     H_    0.477367 0.699180 0.797500 0.161242
H43   H     H_    0.475795 0.723887 0.613229 0.124128
H44   H     H_    0.411163 0.633974 0.682537 0.182184
O29   O     O_3   0.729146 0.852556 0.739653 -0.526494
C53   C     C_3   0.686567 0.803027 0.843295 -0.195281
H45   H     H_    0.622364 0.779123 0.804667 0.118124
H46   H     H_    0.675423 0.845202 0.936046 0.181538
H47   H     H_    0.726514 0.746763 0.878809 0.170782
O30   O     O_3   0.273053 0.149694 0.258429 -0.529320
C54   C     C_3   0.316399 0.199819 0.156406 -0.193090
H48   H     H_    0.327528 0.158393 0.062841 0.185683
H49   H     H_    0.380601 0.222702 0.196301 0.119151
H50   H     H_    0.277164 0.256728 0.121533 0.173007
O31   O     O_3   0.359976 0.232673 0.734134 -0.553802
C55   C     C_3   0.428060 0.293682 0.722852 -0.292810
H51   H     H_    0.472870 0.274732 0.637825 0.126311
H52   H     H_    0.465811 0.293810 0.823023 0.161946
H53   H     H_    0.403781 0.361270 0.705565 0.183628
O32   O     O_3   0.636794 0.764119 0.269433 -0.554809
C56   C     C_3   0.568303 0.704259 0.287591 -0.292229
H54   H     H_    0.527255 0.704244 0.190852 0.159889
H55   H     H_    0.526701 0.724062 0.376535 0.123346
H56   H     H_    0.592376 0.636453 0.303397 0.185711

loop_
_geom_bond_atom_site_label_1
_geom_bond_atom_site_label_2
_geom_bond_distance
_ccdc_geom_bond_type
O21   C45   1.411723 S    
O2    C2    1.289799 A    
C21   C31   1.394549 A    
O17   C41   1.411769 S    
C43   H17   1.113908 S    
C26   O26   1.385875 S    
O28   C52   1.409884 S    
C53   H47   1.110514 S    
C47   H28   1.109124 S    
C49   H33   1.112665 S    
C29   O29   1.384447 S    
O27   C51   1.409508 S    
O10   C6    1.290153 A    
C41   H10   1.109295 S    
N4    C15   1.366257 A    
N1    C10   1.365491 A    
C43   H16   1.108946 S    
O25   C49   1.411672 S    
C48   H31   1.110049 S    
O3    C2    1.292006 A    
O11   Cu3   1.971584 S    
C54   H50   1.110464 S    
C13   C16   1.414668 A    
O31   C55   1.410054 S    
C23   O23   1.384600 S    
O9    Cu3   1.976002 S    
O24   C48   1.410055 S    
O13   C7    1.288521 A    
C3    C34   1.454320 S    
O10   Cu4   1.976002 S    
C19   C33   1.407157 A    
O14   C8    1.290001 A    
C21   C36   1.410286 A    
O26   C50   1.411768 S    
C24   O24   1.384893 S    
O13   Cu4   1.972169 S    
O14   Cu3   1.972167 S    
C46   H24   1.109358 S    
C41   H11   1.109125 S    
C19   C25   1.394365 A    
C25   C38   1.409219 A    
C44   H19   1.109760 S    
O1    Cu1   1.976002 S    
C52   H44   1.113865 S    
H7    C15   1.080254 S    
O5    Cu2   1.972169 S    
C32   O32   1.384605 S    
H8    C16   1.079698 S    
C7    C38   1.454374 S    
N2    C9    1.365966 A    
C55   H53   1.113804 S    
N3    C16   1.365781 A    
C18   O18   1.383980 S    
C47   H27   1.111491 S    
C18   C33   1.409209 A    
C8    C37   1.454318 S    
C50   H37   1.114535 S    
C27   O27   1.384103 S    
O8    C3    1.290014 A    
C17   C34   1.407937 A    
C5    C40   1.457279 S    
C21   O21   1.384594 S    
C4    C33   1.454375 S    
C28   O28   1.384390 S    
O32   C56   1.410322 S    
C55   H52   1.109167 S    
C41   H9    1.114550 S    
C48   H32   1.113804 S    
H1    C9    1.079927 S    
Cu3   Cu4   2.674491 S    
C42   H13   1.112653 S    
O18   C42   1.411641 S    
C53   H46   1.109547 S    
C22   C35   1.409985 A    
C45   H23   1.110541 S    
C2    C35   1.457304 S    
C24   C36   1.409230 A    
O12   C5    1.292005 A    
H4    C12   1.080260 S    
N1    Cu1   2.009861 S    
H5    C13   1.078989 S    
O12   Cu4   1.971584 S    
N3    Cu3   2.009861 S    
Cu1   Cu2   2.674491 S    
O2    Cu2   1.976002 S    
C23   C35   1.408705 A    
O19   C43   1.409951 S    
C28   C38   1.407157 A    
C54   H48   1.109052 S    
O6    Cu1   1.972167 S    
N4    C13   1.365503 A    
C25   O25   1.384004 S    
C43   H15   1.111136 S    
C44   H20   1.114194 S    
C45   H22   1.109119 S    
C20   C26   1.397190 A    
C27   C37   1.408849 A    
C51   H41   1.114165 S    
O4    C1    1.291683 A    
C29   C40   1.409980 A    
O15   C8    1.290012 A    
C30   O30   1.384608 S    
C31   C39   1.409239 A    
O7    C4    1.291749 A    
O16   C7    1.291745 A    
O29   C53   1.411918 S    
C9    C12   1.415137 A    
C17   O17   1.385874 S    
C56   H56   1.113954 S    
C10   C11   1.414660 A    
C19   O19   1.384395 S    
C6    C39   1.457253 S    
N4    Cu4   2.009862 S    
C20   C34   1.408856 A    
H2    C10   1.078983 S    
C51   H40   1.108718 S    
C52   H42   1.108945 S    
C50   H38   1.109106 S    
C14   C15   1.415134 A    
C1    C36   1.457245 S    
C46   H25   1.112423 S    
N2    Cu2   2.009862 S    
N1    C12   1.366263 A    
H6    C14   1.079926 S    
N2    C11   1.365777 A    
O4    Cu2   1.971584 S    
C55   H51   1.110053 S    
C42   H14   1.109495 S    
C49   H34   1.109231 S    
C50   H36   1.109280 S    
C26   C37   1.407935 A    
C53   H45   1.112726 S    
O5    C3    1.290000 A    
O6    C4    1.288516 A    
O11   C6    1.291681 A    
O1    C1    1.290148 A    
C17   C27   1.397194 A    
C18   C28   1.394370 A    
C56   H55   1.111402 S    
C56   H54   1.109131 S    
C54   H49   1.111569 S    
O9    C5    1.289786 A    
C22   C32   1.394841 A    
C23   C29   1.394883 A    
O7    Cu2   1.968344 S    
C30   C39   1.410291 A    
C24   C30   1.394550 A    
C32   C40   1.408692 A    
C45   H21   1.111652 S    
C20   O20   1.384109 S    
O15   Cu4   1.968344 S    
C49   H35   1.109505 S    
O30   C54   1.411752 S    
O16   Cu3   1.968346 S    
C42   H12   1.109210 S    
H3    C11   1.079670 S    
C46   H26   1.110474 S    
O20   C44   1.409511 S    
O3    Cu1   1.971584 S    
O22   C46   1.411887 S    
O8    Cu1   1.968346 S    
O23   C47   1.410345 S    
C31   O31   1.384892 S    
C22   O22   1.384392 S    
C44   H18   1.108720 S    
C48   H30   1.109161 S    
N3    C14   1.365963 A    
C47   H29   1.113991 S    
C51   H39   1.109750 S    
C52   H43   1.111061 S    
