data_mof_unit_63489.cif
_audit_creation_date              2012-12-10T17:06:17-0500
_audit_creation_method            fapswitch 2.2
_symmetry_space_group_name_H-M    P1
_symmetry_Int_Tables_number       1
_space_group_crystal_system       triclinic
_cell_length_a                    23.513369
_cell_length_b                    30.746692
_cell_length_c                    19.573667
_cell_angle_alpha                 90.307895
_cell_angle_beta                  128.646817
_cell_angle_gamma                 89.57494
_cell_volume                      11051.7268116

loop_
_atom_site_label
_atom_site_type_symbol
_atom_type_description
_atom_site_fract_x
_atom_site_fract_y
_atom_site_fract_z
_atom_type_partial_charge
C1    C     C_R   0.689691 0.809782 0.880034 0.857011
C2    C     C_R   0.291803 0.131456 0.188931 0.012705
C3    C     C_R   0.788874 0.048263 0.847852 -0.221207
C4    C     C_R   0.301765 0.421940 0.805987 -0.234560
C5    C     C_R   0.698236 0.578055 0.194000 -0.234562
C6    C     C_R   0.710925 0.451512 0.152475 -0.221242
C7    C     C_R   0.289056 0.548484 0.847534 -0.221246
C8    C     C_R   0.726931 0.929730 0.749647 -0.303640
C9    C     C_R   0.273063 0.070288 0.250384 -0.303720
C10   C     C_R   0.285789 0.950163 0.220975 -0.285669
C11   C     C_R   0.714273 0.049893 0.778940 -0.285704
C12   C     C_R   0.226926 0.429776 0.749727 -0.303552
C13   C     C_R   0.293382 0.878161 0.175664 0.009958
C14   C     C_R   0.773076 0.570221 0.250265 -0.303539
C15   C     C_R   0.785558 0.449961 0.221265 -0.285706
C16   C     C_R   0.214430 0.550038 0.778736 -0.285743
C17   C     C_R   0.678118 0.902823 0.749836 0.119078
C18   C     C_R   0.321879 0.097184 0.250178 0.119088
C19   C     C_R   0.327275 0.912743 0.235827 0.106403
C20   C     C_R   0.672752 0.087284 0.764135 0.106441
C21   C     C_R   0.178117 0.402845 0.749876 0.119076
C22   C     C_R   0.821883 0.597153 0.250119 0.119073
C23   C     C_R   0.827175 0.412643 0.235965 0.106509
C24   C     C_R   0.706630 0.121864 0.824303 0.009961
C25   C     C_R   0.172819 0.587356 0.764036 0.106528
C26   C     C_R   0.208199 0.368573 0.811120 0.012673
C27   C     C_R   0.791800 0.631425 0.188874 0.012686
C28   C     C_R   0.793335 0.378058 0.175804 0.009952
C29   C     C_R   0.206660 0.621939 0.824200 0.009948
C30   C     C_R   0.661294 0.842446 0.814786 -0.044791
C31   C     C_R   0.338706 0.157554 0.185214 -0.044795
C32   C     C_R   0.336957 0.842924 0.185770 -0.062143
C33   C     C_R   0.310310 0.190218 0.119966 0.857005
C34   C     C_R   0.663036 0.157077 0.814233 -0.062083
C35   C     C_R   0.161296 0.342445 0.814784 -0.044820
C36   C     C_R   0.838704 0.657554 0.185217 -0.044829
C37   C     C_R   0.836987 0.342917 0.185763 -0.061895
C38   C     C_R   0.163014 0.657082 0.814238 -0.061903
C39   C     C_R   0.586404 0.848439 0.758451 -0.212159
C40   C     C_R   0.413596 0.151564 0.241558 -0.212156
C41   C     C_R   0.410939 0.840411 0.256810 -0.198333
C42   C     C_R   0.589043 0.159569 0.743230 -0.198376
C43   C     C_R   0.086400 0.348407 0.758386 -0.212127
C44   C     C_R   0.307955 0.809899 0.120017 0.857551
C45   C     C_R   0.913601 0.651597 0.241625 -0.212132
C46   C     C_R   0.911018 0.340496 0.256637 -0.198497
C47   C     C_R   0.088989 0.659505 0.743360 -0.198501
C48   C     C_R   0.556316 0.881354 0.697976 -0.195514
C49   C     C_R   0.443683 0.118651 0.302034 -0.195509
C50   C     C_R   0.443322 0.873277 0.317907 -0.202104
C51   C     C_R   0.556667 0.126701 0.682136 -0.202078
C52   C     C_R   0.056308 0.381320 0.697908 -0.195533
C53   C     C_R   0.943692 0.618684 0.302103 -0.195535
C54   C     C_R   0.943373 0.373368 0.317720 -0.201992
C55   C     C_R   0.692037 0.190101 0.879983 0.857545
C56   C     C_R   0.056632 0.626634 0.682276 -0.202013
C57   C     C_R   0.600695 0.908676 0.692554 -0.099425
C58   C     C_R   0.399303 0.091328 0.307454 -0.099435
C59   C     C_R   0.402167 0.909135 0.308156 -0.083218
C60   C     C_R   0.597843 0.090865 0.691848 -0.083269
C61   C     C_R   0.100690 0.408670 0.692542 -0.099390
C62   C     C_R   0.899310 0.591329 0.307458 -0.099385
C63   C     C_R   0.902136 0.409138 0.308129 -0.083445
C64   C     C_R   0.097863 0.590862 0.691869 -0.083434
C65   C     C_R   0.061935 0.559052 0.622841 0.876215
C66   C     C_R   0.189694 0.309782 0.880034 0.857003
C67   C     C_R   0.938064 0.440949 0.377158 0.876218
C68   C     C_R   0.936768 0.558759 0.376012 0.872817
C69   C     C_R   0.063231 0.441240 0.623987 0.872824
C70   C     C_R   0.561922 0.059059 0.622821 0.876212
C71   C     C_R   0.438083 0.940938 0.377186 0.876218
C72   C     C_R   0.436766 0.058759 0.376012 0.872715
C73   C     C_R   0.563234 0.941242 0.623991 0.872714
C74   C     C_R   0.640393 0.749762 0.999511 0.877188
C75   C     C_R   0.359606 0.250237 0.000488 0.877185
C76   C     C_R   0.359657 0.749540 0.000623 0.886063
C77   C     C_R   0.810307 0.690218 0.119966 0.857002
C78   C     C_R   0.640343 0.250460 0.999377 0.886042
C79   C     C_R   0.140393 0.249763 0.999510 0.877178
C80   C     C_R   0.859607 0.750237 0.000490 0.877179
C81   C     C_R   0.859657 0.249540 0.000622 0.886020
C82   C     C_R   0.140343 0.750460 0.999378 0.886030
C83   C     C_1   0.580306 0.748721 0.999738 -0.160212
C84   C     C_1   0.419694 0.251279 0.000261 -0.160210
C85   C     C_1   0.420298 0.748441 0.001424 -0.162520
C86   C     C_1   0.579702 0.251559 0.998576 -0.162518
C87   C     C_1   0.080305 0.248722 0.999738 -0.160212
C88   C     C_R   0.807986 0.309897 0.120017 0.857515
C89   C     C_1   0.919695 0.751278 0.000262 -0.160218
C90   C     C_1   0.920299 0.248442 0.001425 -0.162542
C91   C     C_1   0.079701 0.751558 0.998575 -0.162555
C92   C     C_1   0.529873 0.748133 0.000424 0.049255
C93   C     C_1   0.470127 0.251867 0.999576 0.049258
C94   C     C_1   0.471003 0.748004 0.001230 0.042457
C95   C     C_1   0.528997 0.251996 0.998770 0.042459
C96   C     C_1   0.029873 0.248133 0.000424 0.049292
C97   C     C_1   0.970127 0.751866 0.999576 0.049276
C98   C     C_1   0.971004 0.248004 0.001231 0.042413
C99   C     C_R   0.192015 0.690102 0.879983 0.857511
C100  C     C_1   0.028996 0.751996 0.998769 0.042383
C101  C     C_R   0.784273 0.860762 0.866708 -0.288397
C102  C     C_R   0.215723 0.139238 0.133286 -0.288410
C103  C     C_R   0.217115 0.879676 0.107839 -0.281757
C104  C     C_R   0.782904 0.120373 0.892098 -0.281808
C105  C     C_R   0.284287 0.360822 0.866817 -0.288460
C106  C     C_R   0.715710 0.639174 0.133172 -0.288460
C107  C     C_R   0.717039 0.379468 0.108122 -0.281931
C108  C     C_R   0.282950 0.620526 0.891887 -0.281917
C109  C     C_R   0.830367 0.887261 0.863840 0.725082
C110  C     C_R   0.708194 0.868546 0.811071 0.012690
C111  C     C_R   0.169627 0.112746 0.136164 0.725105
C112  C     C_R   0.176629 0.916275 0.096492 0.720654
C113  C     C_R   0.823419 0.083801 0.903404 0.720674
C114  C     C_R   0.330380 0.387351 0.864000 0.725163
C115  C     C_R   0.669617 0.612645 0.135985 0.725135
C116  C     C_R   0.676440 0.415966 0.096928 0.720716
C117  C     C_R   0.323542 0.584027 0.903086 0.720731
C118  C     C_R   0.801762 0.921858 0.805844 -0.234610
C119  C     C_R   0.198232 0.078160 0.194183 -0.234696
C120  C     C_R   0.211197 0.951818 0.152030 -0.221192
F1    F     F_    0.903103 0.879398 0.917778 -0.625119
F2    F     F_    0.096891 0.120605 0.082212 -0.625057
F3    F     F_    0.103755 0.917435 0.030719 -0.618750
F4    F     F_    0.896300 0.082665 0.969148 -0.618698
F5    F     F_    0.403122 0.379524 0.918002 -0.624861
F6    F     F_    0.596872 0.620472 0.081981 -0.624863
F7    F     F_    0.603535 0.417023 0.031301 -0.618562
F8    F     F_    0.396441 0.582966 0.968722 -0.618586
H1    H     H_    0.551193 0.827889 0.762292 0.147295
H2    H     H_    0.191207 0.165977 0.087502 0.165428
H3    H     H_    0.187967 0.852614 0.063767 0.180791
H4    H     H_    0.812034 0.147434 0.936178 0.180767
H5    H     H_    0.308812 0.334081 0.912593 0.165499
H6    H     H_    0.691184 0.665916 0.087396 0.165505
H7    H     H_    0.687959 0.352399 0.064044 0.180630
H8    H     H_    0.312033 0.647593 0.935968 0.180642
H9    H     H_    0.837687 0.942753 0.804061 0.183008
H10   H     H_    0.162305 0.057273 0.195978 0.183040
H11   H     H_    0.180144 0.980653 0.142064 0.179506
H12   H     H_    0.448808 0.172116 0.237720 0.147298
H13   H     H_    0.819950 0.019449 0.857779 0.179475
H14   H     H_    0.337687 0.442856 0.804238 0.182858
H15   H     H_    0.662314 0.557139 0.195748 0.182853
H16   H     H_    0.679781 0.480269 0.142636 0.179374
H17   H     H_    0.320196 0.519726 0.857374 0.179384
H18   H     H_    0.710090 0.957306 0.707734 0.192315
H19   H     H_    0.289897 0.042718 0.292311 0.192397
H20   H     H_    0.310893 0.978548 0.261461 0.167789
H21   H     H_    0.689200 0.021512 0.738444 0.167855
H22   H     H_    0.210069 0.457339 0.707788 0.192202
H23   H     H_    0.443998 0.813234 0.264121 0.160125
H24   H     H_    0.789935 0.542658 0.292207 0.192193
H25   H     H_    0.810568 0.478348 0.261749 0.168005
H26   H     H_    0.189419 0.521652 0.738250 0.168015
H27   H     H_    0.497596 0.885084 0.654412 0.173119
H28   H     H_    0.502403 0.114921 0.345600 0.173117
H29   H     H_    0.500660 0.870562 0.373505 0.163259
H30   H     H_    0.499319 0.129400 0.626569 0.163293
H31   H     H_    0.997585 0.385029 0.654298 0.173094
H32   H     H_    0.002416 0.614978 0.345721 0.173093
H33   H     H_    0.000757 0.370722 0.373187 0.163403
H34   H     H_    0.555972 0.186730 0.735946 0.160089
H35   H     H_    0.999253 0.629282 0.626807 0.163406
H36   H     H_    0.051188 0.327834 0.762183 0.147326
H37   H     H_    0.948815 0.672173 0.237836 0.147331
H38   H     H_    0.944129 0.313386 0.263826 0.159980
H39   H     H_    0.055881 0.686616 0.736168 0.159992
H40   H     H_    0.808789 0.834017 0.912476 0.165411
O1    O     O_R   0.678330 0.769930 0.856640 -0.616359
O2    O     O_R   0.269970 0.178360 0.039920 -0.614863
O3    O     O_R   0.269970 0.821640 0.039920 -0.617735
O4    O     O_R   0.730030 0.178360 0.960080 -0.617734
O5    O     O_R   0.230030 0.321640 0.960080 -0.614884
O6    O     O_R   0.769970 0.678360 0.039920 -0.614884
O7    O     O_R   0.769970 0.321640 0.039920 -0.617703
O8    O     O_R   0.230030 0.678360 0.960080 -0.617708
O9    O     O_R   0.641350 0.724120 0.948260 -0.608263
O10   O     O_R   0.358650 0.275880 0.051740 -0.608261
O11   O     O_R   0.358650 0.724120 0.051740 -0.607387
O12   O     O_R   0.321670 0.230070 0.143360 -0.616357
O13   O     O_R   0.641350 0.275880 0.948260 -0.607390
O14   O     O_R   0.141350 0.224120 0.948260 -0.608267
O15   O     O_R   0.858650 0.775880 0.051740 -0.608271
O16   O     O_R   0.858650 0.224120 0.051740 -0.607401
O17   O     O_R   0.141350 0.775880 0.948260 -0.607406
O18   O     O_R   0.693050 0.775840 0.051700 -0.611999
O19   O     O_R   0.306950 0.224160 0.948300 -0.612000
O20   O     O_R   0.306950 0.775840 0.948300 -0.611796
O21   O     O_R   0.693050 0.224160 0.051700 -0.611802
O22   O     O_R   0.193050 0.275840 0.051700 -0.612000
O23   O     O_R   0.321670 0.769930 0.143360 -0.618633
O24   O     O_R   0.806950 0.724160 0.948300 -0.611997
O25   O     O_R   0.806950 0.275840 0.948300 -0.611833
O26   O     O_R   0.193050 0.724160 0.051700 -0.611835
O27   O     O_R   0.999060 0.545790 0.591600 -0.615383
O28   O     O_R   0.000940 0.454210 0.408400 -0.615388
O29   O     O_R   0.000940 0.545790 0.408400 -0.616417
O30   O     O_R   0.999060 0.454210 0.591600 -0.616418
O31   O     O_R   0.499060 0.045790 0.591600 -0.615377
O32   O     O_R   0.500940 0.954210 0.408400 -0.615375
O33   O     O_R   0.500940 0.045790 0.408400 -0.616426
O34   O     O_R   0.678330 0.230070 0.856640 -0.618621
O35   O     O_R   0.499060 0.954210 0.591600 -0.616440
O36   O     O_R   0.092510 0.545780 0.591590 -0.625018
O37   O     O_R   0.907490 0.454220 0.408410 -0.625018
O38   O     O_R   0.907490 0.545780 0.408410 -0.638586
O39   O     O_R   0.092510 0.454220 0.591590 -0.638585
O40   O     O_R   0.592510 0.045780 0.591590 -0.624932
O41   O     O_R   0.407490 0.954220 0.408410 -0.624888
O42   O     O_R   0.407490 0.045780 0.408410 -0.638594
O43   O     O_R   0.592510 0.954220 0.591590 -0.638588
O44   O     O_R   0.178330 0.269930 0.856640 -0.616359
O45   O     O_R   0.821670 0.730070 0.143360 -0.616360
O46   O     O_R   0.821670 0.269930 0.143360 -0.618584
O47   O     O_R   0.178330 0.730070 0.856640 -0.618583
O48   O     O_R   0.730030 0.821640 0.960080 -0.614859
Zn1   Zn    Zn3+2 0.715450 0.715450 0.930910 0.994583
Zn2   Zn    Zn3+2 0.062420 0.500000 0.500010 0.965655
Zn3   Zn    Zn3+2 0.437580 1.000000 0.499990 0.965734
Zn4   Zn    Zn3+2 0.562420 0.000000 0.500010 0.965730
Zn5   Zn    Zn3+2 0.284550 0.284550 0.069090 0.994587
Zn6   Zn    Zn3+2 0.284550 0.715450 0.069090 0.996595
Zn7   Zn    Zn3+2 0.715450 0.284550 0.930910 0.996597
Zn8   Zn    Zn3+2 0.215450 0.215450 0.930910 0.994592
Zn9   Zn    Zn3+2 0.784550 0.784550 0.069090 0.994585
Zn10  Zn    Zn3+2 0.784550 0.215450 0.069090 0.996662
Zn11  Zn    Zn3+2 0.215450 0.784550 0.930910 0.996672
Zn12  Zn    Zn3+2 0.937580 0.500000 0.499990 0.965659

loop_
_geom_bond_atom_site_label_1
_geom_bond_atom_site_label_2
_ccdc_geom_bond_type
O40   Zn4   S    
O1    Zn1   S    
C21   C26   A    
O42   Zn3   S    
C70   O31   A    
C7    H17   S    
C2    C18   A    
C104  H4    S    
C13   C103  A    
C7    C117  A    
C13   C32   A    
O21   Zn10  S    
C3    H13   S    
C3    C11   A    
O16   Zn10  S    
C74   C83   S    
C76   O11   A    
O5    Zn5   S    
C17   C110  A    
O15   Zn9   S    
C79   C87   S    
C8    C118  A    
C71   O32   A    
O12   Zn5   S    
O43   Zn4   S    
C73   O35   A    
C56   H35   S    
C99   O47   A    
C77   O6    A    
C88   O7    A    
O8    Zn6   S    
O27   Zn12  S    
C30   C110  A    
C50   C59   A    
C4    C114  A    
C108  H8    S    
C52   C61   A    
C44   O23   A    
C4    H14   S    
C43   C52   A    
C5    H15   S    
O13   Zn7   S    
O19   Zn8   S    
C2    C102  A    
C49   H28   S    
C70   O40   A    
C40   C49   A    
O17   Zn11  S    
C31   C40   A    
O39   Zn2   S    
O37   Zn12  S    
C111  C119  A    
C53   C62   A    
C80   O15   A    
C57   C73   S    
C80   C89   S    
C47   C56   A    
C75   O10   A    
C89   C97   T    
C107  H7    S    
C37   C88   S    
C6    C15   A    
O4    Zn10  S    
C18   C58   A    
C72   O42   A    
C99   O8    A    
C20   C24   A    
O30   Zn12  S    
C71   O41   A    
C79   O22   A    
C34   C42   A    
C29   C38   A    
C32   C41   A    
C56   C64   A    
C66   O5    A    
C91   C100  T    
C20   C60   A    
C118  H9    S    
C35   C43   A    
C21   C61   A    
C76   O20   A    
C42   C51   A    
O26   Zn6   S    
C43   H36   S    
O20   Zn11  S    
C52   H31   S    
C23   C63   A    
C45   C53   A    
C34   C55   S    
C93   C95   S    
C5    C115  A    
C111  F2    S    
C80   O24   A    
C102  C111  A    
C78   O21   A    
O24   Zn1   S    
C72   O33   A    
O46   Zn10  S    
C33   O2    A    
C108  C117  A    
C26   C105  A    
C65   O36   A    
C11   H21   S    
C109  C118  A    
C50   H29   S    
C25   C29   A    
C63   C67   S    
C11   C20   A    
C69   O39   A    
C15   H25   S    
C31   C33   S    
C13   C19   A    
C82   O17   A    
C77   O45   A    
O41   Zn3   S    
C12   H22   S    
C105  C114  A    
C48   C57   A    
O31   Zn3   S    
C14   H24   S    
C112  F3    S    
C3    C113  A    
O22   Zn5   S    
C112  C120  A    
C114  F5    S    
O35   Zn3   S    
O11   Zn6   S    
C27   C106  A    
C19   C59   A    
C101  C110  A    
C55   O34   A    
C120  H11   S    
C12   C21   A    
C116  F7    S    
C24   C34   A    
C82   C91   S    
C96   C98   S    
C2    C31   A    
C24   C104  A    
C25   C64   A    
C101  H40   S    
C83   C92   T    
C22   C62   A    
C47   H39   S    
C85   C94   T    
C9    C18   A    
C106  H6    S    
C60   C70   S    
C10   C19   A    
C6    H16   S    
C87   C96   T    
C46   C54   A    
C1    O48   A    
C92   C94   S    
C32   C44   S    
C36   C45   A    
C29   C108  A    
O6    Zn1   S    
C23   C28   A    
C115  F6    S    
O23   Zn6   S    
C6    C116  A    
C5    C14   A    
C88   O46   A    
O2    Zn8   S    
C81   C90   S    
C7    C16   A    
C48   H27   S    
O3    Zn11  S    
O10   Zn5   S    
C22   C27   A    
C58   C72   S    
C68   O38   A    
C69   O30   A    
C9    C119  A    
C4    C12   A    
C66   O44   A    
O29   Zn2   S    
C41   C50   A    
C1    O1    A    
C97   C100  S    
C105  H5    S    
C55   O4    A    
O44   Zn8   S    
C61   C69   S    
C16   C25   A    
C53   H32   S    
C46   H38   S    
C119  H10   S    
O34   Zn7   S    
C73   O43   A    
C75   O19   A    
C102  H2    S    
O33   Zn4   S    
O9    Zn1   S    
C38   C99   S    
C67   O37   A    
O28   Zn2   S    
C42   H34   S    
C41   H23   S    
C62   C68   S    
C27   C36   A    
C39   H1    S    
C51   H30   S    
O14   Zn8   S    
O48   Zn9   S    
C35   C66   S    
C79   O14   A    
C38   C47   A    
C106  C115  A    
C36   C77   S    
C78   O13   A    
C64   C65   S    
C14   C22   A    
C103  H3    S    
C44   O3    A    
C8    H18   S    
C8    C17   A    
C16   H26   S    
C109  F1    S    
C74   O9    A    
C45   H37   S    
C28   C37   A    
O32   Zn4   S    
C40   H12   S    
C15   C23   A    
C1    C30   S    
C9    H19   S    
C30   C39   A    
O47   Zn11  S    
C84   C93   T    
C54   H33   S    
C75   C84   S    
C117  F8    S    
C107  C116  A    
C82   O26   A    
C113  F4    S    
O45   Zn9   S    
C86   C95   T    
C49   C58   A    
O38   Zn12  S    
C81   O25   A    
C104  C113  A    
C26   C35   A    
O25   Zn7   S    
C33   O12   A    
O36   Zn2   S    
C78   C86   S    
C54   C63   A    
C59   C71   S    
C68   O29   A    
O7    Zn7   S    
C103  C112  A    
C51   C60   A    
C28   C107  A    
C81   O16   A    
C74   O18   A    
C37   C46   A    
C17   C57   A    
C101  C109  A    
C76   C85   S    
C90   C98   T    
C10   C120  A    
C67   O28   A    
C10   H20   S    
C39   C48   A    
C65   O27   A    
O18   Zn9   S    
