data_mof_unit_63303.cif
_audit_creation_date              2012-12-10T20:16:03-0500
_audit_creation_method            fapswitch 2.2
_symmetry_space_group_name_H-M    P1
_symmetry_Int_Tables_number       1
_space_group_crystal_system       triclinic
_cell_length_a                    16.781227
_cell_length_b                    18.455196
_cell_length_c                    19.28904
_cell_angle_alpha                 89.21157
_cell_angle_beta                  90.898699
_cell_angle_gamma                 84.386826
_cell_volume                      5943.75334664

loop_
_atom_site_label
_atom_site_type_symbol
_atom_type_description
_atom_site_fract_x
_atom_site_fract_y
_atom_site_fract_z
_atom_type_partial_charge
Br1   Br    Br    0.678722 0.440754 0.923960 -0.392955
Br2   Br    Br    0.336272 0.552415 0.075972 -0.378554
Br3   Br    Br    0.621604 0.311111 0.605550 -0.451569
Br4   Br    Br    0.378533 0.688873 0.394338 -0.437806
Br5   Br    Br    0.419489 0.090206 0.633593 -0.375971
Br6   Br    Br    0.580577 0.909797 0.366448 -0.364001
Br7   Br    Br    0.944844 0.548683 0.603172 -0.424315
Br8   Br    Br    0.055021 0.451443 0.396199 -0.428362
C1    C     C_R   0.500529 0.499527 0.634457 0.917836
C2    C     C_R   0.502613 0.432857 0.818427 -0.132045
C3    C     C_R   0.498080 0.436020 0.254387 -0.175331
C4    C     C_R   0.499112 0.433354 0.746683 -0.143269
C5    C     C_R   0.501391 0.501152 0.290237 -0.146661
C6    C     C_R   0.503486 0.498667 0.709792 -0.148102
C7    C     C_R   0.576876 0.474148 0.039000 -0.237571
C8    C     C_R   0.438033 0.518189 0.961171 -0.234502
C9    C     C_R   0.579310 0.472225 0.967202 0.316345
C10   C     C_R   0.435590 0.520138 0.032904 0.315055
C11   C     C_R   0.509631 0.494925 0.928539 -0.077129
C12   C     C_R   0.500057 0.500447 0.365546 0.917423
C13   C     C_R   0.505635 0.498710 0.071587 -0.076860
C14   C     C_R   0.448403 0.280475 0.456208 -0.182206
C15   C     C_R   0.551505 0.719523 0.543879 -0.175995
C16   C     C_R   0.653174 0.489579 0.497415 0.919930
C17   C     C_R   0.346821 0.510421 0.502560 0.920379
C18   C     C_R   0.445115 0.204140 0.454330 0.327765
C19   C     C_R   0.554788 0.795857 0.545775 0.331344
C20   C     C_R   0.496161 0.158627 0.498488 0.018222
C21   C     C_R   0.503846 0.841369 0.501533 0.015645
C22   C     C_R   0.550479 0.189952 0.542363 0.308238
C23   C     C_R   0.507031 0.566672 0.253813 -0.131298
C24   C     C_R   0.449623 0.810045 0.457559 0.310919
C25   C     C_R   0.550857 0.267032 0.542991 0.261090
C26   C     C_R   0.449230 0.732965 0.456936 0.263574
C27   C     C_R   0.467087 0.039503 0.556069 0.326007
C28   C     C_R   0.532943 0.960495 0.443961 0.326158
C29   C     C_R   0.472324 0.962955 0.557110 -0.196628
C30   C     C_R   0.527700 0.037043 0.442919 -0.200674
C31   C     C_R   0.505082 0.922527 0.501410 0.116298
C32   C     C_R   0.494936 0.077471 0.498616 0.118480
C33   C     C_R   0.738438 0.482963 0.484490 -0.146967
C34   C     C_R   0.512016 0.563385 0.745203 -0.164515
C35   C     C_R   0.261517 0.517044 0.515317 -0.146753
C36   C     C_R   0.771541 0.540754 0.451481 -0.172907
C37   C     C_R   0.228293 0.459203 0.548126 -0.173908
C38   C     C_R   0.853006 0.536769 0.440750 -0.132255
C39   C     C_R   0.146793 0.463194 0.558672 -0.133067
C40   C     C_R   0.902139 0.475565 0.463913 0.030069
C41   C     C_R   0.097744 0.524456 0.535521 0.030624
C42   C     C_R   0.868957 0.414678 0.493043 0.508432
C43   C     C_R   0.131029 0.585373 0.506566 0.509405
C44   C     C_R   0.786595 0.419055 0.502645 -0.135104
C45   C     C_R   0.509540 0.567776 0.181869 0.513650
C46   C     C_R   0.213426 0.580989 0.497153 -0.134032
C47   C     C_2   0.986695 0.483877 0.471245 0.129637
C48   C     C_2   0.013174 0.516235 0.528131 0.129590
C49   C     C_R   0.516167 0.563630 0.817079 0.502274
C50   C     C_R   0.505474 0.501581 0.146426 0.017510
C51   C     C_R   0.510858 0.497410 0.853667 0.019316
C52   C     C_R   0.500154 0.436339 0.182779 -0.151947
H1    H     H_    0.734680 0.589722 0.435259 0.183234
H2    H     H_    0.760821 0.373581 0.526662 0.211543
H3    H     H_    0.121153 0.416397 0.580425 0.185227
H4    H     H_    0.878566 0.583545 0.418868 0.186119
H5    H     H_    0.510175 0.617256 0.281121 0.210345
H6    H     H_    0.516064 0.614135 0.717140 0.188299
H7    H     H_    0.497084 0.385719 0.155461 0.178999
H8    H     H_    0.498146 0.382286 0.846690 0.184916
H9    H     H_    0.493735 0.384827 0.281550 0.179253
H10   H     H_    0.492457 0.382847 0.720244 0.202853
H11   H     H_    0.361153 0.212516 0.383387 0.351742
H12   H     H_    0.265089 0.410194 0.564339 0.182002
H13   H     H_    0.638577 0.787480 0.616872 0.355515
H14   H     H_    0.642232 0.170151 0.606441 0.389798
H15   H     H_    0.358190 0.829822 0.393114 0.391116
H16   H     H_    0.970649 0.354022 0.501715 0.357636
H17   H     H_    0.029369 0.646061 0.497733 0.357971
H18   H     H_    0.521567 0.627194 0.098564 0.351993
H19   H     H_    0.533331 0.621579 0.899274 0.354003
H20   H     H_    0.630537 0.457481 0.069472 0.197626
H21   H     H_    0.384547 0.535499 0.930696 0.199992
H22   H     H_    0.409293 0.316124 0.422742 0.168898
H23   H     H_    0.590539 0.683873 0.577406 0.169938
H24   H     H_    0.449495 0.934862 0.601127 0.197557
H25   H     H_    0.550531 0.065138 0.398903 0.194578
H26   H     H_    0.239283 0.626494 0.473277 0.211171
N1    N     N_R   0.499990 0.310560 0.500020 -0.136589
N2    N     N_R   0.500010 0.689440 0.499980 -0.138058
O1    O     O_R   0.500000 0.439160 0.601820 -0.581220
O2    O     O_3   0.607350 0.826749 0.589585 -0.704774
O3    O     O_3   0.601697 0.143290 0.583199 -0.698273
O4    O     O_3   0.398498 0.856715 0.416648 -0.696092
O5    O     O_3   0.914494 0.352323 0.516042 -0.714164
O6    O     O_3   0.085581 0.647781 0.483576 -0.712965
O7    O     O_3   0.516089 0.633968 0.149086 -0.708346
O8    O     O_3   0.525223 0.629175 0.848706 -0.726047
O9    O     O_R   0.500000 0.560840 0.398180 -0.585563
O10   O     O_R   0.500030 0.560790 0.601820 -0.629517
O11   O     O_R   0.499970 0.439210 0.398180 -0.626371
O12   O     O_R   0.615780 0.432000 0.500010 -0.582865
O13   O     O_R   0.384220 0.568000 0.499990 -0.582639
O14   O     O_R   0.615820 0.553620 0.500010 -0.620370
O15   O     O_R   0.384180 0.446380 0.499990 -0.620427
O16   O     O_3   0.392454 0.173247 0.410616 -0.708796
Zn1   Zn    Zn3+2 0.499980 0.418790 0.500000 1.005358
Zn2   Zn    Zn3+2 0.500020 0.581210 0.500000 1.007434

loop_
_geom_bond_atom_site_label_1
_geom_bond_atom_site_label_2
_ccdc_geom_bond_type
C40   C47   S    
H11   O16   S    
C1    O10   A    
C45   O7    S    
C10   C13   A    
C47   C48   D    
C17   C35   S    
C39   C41   A    
O12   Zn1   S    
C15   H23   S    
C14   H22   S    
C27   C29   A    
H13   O2    S    
C21   C24   A    
C39   H3    S    
C49   C51   A    
Br2   C10   S    
C20   C32   S    
C50   C52   A    
H17   O6    S    
C19   C21   A    
C34   C49   A    
C19   O2    S    
C23   H5    S    
C18   O16   S    
C12   O9    A    
C52   H7    S    
C41   C43   A    
C49   O8    S    
C42   C44   A    
C29   H24   S    
O14   Zn2   S    
C15   C19   A    
C33   C44   A    
C22   C25   A    
C6    C34   A    
C40   C42   A    
C37   H12   S    
C16   C33   S    
Br7   C48   S    
Br8   C47   S    
C36   C38   A    
C38   C40   A    
C37   C39   A    
O11   Zn1   S    
Br4   C26   S    
C30   H25   S    
C1    O1    A    
C46   H26   S    
C17   O15   A    
C11   C51   S    
C38   H4    S    
C24   C26   A    
H14   O3    S    
C1    C6    S    
H16   O5    S    
N2    Zn2   S    
C35   C46   A    
C7    H20   S    
N1    Zn1   S    
C7    C13   A    
H18   O7    S    
C21   C31   S    
O15   Zn1   S    
C26   N2    A    
C14   N1    A    
C23   C45   A    
C35   C37   A    
C2    C4    A    
H15   O4    S    
O9    Zn2   S    
C4    C6    A    
C15   N2    A    
C33   C36   A    
C3    C52   A    
O13   Zn2   S    
C7    C9    A    
C4    H10   S    
C5    C12   S    
C16   O12   A    
C18   C20   A    
C5    C23   A    
C28   C31   A    
C22   O3    S    
C45   C50   A    
C3    H9    S    
C42   O5    S    
C2    H8    S    
C36   H1    S    
C41   C48   S    
Br1   C9    S    
O10   Zn2   S    
C43   C46   A    
C20   C22   A    
C27   C32   A    
C25   N1    A    
H19   O8    S    
C29   C31   A    
C44   H2    S    
C30   C32   A    
C3    C5    A    
C17   O13   A    
C24   O4    S    
C12   O11   A    
C8    C11   A    
Br5   C27   S    
C28   C30   A    
C8    H21   S    
C9    C11   A    
Br6   C28   S    
C2    C51   A    
C16   O14   A    
C43   O6    S    
C13   C50   S    
C8    C10   A    
C14   C18   A    
O1    Zn1   S    
C34   H6    S    
Br3   C25   S    
