data_mof_unit_11238.cif
_audit_creation_date              2013-03-05T16:11:20-0500
_audit_creation_method            fapswitch 2.2
_symmetry_space_group_name_H-M    P1
_symmetry_Int_Tables_number       1
_space_group_crystal_system       triclinic
_cell_length_a                    10.64852
_cell_length_b                    9.975693
_cell_length_c                    10.768712
_cell_angle_alpha                 89.580471
_cell_angle_beta                  94.217645
_cell_angle_gamma                 90.570671
_cell_volume                      1140.74177436

loop_
_atom_site_label
_atom_site_type_symbol
_atom_site_description
_atom_site_fract_x
_atom_site_fract_y
_atom_site_fract_z
_atom_type_partial_charge
O1    O     O_R   0.316750 0.614620 0.499990 -0.580787
O2    O     O_R   0.316750 0.385380 0.499990 -0.613658
C1    C     C_R   0.259278 0.499736 0.499147 0.916636
O3    O     O_R   0.499970 0.614670 0.314790 -0.562624
O4    O     O_R   0.499970 0.385330 0.314790 -0.554521
C2    C     C_R   0.495324 0.499297 0.257713 0.939513
Zn1   Zn    Zn3+2 0.499980 0.653120 0.500000 1.128232
Zn2   Zn    Zn3+2 0.499980 0.346880 0.500000 1.113323
O5    O     O_R   0.683220 0.614710 0.500010 -0.559962
O6    O     O_R   0.683220 0.385290 0.500010 -0.562618
O7    O     O_R   0.500010 0.614660 0.685200 -0.551378
O8    O     O_R   0.500010 0.385340 0.685200 -0.576679
C3    C     C_R   0.736729 0.500990 0.481267 0.918106
C4    C     C_R   0.494179 0.499077 0.741307 0.887578
C5    C     C_3   0.400467 0.606043 0.064191 0.205448
C6    C     C_3   0.439614 0.356421 0.067463 0.187110
H1    H     H_    0.306446 0.588938 0.100935 0.155501
H2    H     H_    0.336883 0.353560 0.080826 0.165456
C7    C     C_3   0.384227 0.590348 0.920861 0.009707
C8    C     C_3   0.454051 0.351483 0.925828 0.010382
H3    H     H_    0.293695 0.534334 0.902009 0.073783
H4    H     H_    0.358557 0.327940 0.881012 0.116589
H5    H     H_    0.673601 0.606090 0.130581 0.202058
H6    H     H_    0.688488 0.433416 0.109223 0.242799
C9    C     C_3   0.627624 0.519430 0.080552 -0.442531
C10   C     C_3   0.492060 0.495420 0.120967 -0.312764
C11   C     C_3   0.492173 0.496413 0.877631 -0.269539
C12   C     C_3   0.625692 0.540302 0.937975 0.777851
C13   C     C_R   0.058885 0.381321 0.459851 -0.182236
C14   C     C_R   0.062285 0.623349 0.476982 -0.135579
H7    H     H_    0.108492 0.288290 0.456268 0.252007
H8    H     H_    0.113921 0.717129 0.486611 0.246524
C15   C     C_R   0.929933 0.382248 0.433968 0.293707
C16   C     C_R   0.933613 0.626623 0.451348 0.282880
C17   C     C_R   0.866288 0.503839 0.448733 -0.285214
C18   C     C_R   0.124357 0.500709 0.484649 -0.171122
C19   C     C_R   0.592732 0.071546 0.566495 0.256414
C20   C     C_R   0.583600 0.929337 0.577684 0.257466
N1    N     N_R   0.499970 0.857200 0.499970 -0.212058
N2    N     N_R   0.499970 0.142800 0.499970 -0.209491
C21   C     C_R   0.418357 0.929759 0.420521 0.219924
C22   C     C_R   0.408156 0.070774 0.433431 0.250500
O9    O     O_3   0.437456 0.736522 0.100110 -0.585385
H9    H     H_    0.525100 0.753820 0.080148 0.409737
O10   O     O_3   0.488588 0.239973 0.127704 -0.584612
H10   H     H_    0.580016 0.252203 0.146936 0.406968
N3    N     N_R   0.352539 0.870488 0.312954 0.279698
O11   O     O_R   0.275322 0.770714 0.323651 -0.347025
O12   O     O_R   0.343962 0.938845 0.209215 -0.214254
N4    N     N_R   0.296500 0.133995 0.379893 0.237412
O13   O     O_R   0.303737 0.229198 0.298042 -0.321943
O14   O     O_R   0.188437 0.074035 0.389134 -0.307919
N5    N     N_R   0.364544 0.718618 0.853516 0.299446
O15   O     O_R   0.443938 0.818029 0.866750 -0.200335
O16   O     O_R   0.261678 0.735640 0.782326 -0.351181
N6    N     N_R   0.535037 0.240298 0.892328 0.329296
O17   O     O_R   0.649185 0.226627 0.942438 -0.231303
O18   O     O_R   0.484058 0.140819 0.828645 -0.283964
O19   O     O_3   0.648589 0.676384 0.912142 -0.696061
H11   H     H_    0.737042 0.697187 0.942223 0.382474
O20   O     O_3   0.722359 0.463613 0.891558 -0.687428
H12   H     H_    0.738005 0.498123 0.807290 0.361122
N7    N     N_R   0.867095 0.263777 0.383737 0.251605
O21   O     O_R   0.921341 0.147699 0.395865 -0.222715
O22   O     O_R   0.771432 0.275595 0.302303 -0.396377
N8    N     N_R   0.874678 0.753006 0.420549 0.260070
O23   O     O_R   0.923834 0.863711 0.466100 -0.233685
O24   O     O_R   0.788446 0.760359 0.328648 -0.357594
N9    N     N_R   0.703799 0.137142 0.621554 0.260992
O25   O     O_R   0.695648 0.236997 0.696546 -0.276204
O26   O     O_R   0.813206 0.081995 0.614699 -0.253082
N10   N     N_R   0.657588 0.865516 0.677635 0.274767
O27   O     O_R   0.751558 0.790758 0.653664 -0.309400
O28   O     O_R   0.659953 0.918854 0.787651 -0.219851

loop_
_geom_bond_atom_site_label_1
_geom_bond_atom_site_label_2
_geom_bond_distance
_ccdc_geom_bond_type
C6    O10   1.411915 S    
O1    C1    1.293598 A    
O4    Zn2   2.028253 S    
N8    O24   1.301750 A    
O9    H9    0.986280 S    
N7    O22   1.300030 A    
C5    H1    1.114426 S    
C19   C20   1.425821 A    
C8    C11   1.591458 S    
C19   N9    1.437231 S    
C4    C11   1.469801 S    
C14   H8    1.082166 S    
N10   O28   1.300736 A    
C7    C11   1.588278 S    
C21   C22   1.420599 A    
N4    O14   1.301558 A    
N3    O11   1.294588 A    
C14   C18   1.395373 A    
Zn2   O8    2.033667 S    
C12   O20   1.411269 S    
C7    N5    1.475328 S    
H5    C9    1.112153 S    
O2    C1    1.299595 A    
C21   N3    1.436998 S    
C5    O9    1.404891 S    
O19   H11   0.993670 S    
C13   H7    1.074750 S    
N3    O12   1.302463 A    
N5    O15   1.298524 A    
N6    O17   1.301150 A    
C9    C12   1.546578 S    
C5    C7    1.549350 S    
C13   C18   1.391598 A    
C16   N8    1.439578 S    
C2    C10   1.471215 S    
C1    C18   1.433822 S    
C22   N4    1.432690 S    
O3    Zn1   2.033769 S    
O1    Zn1   1.984805 S    
O4    C2    1.288096 A    
C6    H2    1.113853 S    
C6    C8    1.545357 S    
C7    H3    1.115772 S    
C8    H4    1.116605 S    
N4    O13   1.296576 A    
C19   N2    1.377176 A    
C20   N10   1.435200 S    
C8    N6    1.474694 S    
N5    O16   1.301789 A    
C6    C10   1.586032 S    
O20   H12   0.993119 S    
O7    C4    1.300867 A    
N9    O25   1.294518 A    
C15   N7    1.441327 S    
O3    C2    1.307526 A    
N9    O26   1.300532 A    
C14   C16   1.378313 A    
N7    O21   1.300617 A    
C13   C15   1.381022 A    
C3    C17   1.448110 S    
N8    O23   1.301098 A    
H6    C9    1.108776 S    
N1    C21   1.380316 A    
C16   C17   1.412472 A    
C12   O19   1.406244 S    
C11   C12   1.578385 S    
Zn1   O5    1.992234 S    
Zn1   N1    2.035838 S    
N2    C22   1.369689 A    
Zn1   O7    2.028151 S    
O5    C3    1.298265 A    
Zn2   N2    2.035841 S    
C15   C17   1.410995 A    
C9    C10   1.553911 S    
O10   H10   0.986899 S    
N6    O18   1.301641 A    
Zn2   O6    1.984744 S    
O2    Zn2   1.992311 S    
O8    C4    1.293524 A    
N10   O27   1.296053 A    
C5    C10   1.570581 S    
O6    C3    1.303064 A    
C20   N1    1.377575 A    
