data_mof_unit_16345.cif
_audit_creation_date              2012-12-10T19:24:00-0500
_audit_creation_method            fapswitch 2.2
_symmetry_space_group_name_H-M    P1
_symmetry_Int_Tables_number       1
_space_group_crystal_system       triclinic
_cell_length_a                    17.723866
_cell_length_b                    16.442676
_cell_length_c                    10.85455
_cell_angle_alpha                 88.827977
_cell_angle_beta                  89.87082
_cell_angle_gamma                 90.278414
_cell_volume                      3162.60957384

loop_
_atom_site_label
_atom_site_type_symbol
_atom_type_description
_atom_site_fract_x
_atom_site_fract_y
_atom_site_fract_z
_atom_type_partial_charge
C1    C     C_R   0.355276 0.499784 0.500759 0.936264
C2    C     C_R   0.644795 0.500060 0.502385 0.796880
C3    C     C_R   0.727805 0.499563 0.506113 -0.108840
C4    C     C_R   0.272414 0.499094 0.499468 -0.067536
C5    C     C_R   0.766675 0.425569 0.518321 -0.170707
C6    C     C_R   0.232938 0.425863 0.482979 -0.071920
C7    C     C_R   0.845244 0.424505 0.516798 -0.206510
C8    C     C_R   0.154391 0.425052 0.481809 -0.213497
C9    C     C_R   0.885725 0.497078 0.500894 0.021145
C10   C     C_R   0.114554 0.497284 0.496860 0.017418
C11   C     C_1   0.966318 0.495201 0.498158 0.042697
C12   C     C_1   0.033931 0.495365 0.497130 0.046531
C13   C     C_R   0.555486 0.829994 0.434294 0.334647
C14   C     C_R   0.445244 0.827862 0.566132 0.350465
C15   C     C_R   0.552819 0.743889 0.433290 -0.017445
C16   C     C_R   0.447451 0.741768 0.566888 -0.015792
C17   C     C_R   0.500482 0.872932 0.500310 -0.075725
C18   C     C_1   0.500583 0.962562 0.500291 0.200600
C19   C     C_1   0.500585 0.037041 0.500241 0.218525
C20   C     C_R   0.501657 0.501134 0.262140 0.907095
C21   C     C_R   0.499006 0.498780 0.738227 0.864068
C22   C     C_R   0.552567 0.170826 0.572097 0.257520
C23   C     C_R   0.448221 0.171866 0.427975 0.308843
C24   C     C_R   0.550702 0.256765 0.570561 0.014644
C25   C     C_R   0.449390 0.257735 0.429888 0.013910
C26   C     C_R   0.500500 0.126904 0.500055 -0.134430
C27   C     C_R   0.617433 0.588764 0.120763 -0.292714
C28   C     C_R   0.616404 0.583914 0.865784 -0.249255
C29   C     C_R   0.670219 0.635554 0.053242 0.289733
C30   C     C_R   0.668514 0.634173 0.923546 0.392438
C31   C     C_R   0.559111 0.542035 0.932402 -0.014758
C32   C     C_R   0.559690 0.544326 0.061756 -0.004579
C33   C     C_R   0.501078 0.504370 0.128371 -0.220155
C34   C     C_R   0.502767 0.495959 0.872413 -0.222961
C35   C     C_R   0.439942 0.468431 0.067061 0.301766
C36   C     C_R   0.446796 0.452683 0.941147 0.267213
C37   C     C_R   0.847954 0.571635 0.490030 0.527341
C38   C     C_R   0.153118 0.571229 0.511447 0.523503
C39   C     C_R   0.768952 0.572516 0.494865 -0.133200
C40   C     C_R   0.232118 0.571584 0.514357 -0.244507
Cu1   Cu    Cu3+1 0.500000 0.580420 0.500000 0.994712
Cu2   Cu    Cu3+1 0.500000 0.419580 0.500000 1.036236
H1    H     H_    0.589929 0.290528 0.626211 0.166358
H2    H     H_    0.409558 0.292148 0.375175 0.216356
H3    H     H_    0.620803 0.589547 0.219962 0.185637
H4    H     H_    0.621552 0.578313 0.767337 0.206256
H5    H     H_    0.739933 0.629977 0.486525 0.206230
H6    H     H_    0.261612 0.628408 0.529142 0.155905
H7    H     H_    0.736436 0.368417 0.528589 0.165727
H8    H     H_    0.262702 0.369185 0.470940 0.194862
H9    H     H_    0.874428 0.366964 0.526300 0.170959
H10   H     H_    0.124686 0.368028 0.469633 0.176412
H11   H     H_    0.593411 0.711161 0.378976 0.164942
H12   H     H_    0.406614 0.707347 0.621034 0.156140
N1    N     N_R   0.500000 0.701220 0.500000 -0.214527
N2    N     N_R   0.500000 0.298780 0.500000 -0.223264
O1    O     O_R   0.391260 0.567930 0.500000 -0.592914
O2    O     O_R   0.608740 0.567930 0.500000 -0.580339
O3    O     O_R   0.391280 0.432120 0.500000 -0.557573
O4    O     O_R   0.608720 0.432120 0.500000 -0.603394
O5    O     O_R   0.500000 0.567920 0.319650 -0.571978
O6    O     O_R   0.500000 0.567920 0.680350 -0.587497
O7    O     O_R   0.500030 0.432100 0.319660 -0.569633
O8    O     O_R   0.499970 0.432100 0.680340 -0.523293
S1    S     S_3+6 0.349936 0.464392 0.141246 0.033846
O9    O     O_2   0.342771 0.386900 0.216086 -0.295279
O10   O     O_2   0.342264 0.535509 0.225035 -0.332194
O11   O     O_3   0.279682 0.469903 0.037500 -0.435921
H13   H     H_    0.232744 0.463631 0.086566 0.380646
S2    S     S_3+6 0.388905 0.376355 0.872351 0.089671
O12   O     O_2   0.336398 0.416328 0.781351 -0.255090
O13   O     O_2   0.437406 0.316628 0.805805 -0.271546
O14   O     O_3   0.337623 0.322444 0.976127 -0.407663
H14   H     H_    0.374374 0.286562 0.018892 0.377604
S3    S     S_3+6 0.620201 0.120025 0.664763 0.047529
O15   O     O_2   0.580028 0.069558 0.761693 -0.189861
O16   O     O_2   0.666467 0.064670 0.586400 -0.296107
O17   O     O_3   0.677562 0.186743 0.734143 -0.486315
H15   H     H_    0.710993 0.208324 0.667768 0.338073
S4    S     S_3+6 0.381070 0.122547 0.334845 0.018611
O18   O     O_2   0.421607 0.070809 0.243539 -0.254595
O19   O     O_2   0.331554 0.069125 0.415133 -0.286067
O20   O     O_3   0.327422 0.191059 0.258823 -0.510915
H16   H     H_    0.293953 0.158387 0.205938 0.395016
S5    S     S_3+6 0.735420 0.696172 0.134764 0.074113
O21   O     O_2   0.736740 0.671457 0.268304 -0.354943
O22   O     O_2   0.813410 0.686866 0.082575 -0.148932
O23   O     O_3   0.709932 0.794376 0.123372 -0.430806
H17   H     H_    0.655932 0.794797 0.147097 0.357933
S6    S     S_3+6 0.729950 0.692515 0.827438 0.028856
O24   O     O_2   0.741346 0.776385 0.876823 -0.192413
O25   O     O_2   0.804716 0.650233 0.820550 -0.281716
O26   O     O_3   0.692859 0.700689 0.685149 -0.595628
H18   H     H_    0.707377 0.755608 0.654115 0.351529
O27   O     O_3   0.887942 0.641886 0.460599 -0.568173
C41   C     C_3   0.893748 0.689682 0.566283 -0.153507
H19   H     H_    0.918536 0.654810 0.645268 0.192195
H20   H     H_    0.838088 0.715277 0.591379 0.187426
H21   H     H_    0.932137 0.741626 0.545239 0.190380
O28   O     O_3   0.113454 0.641915 0.531958 -0.579976
C42   C     C_3   0.113997 0.689660 0.422616 -0.243769
H22   H     H_    0.088922 0.656075 0.344436 0.183815
H23   H     H_    0.172030 0.710941 0.398889 0.155112
H24   H     H_    0.078925 0.744333 0.437224 0.203827
O29   O     O_3   0.608493 0.872278 0.364346 -0.563990
C43   C     C_3   0.679287 0.865319 0.422494 -0.168659
H25   H     H_    0.677262 0.887932 0.518481 0.175478
H26   H     H_    0.720628 0.903552 0.370463 0.231086
H27   H     H_    0.700161 0.801665 0.421806 0.167258
O30   O     O_3   0.392044 0.867868 0.635475 -0.549259
C44   C     C_3   0.321624 0.862433 0.575908 -0.200419
H28   H     H_    0.300122 0.798745 0.576620 0.132934
H29   H     H_    0.324575 0.887307 0.479754 0.182575
H30   H     H_    0.280286 0.899556 0.626759 0.217191

loop_
_geom_bond_atom_site_label_1
_geom_bond_atom_site_label_2
_ccdc_geom_bond_type
O26   H18   S    
C27   C29   A    
O27   C41   S    
Cu1   Cu2   S    
C44   H28   S    
C25   N2    A    
Cu1   O5    S    
C30   S6    S    
S5    O21   D    
C28   H4    S    
C42   H22   S    
C15   H11   S    
C22   C24   A    
Cu1   O2    S    
C1    O3    A    
C2    O4    A    
C43   H25   S    
C35   S1    S    
C41   H21   S    
C37   O27   S    
C40   H6    S    
C18   C19   T    
O14   H14   S    
C23   C26   A    
C20   O5    A    
C19   C26   S    
O30   C44   S    
Cu1   N1    S    
C21   O8    A    
Cu2   N2    S    
C4    C40   A    
O11   H13   S    
S1    O10   D    
C41   H20   S    
S2    O12   D    
C23   S4    S    
C8    H10   S    
C29   S5    S    
C27   H3    S    
C3    C39   A    
C42   H23   S    
C14   C17   A    
C5    H7    S    
Cu1   O6    S    
S4    O20   S    
C25   H2    S    
C36   S2    S    
S5    O22   D    
C13   O29   S    
S4    O19   D    
Cu2   O4    S    
C5    C7    A    
O17   H15   S    
C6    C8    A    
C21   C34   S    
C35   C36   A    
C15   N1    A    
S3    O15   D    
C28   C31   A    
C29   C30   A    
C1    O1    A    
S3    O16   D    
S6    O25   D    
O20   H16   S    
S1    O11   S    
C41   H19   S    
S2    O14   S    
C9    C37   A    
C17   C18   S    
C31   C34   A    
C44   H29   S    
C6    H8    S    
C9    C11   S    
C21   O6    A    
C10   C12   S    
C20   C33   S    
C4    C6    A    
C42   H24   S    
C13   C15   A    
C14   C16   A    
C22   S3    S    
Cu2   O8    S    
S6    O26   S    
C39   H5    S    
S5    O23   S    
C14   O30   S    
C27   C32   A    
C31   C32   A    
S4    O18   D    
C3    C5    A    
Cu2   O3    S    
C11   C12   T    
C2    O2    A    
C24   N2    A    
O29   C43   S    
C13   C17   A    
C10   C38   A    
C1    C4    S    
C32   C33   A    
C20   O7    A    
C28   C30   A    
C2    C3    S    
C16   N1    A    
Cu1   O1    S    
C37   C39   A    
C38   C40   A    
C38   O28   S    
S6    O24   D    
C43   H26   S    
O28   C42   S    
C33   C35   A    
C44   H30   S    
C34   C36   A    
C23   C25   A    
S3    O17   S    
C16   H12   S    
C7    H9    S    
C7    C9    A    
O23   H17   S    
C8    C10   A    
S1    O9    D    
C22   C26   A    
C24   H1    S    
S2    O13   D    
Cu2   O7    S    
C43   H27   S    
