data_mof_unit_36124.cif
_audit_creation_date              2012-12-11T15:07:38-0500
_audit_creation_method            fapswitch 2.2
_symmetry_space_group_name_H-M    P1
_symmetry_Int_Tables_number       1
_space_group_crystal_system       triclinic
_cell_length_a                    21.724254
_cell_length_b                    7.205279
_cell_length_c                    18.55854
_cell_angle_alpha                 90.049176
_cell_angle_beta                  95.889383
_cell_angle_gamma                 90.039261
_cell_volume                      2889.62074684

loop_
_atom_site_label
_atom_site_type_symbol
_atom_type_description
_atom_site_fract_x
_atom_site_fract_y
_atom_site_fract_z
_atom_type_partial_charge
O1    O     O_R   0.449650 0.506500 0.414480 -0.531643
O2    O     O_R   0.550350 0.006500 0.585520 -0.531494
O3    O     O_R   0.432010 0.173150 0.560250 -0.539830
O4    O     O_R   0.567990 0.673150 0.439750 -0.539853
C1    C     C_R   0.416217 0.344762 0.581218 0.685968
C2    C     C_R   0.583773 0.844747 0.418772 0.685846
O5    O     O_R   0.442320 0.176650 0.413480 -0.535063
O6    O     O_R   0.557680 0.676650 0.586520 -0.535099
O7    O     O_R   0.560730 0.008380 0.437700 -0.538645
O8    O     O_R   0.439270 0.508380 0.562300 -0.538821
C3    C     C_R   0.428617 0.344975 0.387501 0.675542
C4    C     C_R   0.571353 0.845220 0.612496 0.675838
O9    O     O_3   0.538840 0.339860 0.508120 -0.372262
O10   O     O_3   0.461160 0.839860 0.491880 -0.372443
V1    V     V_3+5 0.492800 0.064220 0.498490 1.413993
V2    V     V_3+5 0.507200 0.564220 0.501510 1.413622
C5    C     C_R   0.868199 0.001098 0.690944 -0.248182
C6    C     C_R   0.132656 0.513047 0.308414 -0.248572
H1    H     H_    0.787449 0.990651 0.574788 0.122730
H2    H     H_    0.213648 0.507536 0.424378 0.122629
H3    H     H_    0.886589 0.041749 0.641139 0.143768
H4    H     H_    0.114718 0.559433 0.357785 0.144535
C7    C     C_R   0.885797 0.942575 0.819837 -0.230130
C8    C     C_R   0.114184 0.444033 0.180294 -0.231148
C9    C     C_R   0.584399 0.829182 0.745488 -0.154342
C10   C     C_R   0.415092 0.320836 0.254654 -0.154031
C11   C     C_R   0.619336 0.842028 0.812313 -0.149903
C12   C     C_R   0.379987 0.329888 0.187840 -0.149766
C13   C     C_R   0.682981 0.872161 0.816653 -0.146202
C14   C     C_R   0.316505 0.362780 0.183445 -0.146193
C15   C     C_R   0.714282 0.884489 0.753609 0.098607
C16   C     C_R   0.285537 0.382129 0.246490 0.098741
C17   C     C_R   0.677158 0.883533 0.685000 0.065272
C18   C     C_R   0.322909 0.385232 0.314940 0.065372
C19   C     C_R   0.780426 0.908420 0.756167 -0.026274
C20   C     C_R   0.219535 0.409155 0.243955 -0.026763
C21   C     C_R   0.805453 0.956029 0.690731 0.018636
C22   C     C_R   0.195055 0.463960 0.308923 0.018279
C23   C     C_R   0.767960 0.958338 0.624793 -0.144160
C24   C     C_R   0.232769 0.469821 0.374675 -0.144139
C25   C     C_R   0.705327 0.917575 0.621616 -0.188483
C26   C     C_R   0.295157 0.425957 0.378058 -0.189174
C27   C     C_R   0.823319 0.886478 0.820110 0.309154
C28   C     C_R   0.176279 0.383869 0.180479 0.309107
C29   C     C_R   0.908030 0.997406 0.754858 0.395238
C30   C     C_R   0.092626 0.506553 0.244713 0.396496
C31   C     C_R   0.612139 0.852759 0.681476 -0.081324
C32   C     C_R   0.387749 0.351339 0.318536 -0.081799
H5    H     H_    0.534970 0.805826 0.743705 0.103313
H6    H     H_    0.464357 0.294673 0.256477 0.103539
H7    H     H_    0.705715 0.893443 0.870234 0.181423
H8    H     H_    0.293651 0.380455 0.129726 0.181203
H9    H     H_    0.596693 0.831199 0.861462 0.125906
H10   H     H_    0.402368 0.313605 0.138712 0.125891
H11   H     H_    0.678686 0.918831 0.568997 0.106975
H12   H     H_    0.321976 0.430257 0.430544 0.108145
C33   C     C_R   0.637837 0.019669 0.326404 -0.210253
C34   C     C_R   0.362117 0.519892 0.673545 -0.210380
C35   C     C_R   0.632667 0.857710 0.368180 -0.079245
C36   C     C_R   0.367295 0.357778 0.631767 -0.079368
C37   C     C_R   0.674437 0.710975 0.361272 -0.226497
C38   C     C_R   0.325485 0.210977 0.638602 -0.226081
C39   C     C_R   0.721139 0.726263 0.314351 0.090548
C40   C     C_R   0.278739 0.226335 0.685459 0.090531
C41   C     C_R   0.725814 0.889166 0.272927 0.056406
C42   C     C_R   0.274069 0.389362 0.726909 0.056344
C43   C     C_R   0.683753 0.035856 0.278752 0.085548
C44   C     C_R   0.316162 0.536144 0.721144 0.085664
C45   C     C_R   0.763368 0.581447 0.308086 -0.184090
C46   C     C_R   0.236452 0.081482 0.691623 -0.184774
C47   C     C_R   0.809267 0.596709 0.260731 -0.193403
C48   C     C_R   0.190503 0.096832 0.738905 -0.190785
C49   C     C_R   0.814427 0.758156 0.219425 0.081857
C50   C     C_R   0.185378 0.258321 0.780287 0.081993
C51   C     C_R   0.772638 0.905406 0.225584 0.055284
C52   C     C_R   0.227221 0.405624 0.774220 0.054795
C53   C     C_R   0.777441 0.068519 0.184319 0.090538
C54   C     C_R   0.222444 0.568816 0.815538 0.090516
C55   C     C_R   0.734643 0.212327 0.189865 -0.184312
C56   C     C_R   0.265248 0.712777 0.810017 -0.184386
C57   C     C_R   0.688291 0.196273 0.236678 -0.196965
C58   C     C_R   0.311614 0.696719 0.763222 -0.196859
C59   C     C_R   0.860566 0.774607 0.172083 -0.193476
C60   C     C_R   0.139227 0.274745 0.827621 -0.192794
C61   C     C_R   0.866422 0.937651 0.131180 -0.075500
C62   C     C_R   0.133472 0.437744 0.868676 -0.076621
C63   C     C_R   0.824650 0.084524 0.138038 -0.224860
C64   C     C_R   0.175265 0.584730 0.861860 -0.225148
H13   H     H_    0.605691 0.133363 0.330354 0.127898
H14   H     H_    0.394287 0.633657 0.669638 0.127949
H15   H     H_    0.671188 0.585825 0.393045 0.131284
H16   H     H_    0.328732 0.085728 0.606814 0.131196
H17   H     H_    0.760625 0.455459 0.339437 0.136111
H18   H     H_    0.239181 0.955412 0.660240 0.135989
H19   H     H_    0.840374 0.481102 0.256054 0.122276
H20   H     H_    0.159334 0.981260 0.743473 0.122542
H21   H     H_    0.892400 0.660360 0.167710 0.144930
H22   H     H_    0.107313 0.160511 0.831867 0.146247
H23   H     H_    0.828234 0.210119 0.106617 0.129012
H24   H     H_    0.171726 0.710343 0.893357 0.129406
H25   H     H_    0.737152 0.337830 0.158177 0.137215
H26   H     H_    0.262740 0.838384 0.841720 0.137240
H27   H     H_    0.656164 0.310093 0.240276 0.131671
H28   H     H_    0.343753 0.810635 0.759655 0.131576
O11   O     O_R   0.060820 0.290050 0.937800 -0.531807
O12   O     O_R   0.939180 0.790050 0.062200 -0.531970
O13   O     O_R   0.057690 0.616620 0.086540 -0.535378
O14   O     O_R   0.942310 0.116620 0.913460 -0.536052
C65   C     C_R   0.071780 0.448839 0.112385 0.809861
C66   C     C_R   0.928196 0.948576 0.887681 0.812482
O15   O     O_R   0.068010 0.619890 0.939770 -0.548851
O16   O     O_R   0.931990 0.119890 0.060230 -0.549233
O17   O     O_R   0.949640 0.787940 0.914460 -0.541273
O18   O     O_R   0.050360 0.287940 0.085540 -0.540011
C67   C     C_R   0.084174 0.450921 0.918759 0.717258
C68   C     C_R   0.915792 0.950910 0.081193 0.718919
O19   O     O_3   0.961210 0.453080 0.991940 -0.384083
O20   O     O_3   0.038790 0.953080 0.008060 -0.383030
V3    V     V_3+5 0.007200 0.728820 0.001500 1.430674
V4    V     V_3+5 0.992800 0.228820 0.998500 1.430598
O21   O     O_3   0.968999 0.051312 0.753892 -0.552390
C69   C     C_3   0.003026 0.897371 0.732927 -0.257912
H29   H     H_    0.986352 0.850187 0.677195 0.142208
H30   H     H_    0.001708 0.780745 0.772076 0.133489
H31   H     H_    0.051950 0.939662 0.732510 0.153345
O22   O     O_3   0.032232 0.566023 0.245396 -0.551361
C70   C     C_3   0.996592 0.415936 0.266722 -0.261324
H32   H     H_    0.014518 0.361917 0.321083 0.141179
H33   H     H_    0.994190 0.302446 0.225774 0.133729
H34   H     H_    0.948869 0.465566 0.270736 0.155121
O23   O     O_3   0.806218 0.807516 0.882885 -0.571130
C71   C     C_3   0.807606 0.612653 0.875398 -0.230368
H35   H     H_    0.854421 0.562603 0.865275 0.151693
H36   H     H_    0.772587 0.563841 0.831506 0.139414
H37   H     H_    0.796128 0.549080 0.926770 0.158028
O24   O     O_3   0.192692 0.298304 0.118611 -0.570754
C72   C     C_3   0.190203 0.104333 0.128514 -0.225322
H38   H     H_    0.143164 0.058002 0.139494 0.151595
H39   H     H_    0.225107 0.057504 0.172824 0.138399
H40   H     H_    0.201080 0.035435 0.077873 0.157456

loop_
_geom_bond_atom_site_label_1
_geom_bond_atom_site_label_2
_ccdc_geom_bond_type
C28   O24   S    
C42   C44   A    
C39   C41   A    
O22   C70   S    
C7    C29   A    
O12   V3    S    
C11   C13   A    
C49   C51   A    
O14   V4    S    
O1    C3    A    
O2    C4    A    
C2    O7    A    
C23   C25   A    
O5    C3    A    
C72   H39   S    
C33   H13   S    
C16   C20   A    
O15   V3    S    
C19   C21   A    
C60   C62   A    
C45   H17   S    
C10   H6    S    
C57   H27   S    
H2    C24   S    
C54   C56   A    
C33   C35   A    
C47   H19   S    
C34   C36   A    
C7    C27   A    
C36   C38   A    
C45   C47   A    
O20   V3    S    
C25   H11   S    
C38   C40   A    
C60   H22   S    
C26   H12   S    
O17   V3    S    
C39   C45   A    
C71   H35   S    
C41   C43   A    
C18   C26   A    
C15   C17   A    
O11   V4    S    
C40   C46   A    
C14   C16   A    
C19   C27   A    
C9    C31   A    
C10   C32   A    
C24   C26   A    
O6    V2    S    
O13   C65   A    
C3    C32   S    
C33   C43   A    
C4    C31   S    
C6    C30   A    
O13   V3    S    
C30   O22   S    
C63   H23   S    
C53   C55   A    
C21   C23   A    
C72   H40   S    
C35   C37   A    
C61   C63   A    
C52   C54   A    
C48   C50   A    
O19   V4    S    
O16   V4    S    
C12   H10   S    
C29   O21   S    
C5    H3    S    
C5    C29   A    
C56   H26   S    
C62   C67   S    
C40   C42   A    
O4    V2    S    
C70   H33   S    
C51   C53   A    
O6    C4    A    
C42   C52   A    
C37   C39   A    
O1    V2    S    
C5    C21   A    
O2    V1    S    
C34   H14   S    
C66   O17   A    
O21   C69   S    
C64   H24   S    
H1    C23   S    
C65   O18   A    
C56   C58   A    
C59   C61   A    
C43   C57   A    
C17   C31   A    
C15   C19   A    
C20   C28   A    
O4    C2    A    
C18   C32   A    
C50   C52   A    
C69   H30   S    
C70   H32   S    
O16   C68   A    
O3    V1    S    
C55   C57   A    
C13   H7    S    
C54   C64   A    
C7    C66   S    
C14   H8    S    
C1    C36   S    
C46   H18   S    
C6    H4    S    
C2    C35   S    
O11   C67   A    
C61   C68   S    
C8    C65   S    
C50   C60   A    
O24   C72   S    
O3    C1    A    
C46   C48   A    
C11   H9    S    
C9    C11   A    
C72   H38   S    
C10   C12   A    
C41   C51   A    
O12   C68   A    
C17   C25   A    
C69   H31   S    
C27   O23   S    
C6    C22   A    
C70   H34   S    
C44   C58   A    
C12   C14   A    
C13   C15   A    
O8    V2    S    
C20   C22   A    
C22   C24   A    
C34   C44   A    
C71   H37   S    
C8    C28   A    
O5    V1    S    
O14   C66   A    
C62   C64   A    
O7    V1    S    
C9    H5    S    
C48   H20   S    
C37   H15   S    
C1    O8    A    
C53   C63   A    
C71   H36   S    
C59   H21   S    
O9    V2    S    
C47   C49   A    
C58   H28   S    
O10   V1    S    
C55   H25   S    
O15   C67   A    
C69   H29   S    
C38   H16   S    
C49   C59   A    
O18   V4    S    
O23   C71   S    
C16   C18   A    
C8    C30   A    
