data_mof_unit_61469.cif
_audit_creation_date              2012-10-26T17:34:13-0400
_audit_creation_method            fapswitch 2.2
_symmetry_space_group_name_H-M    P1
_symmetry_Int_Tables_number       1
_space_group_crystal_system       triclinic
_cell_length_a                    21.883592
_cell_length_b                    22.039516
_cell_length_c                    22.222138
_cell_angle_alpha                 120.454352
_cell_angle_beta                  118.211068
_cell_angle_gamma                 90.074547
_cell_volume                      7721.37746651

loop_
_atom_site_label
_atom_site_type_symbol
_atom_type_description
_atom_site_fract_x
_atom_site_fract_y
_atom_site_fract_z
_atom_type_partial_charge
C1    C     C_R   0.997872 0.380434 0.495179 0.598116
C2    C     C_1   0.841832 0.336524 0.175141 0.096535
C3    C     C_1   0.122697 0.623311 0.749438 0.083831
C4    C     C_1   0.877706 0.375083 0.250517 0.082599
C5    C     C_2   0.032011 0.205821 0.480923 0.315947
C6    C     C_2   0.052211 0.796007 0.522369 0.314435
C7    C     C_2   0.996036 0.186061 0.506463 0.321822
C8    C     C_2   0.990969 0.813963 0.493975 0.301762
C9    C     C_2   0.044287 0.282715 0.504816 0.148480
C10   C     C_2   0.042682 0.719287 0.498998 0.145706
C11   C     C_2   0.987111 0.304303 0.470396 0.223747
C12   C     C_R   0.002755 0.619784 0.505233 0.605904
C13   C     C_2   0.016156 0.696259 0.530814 0.215569
C14   C     C_R   0.612350 0.994630 0.490416 0.543748
C15   C     C_R   0.387602 0.004339 0.509546 0.540827
C16   C     C_R   0.079287 0.579863 0.659943 0.578377
C17   C     C_R   0.920746 0.420267 0.340062 0.581268
C18   C     C_R   0.419804 0.919652 0.340172 0.541216
C19   C     C_R   0.580146 0.080306 0.659800 0.542157
C20   C     C_R   0.883187 0.005068 0.501803 0.538263
C21   C     C_R   0.116878 0.003746 0.498372 0.609937
C22   C     C_R   0.997863 0.117632 0.501140 0.563078
C23   C     C_3   0.208383 0.792529 0.050554 0.180173
C24   C     C_R   0.997092 0.882382 0.499034 0.592449
C25   C     C_2   0.760148 0.017104 0.451075 -0.095878
C26   C     C_2   0.240914 0.067557 0.550858 -0.076117
C27   C     C_2   0.821019 0.017986 0.509919 0.301615
C28   C     C_2   0.179106 0.009277 0.490433 0.324286
C29   C     C_2   0.696846 0.024896 0.458858 -0.136423
C30   C     C_2   0.304240 0.067489 0.543074 -0.140298
C31   C     C_2   0.665125 0.978016 0.465403 0.278389
C32   C     C_2   0.334575 0.012820 0.534247 0.262776
C33   C     C_3   0.273218 0.769257 0.950265 0.442793
C34   C     C_3   0.665356 0.218008 0.955970 0.170099
C35   C     C_3   0.789935 0.343222 0.050686 0.443753
C36   C     C_3   0.230431 0.650767 0.949862 0.390775
C37   C     C_3   0.826211 0.220545 0.044198 0.390776
C38   C     C_3   0.291068 0.706106 0.045634 0.198235
C39   C     C_3   0.775430 0.176482 0.946082 0.165252
C40   C     C_1   0.374283 0.873897 0.250554 -0.012772
C41   C     C_1   0.625711 0.125803 0.749360 0.011052
C42   C     C_3   0.207232 0.703283 0.916903 -0.034117
C43   C     C_3   0.797612 0.290067 0.082805 -0.025268
C44   C     C_3   0.319460 0.820332 0.049528 0.104691
C45   C     C_3   0.160217 0.743448 0.952770 0.163439
C46   C     C_3   0.750965 0.289803 0.951469 0.081595
C47   C     C_3   0.288624 0.788779 0.082865 -0.060158
C48   C     C_3   0.711795 0.208957 0.916971 -0.063878
C49   C     C_3   0.277600 0.858877 0.917228 0.036071
C50   C     C_3   0.727941 0.435803 0.052223 0.037354
C51   C     C_3   0.388997 0.946686 0.139454 -0.123876
C52   C     C_3   0.713080 0.325789 0.859631 -0.128251
C53   C     C_3   0.167492 0.827205 0.140170 -0.155417
C54   C     C_3   0.544918 0.158925 0.901184 -0.117912
C55   C     C_3   0.081712 0.175271 0.400653 -0.089140
C56   C     C_3   0.716911 0.251792 0.050936 0.144051
C57   C     C_3   0.178900 0.830545 0.608492 -0.040646
C58   C     C_3   0.916482 0.204135 0.551542 -0.078569
C59   C     C_3   0.867818 0.792845 0.447669 -0.020063
C60   C     C_3   0.852723 0.110221 0.641369 -0.104852
C61   C     C_3   0.147977 0.973359 0.360953 -0.109588
C62   C     C_3   0.110238 0.560342 0.862204 -0.061251
C63   C     C_3   0.868356 0.182833 0.139361 -0.036727
C64   C     C_3   0.259131 0.682222 0.123939 0.022105
C65   C     C_3   0.699566 0.058218 0.888929 0.003210
C66   C     C_3   0.060383 0.786030 0.909339 -0.110089
C67   C     C_1   0.335774 0.835635 0.175200 -0.000469
C68   C     C_3   0.680989 0.287661 0.145331 -0.108506
C69   C     C_1   0.664291 0.163371 0.824625 0.052674
C70   C     C_1   0.160291 0.659114 0.824673 0.077370
Cu1   Cu    Cu3+1 0.061030 0.500010 0.499990 1.197392
Cu2   Cu    Cu3+1 0.938970 0.499990 0.500010 1.088083
Cu3   Cu    Cu3+1 0.499800 0.938990 0.500010 1.124547
Cu4   Cu    Cu3+1 0.500200 0.061010 0.499990 0.944971
Cu5   Cu    Cu3+1 0.041320 0.041320 0.582630 1.037647
Cu6   Cu    Cu3+1 0.958680 0.958680 0.417370 1.024139
H1    H     H_    0.376693 0.818225 0.072457 0.135044
H2    H     H_    0.715511 0.204466 0.056516 0.165757
H3    H     H_    0.210857 0.851146 0.071886 0.203459
H4    H     H_    0.637756 0.259210 0.950112 0.214790
H5    H     H_    0.247531 0.897831 0.910600 0.138679
H6    H     H_    0.281322 0.827929 0.861809 0.170072
H7    H     H_    0.332070 0.893250 0.975662 0.173193
H8    H     H_    0.668319 0.416965 0.005728 0.145991
H9    H     H_    0.757845 0.445036 0.027340 0.175682
H10   H     H_    0.740804 0.489938 0.108937 0.165916
H11   H     H_    0.384432 0.002924 0.159096 0.152811
H12   H     H_    0.795052 0.287247 0.939189 0.148227
H13   H     H_    0.422645 0.936175 0.112362 0.142878
H14   H     H_    0.417181 0.946547 0.196004 0.129764
H15   H     H_    0.668789 0.342597 0.826099 0.153078
H16   H     H_    0.714422 0.273693 0.812018 0.126381
H17   H     H_    0.765406 0.370945 0.898975 0.162144
H18   H     H_    0.128252 0.851325 0.112352 0.117577
H19   H     H_    0.220824 0.871003 0.194506 0.122666
H20   H     H_    0.145086 0.805507 0.163526 0.163522
H21   H     H_    0.519342 0.173744 0.855820 0.144452
H22   H     H_    0.550772 0.201471 0.960951 0.148077
H23   H     H_    0.757395 0.012251 0.398657 0.114394
H24   H     H_    0.507763 0.105491 0.874309 0.165437
H25   H     H_    0.129723 0.226019 0.443869 0.182011
H26   H     H_    0.033886 0.181098 0.356227 0.149656
H27   H     H_    0.096464 0.128923 0.363337 0.129073
H28   H     H_    0.188213 0.780571 0.568141 0.183574
H29   H     H_    0.171399 0.824842 0.651756 0.131563
H30   H     H_    0.228948 0.878143 0.647326 0.176936
H31   H     H_    0.939138 0.185830 0.593747 0.107300
H32   H     H_    0.873049 0.156847 0.486956 0.127576
H33   H     H_    0.890452 0.245705 0.574756 0.161890
H34   H     H_    0.244732 0.115076 0.605015 0.126498
H35   H     H_    0.848770 0.811996 0.406185 0.155652
H36   H     H_    0.886199 0.839227 0.512522 0.168815
H37   H     H_    0.820219 0.749984 0.424025 0.190483
H38   H     H_    0.155306 0.298331 0.662832 0.356739
H39   H     H_    0.006872 0.703273 0.342057 0.350600
H40   H     H_    0.810438 0.234479 0.277271 0.354312
H41   H     H_    0.021161 0.764594 0.721483 0.377870
H42   H     H_    0.815358 0.137953 0.617779 0.085967
H43   H     H_    0.908913 0.135121 0.661895 0.126836
H44   H     H_    0.855062 0.121330 0.697126 0.170911
H45   H     H_    0.681043 0.073906 0.467252 0.097059
H46   H     H_    0.188952 0.023398 0.385828 0.101864
H47   H     H_    0.094246 0.982984 0.345361 0.145162
H48   H     H_    0.140902 0.927273 0.302006 0.138264
H49   H     H_    0.422971 0.783083 0.916323 0.384438
H50   H     H_    0.920766 0.531801 0.177040 0.393314
H51   H     H_    0.611361 0.779267 0.374778 0.371524
H52   H     H_    0.383437 0.901158 0.618201 0.364176
H53   H     H_    0.095520 0.510888 0.860210 0.185338
H54   H     H_    0.119465 0.541473 0.811471 0.166037
H55   H     H_    0.061860 0.579824 0.847889 0.082578
H56   H     H_    0.321257 0.109063 0.536701 0.112185
H57   H     H_    0.895763 0.241886 0.191681 0.145436
H58   H     H_    0.909561 0.155573 0.132981 0.201450
H59   H     H_    0.841894 0.156933 0.156393 0.143862
H60   H     H_    0.368647 0.552870 0.935192 0.386441
H61   H     H_    0.983612 0.287612 0.044916 0.393087
H62   H     H_    0.200114 0.657803 0.075216 0.219417
H63   H     H_    0.272556 0.739712 0.175912 0.141504
H64   H     H_    0.270710 0.649743 0.150962 0.141956
H65   H     H_    0.696982 0.084102 0.944858 0.190748
H66   H     H_    0.704782 0.002919 0.873492 0.141587
H67   H     H_    0.342961 0.710859 0.048921 0.184645
H68   H     H_    0.648221 0.047720 0.833787 0.167586
H69   H     H_    0.060661 0.802396 0.965717 0.118636
H70   H     H_    0.019985 0.730145 0.855041 0.117776
H71   H     H_    0.042968 0.826384 0.894283 0.170258
H72   H     H_    0.663275 0.331402 0.181234 0.169275
H73   H     H_    0.733352 0.287871 0.190869 0.120133
H74   H     H_    0.638034 0.233474 0.106031 0.113780
H75   H     H_    0.808863 0.187853 0.925786 0.177352
H76   H     H_    0.114570 0.700426 0.931962 0.169147
O1    O     O_R   0.051550 0.410990 0.500010 -0.487575
O2    O     O_R   0.051530 0.589030 0.499970 -0.481887
O3    O     O_R   0.111820 0.560290 0.620550 -0.463548
O4    O     O_R   0.888180 0.439710 0.379450 -0.505530
O5    O     O_R   0.008740 0.560280 0.620570 -0.519881
O6    O     O_R   0.991260 0.439720 0.379430 -0.475335
O7    O     O_R   0.588860 0.948460 0.499990 -0.434562
O8    O     O_R   0.411140 0.051540 0.500010 -0.542542
O9    O     O_R   0.588880 0.051510 0.499970 -0.547918
O10   O     O_R   0.411120 0.948490 0.500030 -0.438006
O11   O     O_R   0.439520 0.888190 0.379450 -0.481954
O12   O     O_R   0.948450 0.589010 0.499990 -0.469979
O13   O     O_R   0.560480 0.111810 0.620550 -0.513969
O14   O     O_R   0.439550 0.991240 0.379430 -0.516634
O15   O     O_R   0.560450 0.008760 0.620570 -0.485442
O16   O     O_R   0.945840 0.034880 0.569800 -0.511926
O17   O     O_R   0.054160 0.965120 0.430200 -0.490217
O18   O     O_3   0.236697 0.809924 0.917896 -0.469745
O19   O     O_3   0.744337 0.384122 0.072875 -0.496136
O20   O     O_3   0.317873 0.894581 0.080162 -0.557099
O21   O     O_3   0.698115 0.315115 0.909461 -0.596219
O22   O     O_3   0.175774 0.767960 0.079749 -0.606550
O23   O     O_R   0.876060 0.965100 0.430240 -0.528871
O24   O     O_3   0.612791 0.149673 0.913850 -0.626091
O25   O     O_3   0.065251 0.158138 0.445549 -0.587441
O26   O     O_3   0.119459 0.845120 0.559773 -0.542147
O27   O     O_3   0.972787 0.238197 0.553530 -0.583576
O28   O     O_3   0.922892 0.760342 0.444891 -0.601541
O29   O     O_2   0.173318 0.370945 0.567126 -0.230108
O30   O     O_2   0.125334 0.413518 0.656230 -0.255690
O31   O     O_3   0.180203 0.305645 0.638510 -0.473197
O32   O     O_2   0.118550 0.636404 0.444554 -0.229596
O33   O     O_2   0.985338 0.588107 0.349441 -0.243643
O34   O     O_R   0.123940 0.034900 0.569760 -0.503739
O35   O     O_3   0.055935 0.698453 0.369293 -0.454804
O36   O     O_2   0.899171 0.164028 0.333094 -0.321405
O37   O     O_2   0.851383 0.239471 0.416656 -0.264488
O38   O     O_3   0.859912 0.271039 0.322866 -0.568722
O39   O     O_2   0.052607 0.836632 0.664588 -0.303426
O40   O     O_2   0.926991 0.754199 0.579175 -0.253795
O41   O     O_3   0.029943 0.729930 0.678022 -0.524653
O42   O     O_3   0.827070 0.032669 0.581488 -0.510756
O43   O     O_3   0.171928 0.952766 0.417105 -0.515844
O44   O     O_2   0.377192 0.697114 0.950581 -0.243456
O45   O     O_R   0.034880 0.123910 0.569760 -0.535977
O46   O     O_2   0.291310 0.684467 0.820547 -0.235476
O47   O     O_3   0.397909 0.806716 0.945295 -0.587179
O48   O     O_2   0.942574 0.403031 0.161729 -0.166588
O49   O     O_2   0.890042 0.407459 0.040236 -0.305483
O50   O     O_3   0.878402 0.498787 0.163024 -0.499887
O51   O     O_2   0.705635 0.865066 0.378210 -0.298326
O52   O     O_2   0.733144 0.893819 0.512196 -0.232159
O53   O     O_3   0.598958 0.825280 0.384712 -0.496693
O54   O     O_2   0.292017 0.985803 0.618307 -0.292396
O55   O     O_2   0.263084 0.879712 0.482396 -0.201512
O56   O     O_R   0.965120 0.876090 0.430240 -0.515480
O57   O     O_3   0.397127 0.937614 0.609591 -0.515776
O58   O     O_3   0.170930 0.615615 0.944158 -0.568369
O59   O     O_3   0.814041 0.169157 0.062004 -0.595758
O60   O     O_2   0.227109 0.504644 0.877309 -0.233690
O61   O     O_2   0.255104 0.566060 0.824111 -0.193548
O62   O     O_3   0.355393 0.594448 0.968145 -0.458608
O63   O     O_2   0.974842 0.290924 0.165164 -0.260456
O64   O     O_2   0.937146 0.169632 0.038072 -0.240568
O65   O     O_3   0.932121 0.281029 0.028486 -0.507175
O66   O     O_3   0.304150 0.676428 0.093350 -0.505550
O67   O     O_R   0.965100 0.054130 0.430200 -0.497546
O68   O     O_3   0.760204 0.097790 0.901995 -0.515188
O69   O     O_3   0.130546 0.787457 0.923408 -0.519213
O70   O     O_3   0.689669 0.303377 0.095099 -0.532360
O71   O     O_R   0.034900 0.945870 0.569800 -0.468099
O72   O     O_R   0.948470 0.410970 0.500030 -0.477850
S1    S     S_3+6 0.132346 0.346503 0.593579 0.053658
S2    S     S_3+6 0.920883 0.241726 0.072132 0.042195
S3    S     S_3+6 0.050482 0.657324 0.413732 0.053968
S4    S     S_3+6 0.897630 0.241126 0.384310 -0.015763
S5    S     S_3+6 0.005863 0.757841 0.614444 0.007875
S6    S     S_3+6 0.334670 0.735815 0.914285 0.002237
S7    S     S_3+6 0.878055 0.412012 0.103494 0.059793
S8    S     S_3+6 0.678640 0.889348 0.435210 0.049291
S9    S     S_3+6 0.318784 0.952712 0.561012 0.051255
S10   S     S_3+6 0.266249 0.577064 0.901475 0.106958

loop_
_geom_bond_atom_site_label_1
_geom_bond_atom_site_label_2
_ccdc_geom_bond_type
O57   S9    S    
C57   H29   S    
C22   O67   A    
C34   C56   S    
C23   C45   S    
C39   H75   S    
C53   H19   S    
C58   H33   S    
C35   O19   S    
C38   H67   S    
C38   O66   S    
C15   O10   A    
C36   C42   S    
C1    C11   S    
O41   S5    S    
C48   C69   S    
Cu3   O15   S    
O31   S1    S    
C18   O14   A    
C60   O42   S    
C15   C32   S    
C23   O22   S    
C64   H62   S    
H50   O50   S    
C55   H26   S    
O53   S8    S    
C1    O72   A    
Cu2   O4    S    
C33   C42   S    
C63   H57   S    
C44   H1    S    
O47   S6    S    
C55   H25   S    
C51   H14   S    
C49   O18   S    
C21   O17   A    
Cu2   O12   S    
C20   O23   A    
Cu6   O67   S    
C54   O24   S    
H38   O31   S    
Cu1   O1    S    
C55   H27   S    
C42   C70   S    
C28   O43   S    
C56   H2    S    
C60   H43   S    
C58   H31   S    
Cu3   Cu4   S    
C49   H5    S    
Cu1   O6    S    
C18   C40   S    
C37   O59   S    
C66   H69   S    
H40   O38   S    
C68   H73   S    
C22   O45   A    
C50   H9    S    
C34   H4    S    
C25   H23   S    
C11   S4    S    
C40   C67   T    
C29   H45   S    
C59   H35   S    
C54   H21   S    
C60   H42   S    
C58   O27   S    
O50   S7    S    
O48   S7    D    
C30   C32   D    
C35   C43   S    
C14   C31   S    
H60   O62   S    
C68   H72   S    
C44   C47   S    
H39   O35   S    
O65   S2    S    
C57   H30   S    
C16   O5    A    
Cu5   O71   S    
C6    O26   S    
C53   H20   S    
C29   C31   D    
C55   O25   S    
C62   H53   S    
C54   H24   S    
O62   S10   S    
C19   O15   A    
C66   O69   S    
C33   O18   S    
C47   C67   S    
C53   O22   S    
C46   H12   S    
C32   S9    S    
Cu5   O45   S    
C25   C29   S    
O40   S5    D    
C20   O16   A    
C46   C48   S    
C23   C47   S    
C50   H8    S    
C63   H58   S    
C39   O68   S    
C21   O34   A    
C3    C70   T    
H41   O41   S    
C51   H11   S    
C5    C7    D    
C65   H68   S    
C6    C8    D    
O29   S1    D    
Cu1   O2    S    
C24   O56   A    
O64   S2    D    
Cu2   O5    S    
C61   H46   S    
C42   C45   S    
C63   H59   S    
C49   H6    S    
O52   S8    D    
C2    C4    T    
Cu5   Cu6   S    
C44   O20   S    
C34   O24   S    
C5    C9    S    
Cu3   O10   S    
H52   O57   S    
C12   O12   A    
C65   H65   S    
C18   O11   A    
C8    O28   S    
C2    C43   S    
C59   H37   S    
Cu1   O3    S    
C31   S8    S    
C16   O3    A    
C59   H36   S    
C62   O58   S    
C46   O21   S    
C7    O27   S    
C52   H17   S    
C27   O42   S    
O33   S3    D    
C1    O1    A    
C17   O6    A    
C9    C11   D    
C5    O25   S    
C38   C47   S    
C50   O19   S    
C66   H71   S    
C4    C17   S    
C37   S2    S    
C21   C28   S    
O44   S6    D    
C26   C30   S    
O54   S9    D    
C17   O4    A    
C10   S3    S    
O38   S4    S    
C37   C43   S    
C52   H16   S    
Cu5   O34   S    
C34   C48   S    
O61   S10   D    
Cu4   O9    S    
Cu4   O14   S    
C45   H76   S    
O55   S9    D    
C15   O8    A    
C41   C69   T    
C64   H64   S    
C24   O71   A    
C57   H28   S    
C26   H34   S    
C61   O43   S    
C59   O28   S    
C51   O20   S    
C53   H18   S    
C33   C44   S    
C62   H55   S    
Cu6   O23   S    
C68   O70   S    
C12   O2    A    
O36   S4    D    
C10   C13   D    
C6    C10   S    
C65   O68   S    
O60   S10   D    
O46   S6    D    
O30   S1    D    
C20   C27   S    
Cu4   O8    S    
O39   S5    D    
C25   C27   D    
C7    C22   S    
Cu3   O7    S    
C26   C28   D    
C62   H54   S    
C64   O66   S    
C14   O7    A    
C61   H47   S    
Cu5   O16   S    
C45   O69   S    
O63   S2    D    
C14   O9    A    
C36   C38   S    
O35   S3    S    
H51   O53   S    
Cu1   Cu2   S    
Cu3   O11   S    
C51   H13   S    
C56   O70   S    
C65   H66   S    
C57   O26   S    
C49   H7    S    
O51   S8    D    
C30   H56   S    
C8    C24   S    
C61   H48   S    
C60   H44   S    
C58   H32   S    
Cu6   O17   S    
C63   O59   S    
C35   S7    S    
C66   H70   S    
C68   H74   S    
C50   H10   S    
C13   S5    S    
O37   S4    D    
C19   C41   S    
C43   C56   S    
O49   S7    D    
C12   C13   S    
H49   O47   S    
C37   C39   S    
H61   O65   S    
C54   H22   S    
C52   H15   S    
C9    S1    S    
C19   O13   A    
O32   S3    D    
C23   H3    S    
C35   C46   S    
C36   S10   S    
C52   O21   S    
Cu4   O13   S    
C3    C16   S    
Cu6   O56   S    
C33   S6    S    
C36   O58   S    
C39   C48   S    
C64   H63   S    
Cu2   O72   S    
