data_mof_unit_36577.cif
_audit_creation_date              2012-10-26T19:06:50-0400
_audit_creation_method            fapswitch 2.2
_symmetry_space_group_name_H-M    P1
_symmetry_Int_Tables_number       1
_space_group_crystal_system       triclinic
_cell_length_a                    12.402992
_cell_length_b                    13.284662
_cell_length_c                    27.748533
_cell_angle_alpha                 76.500253
_cell_angle_beta                  101.396811
_cell_angle_gamma                 117.083508
_cell_volume                      3936.20021401

loop_
_atom_site_label
_atom_site_type_symbol
_atom_type_description
_atom_site_fract_x
_atom_site_fract_y
_atom_site_fract_z
_atom_type_partial_charge
C1    C     C_R   0.854306 0.286563 0.506319 0.518082
C2    C     C_R   0.887875 0.453797 0.019910 0.065022
C3    C     C_R   0.105314 0.497927 0.034239 -0.019802
C4    C     C_R   0.999177 0.498925 0.592113 0.512445
C5    C     C_R   0.996430 0.475735 0.052559 -0.035549
C6    C     C_R   0.790951 0.462478 0.035449 0.265752
C7    C     C_R   0.787537 0.458099 0.086610 0.264958
C8    C     C_R   0.891246 0.466620 0.120709 0.036099
C9    C     C_R   0.997201 0.479331 0.103315 -0.115998
C10   C     C_R   0.103972 0.495541 0.136642 0.025796
C11   C     C_R   0.104210 0.506599 0.186006 0.402402
C12   C     C_R   0.955883 0.392668 0.728487 -0.033636
C13   C     C_R   0.893442 0.465810 0.171854 0.440895
C14   C     C_R   0.967080 0.570531 0.266697 -0.039119
C15   C     C_R   0.965794 0.574354 0.316818 0.228908
C16   C     C_R   0.144976 0.713245 0.494831 0.543906
C17   C     C_R   0.036222 0.424129 0.342141 -0.177265
C18   C     C_R   0.034934 0.419630 0.292401 -0.059202
C19   C     C_R   0.000437 0.492717 0.254360 0.193107
C20   C     C_R   0.883989 0.434853 0.971060 0.066823
C21   C     C_R   0.995624 0.474238 0.951050 0.013482
C22   C     C_R   0.107185 0.508357 0.982284 0.020627
C23   C     C_R   0.994652 0.496193 0.745673 0.218363
C24   C     C_R   0.773599 0.377257 0.941279 0.044402
C25   C     C_R   0.216093 0.559428 0.909470 -0.090586
C26   C     C_R   0.208704 0.508708 0.068473 -0.060335
C27   C     C_R   0.207753 0.503403 0.119046 0.263320
C28   C     C_R   0.000588 0.500923 0.407655 0.582796
C29   C     C_R   0.216847 0.552554 0.960326 -0.125717
C30   C     C_R   0.271565 0.027936 0.444852 0.007913
C31   C     C_R   0.226667 0.836140 0.491040 -0.032120
C32   C     C_R   0.801959 0.098196 0.559783 -0.178425
C33   C     C_R   0.713810 0.009816 0.587957 -0.032805
C34   C     C_R   0.995557 0.478805 0.899521 -0.028771
C35   C     C_R   0.591063 0.984200 0.574046 0.314335
C36   C     C_R   0.553963 0.031452 0.525541 0.056412
C37   C     C_R   0.644279 0.127423 0.499010 -0.010117
C38   C     C_R   0.431047 0.989337 0.503013 0.060925
C39   C     C_R   0.395919 0.061282 0.462956 -0.021863
C40   C     C_R   0.886843 0.448450 0.817497 0.435894
C41   C     C_R   0.486877 0.159079 0.438947 -0.132737
C42   C     C_R   0.608609 0.186078 0.454439 -0.091488
C43   C     C_R   0.346116 0.874230 0.515452 0.224703
C44   C     C_R   0.188284 0.914848 0.459220 -0.117515
C45   C     C_R   0.884884 0.439682 0.868756 0.020792
C46   C     C_R   0.768399 0.165402 0.518512 -0.024577
C47   C     C_R   0.347336 0.326854 0.580376 0.273207
C48   C     C_R   0.754801 0.636480 0.429187 0.023812
C49   C     C_R   0.647290 0.643077 0.406404 -0.052107
C50   C     C_R   0.539309 0.576310 0.428590 0.273336
C51   C     C_R   0.543449 0.516738 0.478361 -0.005228
C52   C     C_R   0.103875 0.527514 0.827435 0.449187
C53   C     C_R   0.651311 0.500867 0.496557 0.117958
C54   C     C_R   0.444145 0.466219 0.509301 -0.089210
C55   C     C_R   0.445049 0.380703 0.550849 0.029769
C56   C     C_R   0.774965 0.386976 0.890107 -0.131206
C57   C     C_R   0.542937 0.349649 0.562100 0.203482
C58   C     C_R   0.647120 0.415910 0.537694 -0.086017
C59   C     C_R   0.347635 0.501316 0.502557 0.111378
C60   C     C_R   0.243799 0.347925 0.565545 0.161850
C61   C     C_R   0.031879 0.600773 0.711835 0.053905
C62   C     C_R   0.033637 0.598814 0.661764 -0.163775
C63   C     C_R   0.953562 0.390510 0.678065 -0.014310
C64   C     C_2   0.901894 0.278894 0.660276 0.237853
C65   C     C_2   0.067279 0.713090 0.726572 0.302494
C66   C     C_2   0.227074 0.108730 0.410568 0.243541
C67   C     C_R   0.106125 0.522282 0.878728 0.039270
C68   C     C_2   0.135256 0.272136 0.592574 0.314736
C69   C     C_2   0.363473 0.613326 0.472214 0.373248
C70   C     C_2   0.658453 0.292609 0.962359 0.307018
C71   C     C_R   0.995980 0.495284 0.644857 -0.020859
C72   C     C_R   0.000603 0.500163 0.354760 0.046234
Cu1   Cu    Cu3+1 0.098270 0.475420 0.511360 0.943086
Cu2   Cu    Cu3+1 0.901730 0.524580 0.488640 0.954322
H1    H     H_    0.302463 0.594473 0.894315 0.178119
H2    H     H_    0.741880 0.969477 0.623603 0.192561
H3    H     H_    0.674762 0.254830 0.431308 0.155087
H4    H     H_    0.836208 0.682960 0.410179 0.175411
H5    H     H_    0.689864 0.347113 0.867384 0.160175
H6    H     H_    0.645919 0.692823 0.369508 0.160112
H7    H     H_    0.721658 0.394536 0.550838 0.171695
H8    H     H_    0.942335 0.628101 0.237135 0.140147
H9    H     H_    0.063429 0.678399 0.635473 0.111377
H10   H     H_    0.883635 0.275401 0.620735 0.078380
H11   H     H_    0.107320 0.791441 0.700325 0.123756
H12   H     H_    0.290294 0.514700 0.057334 0.149231
H13   H     H_    0.280555 0.442707 0.179189 0.360494
H14   H     H_    0.283363 0.200400 0.405761 0.103603
H15   H     H_    0.320653 0.746519 0.569101 0.344855
H16   H     H_    0.444530 0.946081 0.602798 0.339763
H17   H     H_    0.070644 0.300427 0.597203 0.132936
H18   H     H_    0.609488 0.241302 0.598640 0.322551
H19   H     H_    0.430224 0.299967 0.644759 0.365784
H20   H     H_    0.294074 0.620579 0.443053 0.154639
H21   H     H_    0.368068 0.485099 0.411007 0.307255
H22   H     H_    0.912279 0.696398 0.298511 0.333043
H23   H     H_    0.062979 0.366475 0.370868 0.148751
H24   H     H_    0.612420 0.407446 0.080950 0.347321
H25   H     H_    0.672376 0.526510 0.012901 0.341996
H26   H     H_    0.572371 0.271421 0.938951 0.120882
H27   H     H_    0.060407 0.358848 0.283368 0.161670
H28   H     H_    0.305140 0.586133 0.981377 0.124601
H29   H     H_    0.094348 0.886004 0.442938 0.188660
H30   H     H_    0.465689 0.210221 0.405382 0.118865
H31   H     H_    0.925485 0.313395 0.754855 0.182362
H32   H     H_    0.895985 0.123595 0.574494 0.175750
N1    N     N_R   0.995322 0.492551 0.797876 -0.372906
N2    N     N_R   0.999215 0.487854 0.202917 -0.413152
N3    N     N_R   0.246290 0.438210 0.528570 -0.321005
N4    N     N_R   0.754320 0.561170 0.471730 -0.248738
O1    O     O_R   0.972510 0.318140 0.514280 -0.521220
O2    O     O_R   0.082990 0.479230 0.439860 -0.540859
O3    O     O_R   0.917010 0.520730 0.420680 -0.448777
O4    O     O_2   0.781273 0.413203 0.787442 -0.465468
O5    O     O_2   0.877519 0.189126 0.689595 -0.465695
O6    O     O_2   0.050072 0.720218 0.767210 -0.446770
O7    O     O_3   0.309358 0.503542 0.150010 -0.625316
O8    O     O_2   0.125337 0.073920 0.387921 -0.491882
O9    O     O_3   0.384782 0.797025 0.546692 -0.605765
O10   O     O_3   0.513862 0.924933 0.610832 -0.633500
O11   O     O_2   0.115989 0.173038 0.610554 -0.455850
O12   O     O_2   0.790898 0.442980 0.190699 -0.398871
O13   O     O_3   0.535421 0.253424 0.596724 -0.657269
O14   O     O_3   0.352481 0.256878 0.625324 -0.576955
O15   O     O_2   0.456431 0.699497 0.479259 -0.447138
O16   O     O_3   0.432307 0.560493 0.398230 -0.688582
O17   O     O_3   0.934002 0.651238 0.329411 -0.689206
O18   O     O_3   0.684863 0.448169 0.103432 -0.622417
O19   O     O_3   0.706950 0.485812 0.999539 -0.699081
O20   O     O_2   0.658943 0.241422 0.005060 -0.472064
O21   O     O_2   0.209079 0.567047 0.807208 -0.464234
O22   O     O_2   0.209014 0.539782 0.216562 -0.442666
O23   O     O_R   0.806530 0.359640 0.495100 -0.533036
O24   O     O_R   0.082990 0.479270 0.579320 -0.525424
O25   O     O_R   0.917010 0.520770 0.560140 -0.510920
O26   O     O_R   0.193470 0.640360 0.504900 -0.483893
O27   O     O_R   0.027490 0.681860 0.485720 -0.500685

loop_
_geom_bond_atom_site_label_1
_geom_bond_atom_site_label_2
_ccdc_geom_bond_type
C53   N4    A    
C10   C27   A    
C48   N4    A    
C62   H9    S    
C8    C13   A    
C22   C29   A    
Cu1   Cu2   S    
C35   C36   A    
C25   C67   A    
H19   O14   S    
C11   O22   S    
C57   C58   A    
C24   C70   S    
C7    C8    A    
C39   C41   A    
C2    C6    A    
C28   O2    A    
C16   C31   S    
C15   C72   A    
C12   C23   A    
C26   C27   A    
C56   H5    S    
C31   C43   A    
C47   C55   A    
C36   C37   A    
H13   O7    S    
C13   N2    A    
C66   H14   S    
C38   C39   A    
C1    C46   S    
Cu2   O23   S    
H15   O9    S    
C70   O20   D    
C68   H17   S    
C18   C19   A    
C41   C42   A    
C48   H4    S    
C37   C42   A    
C64   H10   S    
C60   N3    A    
C59   N3    A    
C47   C60   A    
C40   O4    S    
C16   O27   A    
C45   C56   A    
C8    C9    A    
C62   C71   A    
C50   O16   S    
C7    O18   S    
C9    C10   A    
C19   N2    S    
H24   O18   S    
C69   O15   D    
C64   O5    D    
C32   H32   S    
C21   C22   A    
C30   C44   A    
C35   O10   S    
C28   C72   S    
C6    O19   S    
C1    O23   A    
C44   H29   S    
C70   H26   S    
Cu1   O1    S    
C54   C59   A    
C27   O7    S    
C25   C29   A    
C40   C45   A    
Cu2   O27   S    
C31   C44   A    
H25   O19   S    
C2    C20   A    
C20   C24   A    
C52   N1    A    
C69   H20   S    
C28   O3    A    
C58   H7    S    
C12   C63   A    
C21   C34   A    
C50   C51   A    
Cu2   O3    S    
H22   O17   S    
C25   H1    S    
C18   H27   S    
H16   O10   S    
C34   C67   A    
C5    C9    A    
C17   C72   A    
C57   O13   S    
C33   H2    S    
Cu1   O26   S    
C26   H12   S    
C23   N1    S    
Cu2   O25   S    
C17   C18   A    
C34   C45   A    
Cu1   O24   S    
Cu1   N3    S    
C30   C66   S    
C52   C67   A    
C59   C69   S    
C4    O25   A    
C48   C49   A    
C63   C71   A    
C40   N1    A    
C65   O6    D    
H18   O13   S    
C2    C5    A    
C14   H8    S    
C16   O26   A    
Cu1   O2    S    
C4    O24   A    
C54   C55   A    
C52   O21   S    
C32   C46   A    
C14   C19   A    
C3    C26   A    
C3    C5    A    
C68   O11   D    
Cu2   N4    S    
C53   C58   A    
C49   H6    S    
C65   H11   S    
C6    C7    A    
C24   C56   A    
C29   H28   S    
C41   H30   S    
C51   C54   A    
C32   C33   A    
C55   C57   A    
C38   C43   A    
C1    O1    A    
C13   O12   S    
H21   O16   S    
C47   O14   S    
C12   H31   S    
C36   C38   A    
C33   C35   A    
C30   C39   A    
C61   C62   A    
C10   C11   A    
C63   C64   S    
C61   C65   S    
C23   C61   A    
C20   C21   A    
C60   C68   S    
C42   H3    S    
C49   C50   A    
C66   O8    D    
C11   N2    A    
C14   C15   A    
C3    C22   A    
C15   O17   S    
C51   C53   A    
C37   C46   A    
C17   H23   S    
C4    C71   S    
C43   O9    S    
