data_mof_unit_27507.cif
_audit_creation_date              2012-12-10T17:19:25-0500
_audit_creation_method            fapswitch 2.2
_symmetry_space_group_name_H-M    P1
_symmetry_Int_Tables_number       1
_space_group_crystal_system       triclinic
_cell_length_a                    14.994209
_cell_length_b                    10.856684
_cell_length_c                    9.58544
_cell_angle_alpha                 90.431786
_cell_angle_beta                  90.021162
_cell_angle_gamma                 92.483723
_cell_volume                      1558.87823245

loop_
_atom_site_label
_atom_site_type_symbol
_atom_type_description
_atom_site_fract_x
_atom_site_fract_y
_atom_site_fract_z
_atom_type_partial_charge
C1    C     C_R   0.507261 0.263155 0.500239 0.830940
C2    C     C_R   0.910765 0.616021 0.505900 0.074731
C3    C     C_R   0.943552 0.277197 0.488622 -0.202541
C4    C     C_R   0.036266 0.274463 0.488344 -0.157343
C5    C     C_R   0.089154 0.384589 0.494029 0.064141
C6    C     C_R   0.046868 0.498957 0.500143 0.032019
C7    C     C_R   0.098261 0.610839 0.506199 0.122622
C8    C     C_R   0.056376 0.723384 0.512010 -0.201286
C9    C     C_R   0.963658 0.726137 0.511776 -0.160721
C10   C     C_R   0.183083 0.383896 0.493795 0.179810
C11   C     C_R   0.232711 0.496573 0.499953 -0.102310
C12   C     C_R   0.329128 0.499076 0.499991 0.879988
C13   C     C_R   0.190934 0.608674 0.506287 -0.289862
C14   C     C_R   0.560517 0.123125 0.753235 -0.145134
C15   C     C_R   0.551023 0.065643 0.882092 -0.145053
C16   C     C_R   0.506806 0.950996 0.890371 -0.134209
C17   C     C_R   0.480506 0.888512 0.768572 -0.153598
C18   C     C_R   0.498952 0.939952 0.635324 0.115454
C19   C     C_R   0.525824 0.065717 0.630145 0.109176
C20   C     C_R   0.515516 0.129376 0.502687 -0.113402
C21   C     C_R   0.500707 0.062933 0.378627 -0.170201
C22   C     C_R   0.493082 0.935709 0.380328 -0.184733
C23   C     C_R   0.495172 0.737619 0.501616 0.808529
C24   C     C_R   0.491936 0.872404 0.507171 -0.095730
C25   C     C_R   0.618486 0.664290 0.145413 -0.135281
C26   C     C_R   0.676195 0.744634 0.073735 -0.210665
C27   C     C_R   0.676303 0.744315 0.930013 -0.179685
C28   C     C_R   0.618531 0.663876 0.857197 -0.124762
C29   C     C_R   0.558185 0.580733 0.925848 0.178512
C30   C     C_R   0.558157 0.580802 0.075488 0.196027
C31   C     C_R   0.444971 0.422753 0.073241 -0.058664
C32   C     C_R   0.444990 0.422794 0.925249 -0.055499
C33   C     C_R   0.670866 0.501264 0.500019 0.847295
C34   C     C_R   0.816838 0.616736 0.505515 0.161259
C35   C     C_R   0.767240 0.503986 0.500092 -0.083572
C36   C     C_R   0.809021 0.391884 0.494533 -0.286016
C37   C     C_R   0.901676 0.389744 0.494419 0.120152
C38   C     C_R   0.953058 0.501643 0.500195 0.032454
Cu1   Cu    Cu3+1 0.499990 0.499990 0.640660 0.946360
Cu2   Cu    Cu3+1 0.500010 0.500010 0.359340 0.957389
H1    H     H_    0.596642 0.211414 0.751340 0.157927
H2    H     H_    0.575570 0.111758 0.975930 0.137909
H3    H     H_    0.494513 0.909074 0.991086 0.138979
H4    H     H_    0.442917 0.802547 0.782179 0.166437
H5    H     H_    0.486434 0.886993 0.281553 0.159231
H6    H     H_    0.399896 0.359430 0.127994 0.157845
H7    H     H_    0.624524 0.671866 0.255340 0.228688
H8    H     H_    0.721293 0.807506 0.130473 0.184869
H9    H     H_    0.721276 0.807187 0.874170 0.188761
H10   H     H_    0.623813 0.671752 0.747388 0.231774
H11   H     H_    0.768929 0.306237 0.490327 0.139735
H12   H     H_    0.399952 0.359457 0.869316 0.162680
H13   H     H_    0.904457 0.190892 0.484199 0.158171
H14   H     H_    0.065572 0.185307 0.483658 0.193627
H15   H     H_    0.231034 0.694289 0.511009 0.143724
H16   H     H_    0.095468 0.809681 0.516666 0.160043
H17   H     H_    0.934363 0.815303 0.516363 0.195297
H18   H     H_    0.494834 0.109215 0.279505 0.161165
N1    N     N_R   0.500860 0.501210 0.147910 -0.204075
N2    N     N_R   0.500890 0.501290 0.852040 -0.209803
O1    O     O_R   0.499990 0.319640 0.618810 -0.584862
O2    O     O_R   0.500000 0.319660 0.381240 -0.577332
O3    O     O_R   0.370250 0.499960 0.618800 -0.571189
O4    O     O_R   0.370260 0.499980 0.381230 -0.565627
O5    O     O_R   0.500000 0.680340 0.618760 -0.617541
O6    O     O_R   0.500010 0.680360 0.381190 -0.602662
O7    O     O_R   0.629740 0.500020 0.618770 -0.598429
O8    O     O_R   0.629750 0.500040 0.381200 -0.592790
Br1   Br    Br    0.754643 0.769219 0.511162 -0.642347
Br2   Br    Br    0.245404 0.231582 0.485754 -0.566793

loop_
_geom_bond_atom_site_label_1
_geom_bond_atom_site_label_2
_ccdc_geom_bond_type
C23   C24   S    
C6    C38   A    
C25   C30   A    
C29   C30   A    
C33   O8    A    
C11   C13   A    
C25   H7    S    
C19   C20   A    
C34   Br1   S    
C29   N2    A    
C26   H8    S    
C11   C12   S    
C30   N1    A    
C8    H16   S    
C17   C18   A    
C17   H4    S    
C21   H18   S    
Cu2   N1    S    
Cu2   O6    S    
C21   C22   A    
C1    O2    A    
Cu1   O5    S    
C16   H3    S    
C23   O5    A    
C26   C27   A    
C37   C38   A    
C36   H11   S    
C28   H10   S    
C35   C36   A    
C14   H1    S    
C18   C24   A    
Cu1   N2    S    
C10   Br2   S    
C23   O6    A    
C5    C10   A    
C28   C29   A    
C33   C35   S    
C18   C19   A    
C6    C7    A    
C9    H17   S    
Cu1   O3    S    
C5    C6    A    
C12   O4    A    
C22   C24   A    
C7    C8    A    
C10   C11   A    
C32   N2    A    
C3    C4    A    
Cu1   Cu2   S    
C16   C17   A    
C27   H9    S    
C7    C13   A    
C22   H5    S    
Cu2   O2    S    
C20   C21   A    
C3    C37   A    
C36   C37   A    
C34   C35   A    
Cu2   O8    S    
C2    C34   A    
C31   N1    A    
C27   C28   A    
C12   O3    A    
C2    C38   A    
C14   C15   A    
C4    C5    A    
C1    C20   S    
C3    H13   S    
Cu2   O4    S    
C4    H14   S    
C25   C26   A    
Cu1   O1    S    
C2    C9    A    
Cu1   O7    S    
C14   C19   A    
C31   C32   A    
C32   H12   S    
C33   O7    A    
C15   C16   A    
C15   H2    S    
C8    C9    A    
C13   H15   S    
C31   H6    S    
C1    O1    A    
