data_mof_unit_53627.cif
_audit_creation_date              2012-12-10T18:11:09-0500
_audit_creation_method            fapswitch 2.2
_symmetry_space_group_name_H-M    P1
_symmetry_Int_Tables_number       1
_space_group_crystal_system       triclinic
_cell_length_a                    10.9746
_cell_length_b                    9.689621
_cell_length_c                    10.813935
_cell_angle_alpha                 90.140524
_cell_angle_beta                  87.713685
_cell_angle_gamma                 88.511245
_cell_volume                      1148.64047386

loop_
_atom_site_label
_atom_site_type_symbol
_atom_type_description
_atom_site_fract_x
_atom_site_fract_y
_atom_site_fract_z
_atom_type_partial_charge
C1    C     C_R   0.260225 0.502537 0.504843 0.854006
C2    C     C_3   0.491091 0.500486 0.120592 -0.119330
C3    C     C_3   0.063570 0.658734 0.489955 0.269184
C4    C     C_3   0.060488 0.450959 0.627220 0.177125
C5    C     C_3   0.922633 0.651104 0.487061 -0.450880
C6    C     C_3   0.920954 0.439964 0.615009 -0.430191
C7    C     C_3   0.085130 0.418643 0.392676 -0.412455
C8    C     C_3   0.121705 0.507710 0.503020 -0.196928
C9    C     C_3   0.878856 0.498858 0.490141 -0.168887
C10   C     C_3   0.945740 0.417628 0.375861 0.620135
C11   C     C_3   0.623481 0.078051 0.514251 -0.221025
C12   C     C_3   0.621421 0.914840 0.532948 -0.200379
C13   C     C_3   0.433614 0.085812 0.614380 -0.249793
C14   C     C_3   0.418440 0.920542 0.603953 -0.317137
C15   C     C_3   0.432423 0.070950 0.397857 0.336824
C16   C     C_3   0.471693 0.915795 0.380708 0.277381
C17   C     C_R   0.495337 0.500126 0.259452 0.964887
C18   C     C_R   0.739670 0.498755 0.493413 0.905639
C19   C     C_R   0.502166 0.500189 0.739147 0.889406
C20   C     C_3   0.448865 0.622994 0.039715 -0.109978
C21   C     C_3   0.425266 0.398363 0.037465 -0.070318
C22   C     C_3   0.384661 0.520179 0.955375 -0.338199
C23   C     C_3   0.502646 0.501161 0.874904 -0.236014
C24   C     C_3   0.566444 0.602487 0.957130 0.441491
C25   C     C_3   0.543293 0.382394 0.956587 0.392898
C26   C     C_3   0.609115 0.482692 0.038862 -0.186369
Cu1   Cu    Cu3+1 0.499860 0.642410 0.500060 1.040690
Cu2   Cu    Cu3+1 0.499860 0.357590 0.500060 1.098878
H1    H     H_    0.291782 0.535981 0.919873 0.213842
H2    H     H_    0.670393 0.124820 0.591943 0.238020
H3    H     H_    0.643676 0.890030 0.630017 0.223390
H4    H     H_    0.679284 0.102194 0.433734 0.269594
H5    H     H_    0.698889 0.867088 0.479260 0.205996
H6    H     H_    0.480591 0.110793 0.699614 0.257146
H7    H     H_    0.438435 0.873441 0.694573 0.239052
H8    H     H_    0.334299 0.068944 0.428135 0.136039
H9    H     H_    0.393546 0.859068 0.346574 0.180942
H10   H     H_    0.343182 0.135644 0.626095 0.256898
H11   H     H_    0.322433 0.896016 0.590185 0.214873
H12   H     H_    0.396264 0.716690 0.070367 0.240866
H13   H     H_    0.360528 0.314523 0.052477 0.233216
H14   H     H_    0.704546 0.458288 0.058966 0.278870
H15   H     H_    0.083437 0.714617 0.576684 0.110273
H16   H     H_    0.074919 0.528945 0.700660 0.089244
H17   H     H_    0.882468 0.709364 0.568464 0.191937
H18   H     H_    0.874934 0.498133 0.692809 0.203613
H19   H     H_    0.885562 0.703559 0.405683 0.289966
H20   H     H_    0.889726 0.333781 0.628658 0.297353
H21   H     H_    0.133716 0.454768 0.307481 0.213683
H22   H     H_    0.120198 0.312369 0.407848 0.267056
N1    N     N_3   0.500250 0.143650 0.502780 -0.232706
N2    N     N_3   0.500250 0.856350 0.502780 -0.235769
O1    O     O_R   0.317570 0.620260 0.500070 -0.583562
O2    O     O_R   0.317570 0.379740 0.500070 -0.521368
O3    O     O_R   0.499850 0.620240 0.316900 -0.546501
O4    O     O_R   0.499850 0.379760 0.316900 -0.486415
O5    O     O_R   0.682190 0.620260 0.500030 -0.571840
O6    O     O_R   0.682190 0.379740 0.500030 -0.552652
O7    O     O_R   0.499910 0.620280 0.683200 -0.581626
O8    O     O_R   0.499910 0.379720 0.683200 -0.547275
S1    S     S_3+6 0.912803 0.493140 0.226181 0.051183
O9    O     O_2   0.784114 0.546196 0.233464 -0.272338
O10   O     O_2   0.993887 0.608742 0.189103 -0.237163
O11   O     O_3   0.926910 0.374825 0.111874 -0.454336
H23   H     H_    0.015978 0.362168 0.095446 0.351101
S2    S     S_3+6 0.901262 0.240667 0.359057 0.028664
O12   O     O_2   0.779710 0.246566 0.300672 -0.203042
O13   O     O_2   0.990839 0.166291 0.271732 -0.289730
O14   O     O_3   0.894034 0.151367 0.491974 -0.546852
H24   H     H_    0.903119 0.052988 0.467263 0.395245
S3    S     S_3+6 0.397015 0.140545 0.249960 0.064215
O15   O     O_2   0.510457 0.176961 0.177506 -0.152146
O16   O     O_2   0.333374 0.032260 0.178237 -0.273850
O17   O     O_3   0.299215 0.275733 0.266126 -0.599485
H25   H     H_    0.228755 0.252790 0.216120 0.362188
S4    S     S_3+6 0.594833 0.890986 0.258775 0.088985
O18   O     O_2   0.674838 0.768375 0.283770 -0.247074
O19   O     O_2   0.537688 0.871487 0.137257 -0.188673
O20   O     O_3   0.689481 0.021564 0.238707 -0.444868
H26   H     H_    0.764494 0.980999 0.197742 0.407708
S5    S     S_3+6 0.669295 0.730340 0.903216 0.054829
O21   O     O_2   0.741156 0.677236 0.791398 -0.370215
O22   O     O_2   0.597738 0.857198 0.868954 -0.246605
O23   O     O_3   0.765670 0.767965 0.014663 -0.419462
H27   H     H_    0.820927 0.836884 0.977187 0.370817
S6    S     S_3+6 0.618565 0.223409 0.915070 0.077631
O24   O     O_2   0.524775 0.113710 0.913847 -0.209980
O25   O     O_2   0.682687 0.235583 0.790689 -0.339228
O26   O     O_3   0.722809 0.183106 0.019598 -0.406108
H28   H     H_    0.768787 0.102079 0.984108 0.389133
S7    S     S_3+6 0.122443 0.772984 0.369606 0.039747
O27   O     O_2   0.183581 0.888496 0.432085 -0.330071
O28   O     O_2   0.212608 0.699065 0.282708 -0.299522
O29   O     O_3   0.011791 0.848358 0.287658 -0.461114
H29   H     H_    0.055329 0.895738 0.218614 0.415608
S8    S     S_3+6 0.120190 0.294048 0.692857 0.011781
O30   O     O_2   0.130515 0.180649 0.597881 -0.229161
O31   O     O_2   0.242290 0.319715 0.745230 -0.343330
O32   O     O_3   0.025242 0.243441 0.809056 -0.453335
H30   H     H_    0.011995 0.326140 0.862327 0.356035

loop_
_geom_bond_atom_site_label_1
_geom_bond_atom_site_label_2
_ccdc_geom_bond_type
C7    C10   S    
S2    O13   D    
C22   H1    S    
C1    C8    S    
S4    O20   S    
C4    C8    S    
C6    C9    S    
S5    O21   D    
Cu2   O4    S    
C7    C8    S    
C5    H19   S    
C3    H15   S    
C6    H20   S    
C24   C26   S    
O14   H24   S    
C20   H12   S    
Cu2   N1    S    
Cu1   O3    S    
S2    O14   S    
C15   C16   S    
S8    O32   S    
C3    S7    S    
S1    O10   D    
C1    O1    A    
S5    O22   D    
C14   H11   S    
C13   N1    S    
C18   O6    A    
C14   N2    S    
C20   C24   S    
C11   H2    S    
S8    O31   D    
C23   C24   S    
C15   N1    S    
C9    C10   S    
C17   O3    A    
C16   H9    S    
Cu2   O8    S    
S2    O12   D    
C4    S8    S    
C21   C22   S    
C2    C17   S    
S1    O9    D    
C12   N2    S    
C10   S2    S    
O17   H25   S    
C2    C20   S    
O23   H27   S    
C7    H21   S    
C4    C6    S    
C3    C8    S    
Cu1   O5    S    
S7    O27   D    
S3    O16   D    
Cu2   O2    S    
S6    O24   D    
C4    H16   S    
C19   O7    A    
C25   C26   S    
C5    H17   S    
S1    O11   S    
C19   C23   S    
C24   S5    S    
C5    C9    S    
S7    O28   D    
C18   O5    A    
O32   H30   S    
S8    O30   D    
C2    C21   S    
C2    C26   S    
S4    O18   D    
C17   O4    A    
C13   H10   S    
C1    O2    A    
C21   H13   S    
C20   C22   S    
C11   H4    S    
C12   H3    S    
C10   S1    S    
C15   H8    S    
C14   H7    S    
S5    O23   S    
Cu1   N2    S    
C26   H14   S    
C21   C25   S    
C6    H18   S    
C16   S4    S    
C16   N2    S    
C7    H22   S    
S4    O19   D    
C3    C5    S    
S6    O26   S    
S3    O17   S    
C11   C12   S    
Cu1   O1    S    
Cu2   O6    S    
C19   O8    A    
C15   S3    S    
O11   H23   S    
C12   H5    S    
S3    O15   D    
Cu1   O7    S    
S7    O29   S    
C25   S6    S    
S6    O25   D    
C23   C25   S    
O29   H29   S    
C11   N1    S    
O20   H26   S    
C9    C18   S    
C13   H6    S    
Cu1   Cu2   S    
C22   C23   S    
O26   H28   S    
C13   C14   S    
