data_mof_unit_35244.cif
_audit_creation_date              2012-12-10T18:59:54-0500
_audit_creation_method            fapswitch 2.2
_symmetry_space_group_name_H-M    P1
_symmetry_Int_Tables_number       1
_space_group_crystal_system       triclinic
_cell_length_a                    10.654775
_cell_length_b                    10.671759
_cell_length_c                    9.847065
_cell_angle_alpha                 90.090984
_cell_angle_beta                  90.355029
_cell_angle_gamma                 89.345116
_cell_volume                      1119.5664875

loop_
_atom_site_label
_atom_site_type_symbol
_atom_type_description
_atom_site_fract_x
_atom_site_fract_y
_atom_site_fract_z
_atom_type_partial_charge
C1    C     C_R   0.499942 0.259969 0.499822 0.858595
C2    C     C_R   0.500061 0.740031 0.500178 0.858561
C3    C     C_R   0.872001 0.499266 0.502429 -0.188092
C4    C     C_R   0.127999 0.500741 0.497573 -0.188096
C5    C     C_R   0.937885 0.394097 0.553192 -0.033869
C6    C     C_R   0.062117 0.605917 0.446825 -0.033845
C7    C     C_R   0.543774 0.063445 0.385678 -0.203724
C8    C     C_R   0.456246 0.936555 0.614328 -0.203735
C9    C     C_R   0.545113 0.935113 0.386349 -0.201360
C10   C     C_R   0.454905 0.064887 0.613656 -0.201379
C11   C     C_R   0.501001 0.872417 0.500517 -0.006841
C12   C     C_R   0.499014 0.127583 0.499486 -0.006851
C13   C     C_R   0.573984 0.580829 0.072545 -0.069312
C14   C     C_R   0.426016 0.419171 0.927454 -0.069302
C15   C     C_R   0.573994 0.580751 0.928680 -0.083723
C16   C     C_R   0.426007 0.419248 0.071320 -0.083708
C17   C     C_R   0.260519 0.503252 0.499400 0.867164
C18   C     C_R   0.739481 0.496748 0.500600 0.867143
C19   C     C_R   0.181658 0.938616 0.438707 -0.116209
C20   C     C_R   0.818329 0.061403 0.561444 -0.116169
C21   C     C_R   0.129198 0.827341 0.485308 -0.150181
C22   C     C_R   0.870804 0.172656 0.514802 -0.150309
C23   C     C_R   0.129168 0.720167 0.402297 0.145776
C24   C     C_R   0.870840 0.279859 0.597769 0.145709
C25   C     C_R   0.183659 0.725393 0.272935 -0.029912
C26   C     C_R   0.816347 0.274681 0.727134 -0.029849
C27   C     C_R   0.237622 0.836446 0.227508 -0.126081
C28   C     C_R   0.762369 0.163650 0.772602 -0.126105
C29   C     C_R   0.235634 0.943259 0.309865 -0.103897
C30   C     C_R   0.764344 0.056811 0.690286 -0.103940
C31   C     C_R   0.931465 0.605163 0.448846 -0.040220
C32   C     C_R   0.068534 0.394850 0.551162 -0.040209
H1    H     H_    0.276304 0.029522 0.274081 0.132169
H2    H     H_    0.723661 0.970567 0.726102 0.132179
H3    H     H_    0.633197 0.645298 0.874680 0.131769
H4    H     H_    0.366803 0.354701 0.125320 0.131778
H5    H     H_    0.180321 0.021267 0.502403 0.157412
H6    H     H_    0.819659 0.978730 0.497782 0.157463
H7    H     H_    0.086193 0.825254 0.584646 0.133253
H8    H     H_    0.913811 0.174705 0.415463 0.133284
H9    H     H_    0.182465 0.644272 0.206727 0.131764
H10   H     H_    0.817547 0.355824 0.793310 0.131768
H11   H     H_    0.279639 0.840129 0.127827 0.126586
H12   H     H_    0.720347 0.160007 0.872284 0.126587
H13   H     H_    0.579252 0.112207 0.297689 0.159108
H14   H     H_    0.420768 0.887794 0.702317 0.159107
H15   H     H_    0.580936 0.885205 0.298559 0.163126
H16   H     H_    0.419081 0.114794 0.701446 0.163141
H17   H     H_    0.633156 0.645454 0.127524 0.145414
H18   H     H_    0.366844 0.354546 0.872476 0.145473
N1    N     N_R   0.499970 0.499970 0.857200 -0.084520
N2    N     N_R   0.500030 0.500030 0.142800 -0.084515
O1    O     O_R   0.499990 0.316750 0.614620 -0.625359
O2    O     O_R   0.500010 0.683250 0.385380 -0.625378
O3    O     O_R   0.499990 0.316780 0.385290 -0.631008
O4    O     O_R   0.500010 0.683220 0.614710 -0.631004
O5    O     O_R   0.316760 0.500000 0.614660 -0.611482
O6    O     O_R   0.683240 0.500000 0.385340 -0.611521
O7    O     O_R   0.316760 0.500020 0.385330 -0.627918
O8    O     O_R   0.683240 0.499980 0.614670 -0.627916
Zn1   Zn    Zn3+2 0.500000 0.499980 0.653120 0.942028
Zn2   Zn    Zn3+2 0.500000 0.500020 0.346880 0.942005
C33   C     C_2   0.855506 0.714574 0.398413 0.386271
H19   H     H_    0.766262 0.737568 0.445018 0.035871
O9    O     O_2   0.889687 0.777488 0.302320 -0.582565
C34   C     C_2   0.144485 0.285444 0.601606 0.386404
H20   H     H_    0.233658 0.262351 0.554899 0.035756
O10   O     O_2   0.110385 0.222659 0.697831 -0.582561

loop_
_geom_bond_atom_site_label_1
_geom_bond_atom_site_label_2
_ccdc_geom_bond_type
O6    Zn2   S    
C34   O10   D    
C33   O9    D    
O5    Zn1   S    
C6    C31   A    
C14   C16   A    
C15   N1    A    
C27   C29   A    
C13   N2    A    
C20   H6    S    
C19   H5    S    
C26   C28   A    
C14   N1    A    
C21   H7    S    
C2    O4    A    
C5    C32   A    
C22   H8    S    
C7    C9    A    
C28   C30   A    
C34   H20   S    
C1    O3    A    
C20   C30   A    
C16   H4    S    
C3    C31   A    
N1    Zn1   S    
C9    C11   A    
C30   H2    S    
C14   H18   S    
C1    C12   S    
C10   C12   A    
C17   O7    A    
C8    C11   A    
C13   H17   S    
C6    C23   S    
C7    H13   S    
C18   O8    A    
C19   C21   A    
C20   C22   A    
C9    H15   S    
C8    H14   S    
C13   C15   A    
C21   C23   A    
C10   H16   S    
C7    C12   A    
C22   C24   A    
C4    C6    A    
C25   C27   A    
C4    C17   S    
C4    C32   A    
C19   C29   A    
O3    Zn2   S    
C27   H11   S    
C31   C33   S    
C23   C25   A    
C26   H10   S    
C3    C18   S    
C32   C34   S    
C2    O2    A    
C25   H9    S    
C16   N2    A    
C15   H3    S    
C1    O1    A    
O4    Zn1   S    
C5    C24   S    
O7    Zn2   S    
C2    C11   S    
O2    Zn2   S    
C17   O5    A    
O1    Zn1   S    
N2    Zn2   S    
C8    C10   A    
C18   O6    A    
C33   H19   S    
C29   H1    S    
C24   C26   A    
O8    Zn1   S    
C3    C5    A    
C28   H12   S    
