data_mof_unit_30837.cif
_audit_creation_date              2013-03-05T16:16:21-0500
_audit_creation_method            fapswitch 2.2
_symmetry_space_group_name_H-M    P1
_symmetry_Int_Tables_number       1
_space_group_crystal_system       triclinic
_cell_length_a                    27.871387
_cell_length_b                    15.858571
_cell_length_c                    14.617785
_cell_angle_alpha                 89.997401
_cell_angle_beta                  90.037901
_cell_angle_gamma                 90.651425
_cell_volume                      6460.6473618

loop_
_atom_site_label
_atom_site_type_symbol
_atom_site_description
_atom_site_fract_x
_atom_site_fract_y
_atom_site_fract_z
_atom_type_partial_charge
O1    O     O_R   0.500010 0.379080 0.576170 -0.579765
O2    O     O_R   0.499990 0.620920 0.423830 -0.579664
O3    O     O_R   0.500000 0.379080 0.423800 -0.571107
O4    O     O_R   0.500000 0.620920 0.576200 -0.567541
C1    C     C_R   0.500428 0.339472 0.500007 0.796935
C2    C     C_R   0.499263 0.660518 0.500049 0.801456
O5    O     O_R   0.430270 0.500020 0.576180 -0.593529
O6    O     O_R   0.569730 0.499980 0.423820 -0.519938
O7    O     O_R   0.430260 0.500010 0.423810 -0.522240
O8    O     O_R   0.569740 0.499990 0.576190 -0.594072
C3    C     C_R   0.407082 0.500175 0.500081 0.872132
C4    C     C_R   0.592863 0.499467 0.500111 0.880957
Cu1   Cu    Cu3+1 0.500010 0.500000 0.590220 0.965265
Cu2   Cu    Cu3+1 0.499990 0.500000 0.409780 1.021579
C5    C     C_R   0.177496 0.431816 0.499914 0.595432
C6    C     C_R   0.822286 0.564394 0.505835 0.594657
O9    O     O_2   0.202641 0.360189 0.510457 -0.571029
O10   O     O_2   0.797193 0.635110 0.522370 -0.570193
N1    N     N_R   0.201171 0.507253 0.490948 -0.416431
N2    N     N_R   0.798556 0.489864 0.490575 -0.416921
C7    C     C_R   0.176982 0.581182 0.480588 0.595304
C8    C     C_R   0.822707 0.416826 0.474181 0.595266
C9    C     C_R   0.277142 0.538710 0.570202 0.230102
C10   C     C_R   0.722358 0.452810 0.566266 0.231135
C11   C     C_R   0.327587 0.538222 0.572964 0.083169
C12   C     C_R   0.671910 0.454022 0.568989 0.086265
C13   C     C_R   0.328422 0.466946 0.424078 0.340389
C14   C     C_R   0.671564 0.537070 0.427542 0.346069
C15   C     C_R   0.278233 0.475955 0.418199 0.144024
C16   C     C_R   0.721671 0.527438 0.420635 0.143330
C17   C     C_R   0.252751 0.508294 0.492774 0.193201
C18   C     C_R   0.746965 0.488950 0.492001 0.192163
C19   C     C_R   0.101343 0.503554 0.488681 -0.104580
C20   C     C_R   0.898393 0.493549 0.488636 -0.104634
C21   C     C_R   0.127289 0.428544 0.499332 -0.088267
C22   C     C_R   0.872487 0.567621 0.505495 -0.088393
C23   C     C_R   0.102782 0.352035 0.511813 -0.224317
C24   C     C_R   0.897025 0.643010 0.524216 -0.223862
C25   C     C_R   0.126273 0.581104 0.477323 -0.053760
C26   C     C_R   0.873423 0.417046 0.470973 -0.054102
C27   C     C_R   0.353772 0.501336 0.499792 -0.262823
C28   C     C_R   0.646069 0.497384 0.499779 -0.260269
H1    H     H_    0.122241 0.294340 0.524043 0.201070
H2    H     H_    0.877599 0.699697 0.541224 0.201264
C29   C     C_R   0.975252 0.420587 0.480506 0.029136
C30   C     C_R   0.024473 0.576819 0.486808 0.029115
C31   C     C_R   0.973939 0.574480 0.499703 -0.051440
C32   C     C_R   0.025815 0.422027 0.493314 -0.051432
C33   C     C_R   0.949287 0.496227 0.489543 0.011449
C34   C     C_R   0.050451 0.500778 0.489513 0.011354
C35   C     C_R   0.950039 0.346690 0.455429 -0.230646
C36   C     C_R   0.049637 0.652264 0.467727 -0.230441
C37   C     C_R   0.899991 0.344072 0.450121 0.242031
C38   C     C_R   0.099675 0.655293 0.462529 0.241960
O11   O     O_2   0.797492 0.344634 0.461775 -0.516355
O12   O     O_2   0.202156 0.654086 0.474274 -0.517530
C39   C     C_R   0.052820 0.348247 0.511634 0.406458
C40   C     C_R   0.946981 0.646771 0.524179 0.406259
H3    H     H_    0.968781 0.290904 0.433992 0.202609
H4    H     H_    0.030856 0.709359 0.450953 0.202604
C41   C     C_3   0.520337 0.972394 0.578236 -0.301716
C42   C     C_3   0.478852 0.027649 0.421563 -0.299588
C43   C     C_3   0.544106 0.028299 0.504387 0.543880
C44   C     C_3   0.455075 0.971737 0.495414 0.543765
H5    H     H_    0.537676 0.948504 0.641364 0.151145
H6    H     H_    0.461523 0.051620 0.358456 0.149310
H7    H     H_    0.545218 0.948397 0.367020 0.147764
H8    H     H_    0.453981 0.051536 0.632831 0.148524
C45   C     C_1   0.500292 0.249882 0.500026 -0.177368
C46   C     C_1   0.499095 0.750120 0.500133 -0.175374
C47   C     C_3   0.474673 0.027638 0.573575 -0.305261
C48   C     C_3   0.524517 0.972378 0.426229 -0.302249
C49   C     C_3   0.499312 0.082861 0.499822 0.071261
C50   C     C_3   0.499865 0.917157 0.499999 0.070761
C51   C     C_1   0.499911 0.174403 0.499930 0.007295
C52   C     C_1   0.499327 0.825606 0.500088 0.008720
C53   C     C_3   0.528615 0.562668 0.969681 0.336758
C54   C     C_3   0.470985 0.437394 0.030364 0.339562
C55   C     C_3   0.483661 0.574306 0.029804 0.056416
C56   C     C_3   0.515915 0.425695 0.970189 0.052070
N3    N     N_1   0.499980 0.500000 0.274190 -0.153384
N4    N     N_1   0.500020 0.500000 0.725810 -0.167724
C57   C     C_3   0.544749 0.488091 0.030464 0.335779
C58   C     C_3   0.454871 0.511916 0.969453 0.334381
C59   C     C_3   0.499736 0.500220 0.092226 -0.230170
C60   C     C_3   0.499926 0.499842 0.907761 -0.221519
C61   C     C_1   0.499863 0.500121 0.194369 0.296959
C62   C     C_1   0.499986 0.499912 0.805628 0.263012
O13   O     O_3   0.353124 0.428764 0.353227 -0.552074
C63   C     C_3   0.346662 0.339895 0.356989 0.050208
H9    H     H_    0.338311 0.317127 0.286837 0.160374
H10   H     H_    0.316676 0.317870 0.402075 0.134253
C64   C     C_3   0.392619 0.298067 0.388123 -0.757811
H11   H     H_    0.401071 0.317565 0.459263 0.216420
H12   H     H_    0.388056 0.228417 0.386387 0.182952
H13   H     H_    0.422570 0.316281 0.341900 0.278828
O14   O     O_3   0.647023 0.581673 0.361045 -0.548596
C65   C     C_3   0.654481 0.669665 0.373360 0.045529
H14   H     H_    0.662780 0.697923 0.305584 0.157210
H15   H     H_    0.684890 0.686911 0.419853 0.140380
C66   C     C_3   0.609155 0.710200 0.409324 -0.785922
H16   H     H_    0.600522 0.684601 0.478086 0.225691
H17   H     H_    0.614591 0.779495 0.415020 0.187335
H18   H     H_    0.578948 0.697472 0.361601 0.264475
N5    N     N_2   0.465546 0.653457 0.064270 -0.438732
H19   H     H_    0.483297 0.675785 0.121345 0.246988
C67   C     C_3   0.456238 0.717493 0.996196 -0.640763
H20   H     H_    0.434613 0.768309 0.027365 0.211081
H21   H     H_    0.435860 0.690751 0.937485 0.256335
H22   H     H_    0.490353 0.745453 0.970819 0.243095
N6    N     N_2   0.533831 0.346440 0.935619 -0.443879
H23   H     H_    0.515688 0.323950 0.879064 0.245722
C68   C     C_3   0.543516 0.282599 0.003715 -0.639802
H24   H     H_    0.564635 0.231359 0.972092 0.210061
H25   H     H_    0.509546 0.255192 0.030471 0.243067
H26   H     H_    0.564559 0.309368 0.061544 0.260473
O15   O     O_3   0.557389 0.627440 0.931171 -0.575398
C69   C     C_3   0.582965 0.670978 0.000319 0.081088
H27   H     H_    0.611203 0.630814 0.030235 0.180706
H28   H     H_    0.559163 0.692629 0.056203 0.146522
C70   C     C_3   0.607348 0.748145 0.958689 -0.812076
H29   H     H_    0.580053 0.790720 0.929044 0.248059
H30   H     H_    0.627785 0.782858 0.012273 0.200601
H31   H     H_    0.632517 0.728582 0.903974 0.254149
O16   O     O_3   0.442259 0.373062 0.069809 -0.570865
C71   C     C_3   0.416482 0.328886 0.001496 0.081530
H32   H     H_    0.440378 0.304616 0.947083 0.144354
H33   H     H_    0.389060 0.369439 0.969501 0.177325
C72   C     C_3   0.390705 0.254087 0.045154 -0.813522
H34   H     H_    0.365604 0.276379 0.098733 0.250400
H35   H     H_    0.370004 0.218842 0.992349 0.201010
H36   H     H_    0.417187 0.211098 0.076748 0.247981
O17   O     O_3   0.408951 0.523815 0.930795 -0.590575
C73   C     C_3   0.374858 0.539699 0.999991 0.083473
H37   H     H_    0.378576 0.605357 0.025279 0.189976
H38   H     H_    0.378176 0.495817 0.059038 0.174673
C74   C     C_3   0.324709 0.529353 0.960064 -0.832468
H39   H     H_    0.319247 0.463934 0.934727 0.242119
H40   H     H_    0.297500 0.542506 0.013515 0.207093
H41   H     H_    0.319765 0.574015 0.902350 0.261515
O18   O     O_3   0.590842 0.476023 0.068307 -0.574457
C75   C     C_3   0.624597 0.460699 0.998292 0.082882
H42   H     H_    0.621271 0.505579 0.940163 0.162298
H43   H     H_    0.620480 0.395553 0.971696 0.187865
C76   C     C_3   0.674956 0.469585 0.037534 -0.819790
H44   H     H_    0.680177 0.422668 0.092952 0.255367
H45   H     H_    0.701857 0.458434 0.982971 0.202941
H46   H     H_    0.680585 0.533982 0.065697 0.248062
N7    N     N_2   0.252763 0.453527 0.337020 -0.397693
H47   H     H_    0.264090 0.399575 0.304943 0.260314
C77   C     C_3   0.246716 0.522508 0.273527 -0.659814
H48   H     H_    0.224102 0.501270 0.215173 0.214697
H49   H     H_    0.282166 0.543848 0.246839 0.235117
H50   H     H_    0.228603 0.576156 0.307302 0.244563
N8    N     N_2   0.747219 0.555459 0.341625 -0.398075
H51   H     H_    0.735753 0.611240 0.313672 0.260969
C78   C     C_3   0.753513 0.490908 0.272973 -0.657537
H52   H     H_    0.775626 0.516406 0.215961 0.215896
H53   H     H_    0.718095 0.470383 0.245416 0.241243
H54   H     H_    0.772234 0.435719 0.302302 0.243596
N9    N     N_2   0.648332 0.411186 0.642186 -0.431119
H55   H     H_    0.626093 0.447327 0.681995 0.280864
C79   C     C_3   0.629718 0.328173 0.619931 -0.612841
H56   H     H_    0.600781 0.332401 0.568034 0.221901
H57   H     H_    0.614868 0.298070 0.682535 0.220721
H58   H     H_    0.658846 0.287862 0.593024 0.233272
N10   N     N_2   0.350725 0.574662 0.650623 -0.421733
H59   H     H_    0.372630 0.535311 0.687460 0.293363
C80   C     C_3   0.369038 0.659545 0.637739 -0.603927
H60   H     H_    0.398395 0.660511 0.586496 0.224252
H61   H     H_    0.383232 0.684077 0.703670 0.224055
H62   H     H_    0.339877 0.701622 0.614364 0.226688
N11   N     N_2   0.748919 0.414172 0.637909 -0.388762
H63   H     H_    0.734135 0.358518 0.661823 0.282258
C81   C     C_3   0.762418 0.470918 0.711179 -0.676648
H64   H     H_    0.785149 0.437088 0.761281 0.219875
H65   H     H_    0.729911 0.494091 0.746836 0.227028
H66   H     H_    0.783369 0.525409 0.684156 0.245547
N12   N     N_2   0.250337 0.570881 0.645184 -0.389978
H67   H     H_    0.264564 0.625093 0.673758 0.281840
C82   C     C_3   0.237793 0.508405 0.713392 -0.676828
H68   H     H_    0.214813 0.537518 0.766465 0.221213
H69   H     H_    0.270701 0.483968 0.746693 0.230872
H70   H     H_    0.217435 0.455297 0.681843 0.245713
N13   N     N_2   0.877120 0.267734 0.421734 -0.373818
H71   H     H_    0.893685 0.214171 0.445594 0.245774
C83   C     C_3   0.867918 0.263414 0.324413 -0.618870
H72   H     H_    0.847394 0.204791 0.308604 0.226907
H73   H     H_    0.902310 0.262695 0.285967 0.199110
H74   H     H_    0.846375 0.318151 0.301781 0.235342
N14   N     N_2   0.122503 0.733408 0.440408 -0.373918
H75   H     H_    0.105913 0.785160 0.468510 0.245670
C84   C     C_3   0.131713 0.744417 0.343719 -0.618779
H76   H     H_    0.152205 0.803997 0.332716 0.226873
H77   H     H_    0.097323 0.747713 0.305391 0.199393
H78   H     H_    0.153290 0.691424 0.316761 0.235206
O19   O     O_3   0.031357 0.271971 0.533732 -0.594984
C85   C     C_3   0.020406 0.271931 0.628025 0.059102
H79   H     H_    0.997257 0.326145 0.646720 0.145008
H80   H     H_    0.053921 0.274477 0.669557 0.145795
C86   C     C_3   0.993235 0.191105 0.651437 -0.773414
H81   H     H_    0.015530 0.135522 0.634985 0.252285
H82   H     H_    0.984507 0.190122 0.725541 0.197936
H83   H     H_    0.959329 0.187486 0.611550 0.245603
O20   O     O_3   0.968493 0.721268 0.552414 -0.594924
C87   C     C_3   0.979606 0.714670 0.646375 0.059787
H84   H     H_    0.002755 0.659270 0.660419 0.144959
H85   H     H_    0.946160 0.709264 0.687756 0.145770
C88   C     C_3   0.006864 0.793581 0.676240 -0.774806
H86   H     H_    0.984578 0.850192 0.664531 0.251977
H87   H     H_    0.015714 0.789355 0.750164 0.198094
H88   H     H_    0.040707 0.799934 0.636589 0.245420
O21   O     O_3   0.590382 0.064987 0.509089 -0.575282
C89   C     C_3   0.624960 0.000851 0.512280 0.052968
H89   H     H_    0.623362 0.961153 0.449516 0.136344
H90   H     H_    0.619792 0.960271 0.573713 0.140786
C90   C     C_3   0.674666 0.041082 0.517863 -0.752042
H91   H     H_    0.677645 0.080579 0.580411 0.247220
H92   H     H_    0.702281 0.991210 0.520551 0.199922
H93   H     H_    0.681273 0.081232 0.456790 0.254074
O22   O     O_3   0.408753 0.935215 0.490784 -0.574511
C91   C     C_3   0.374278 0.999510 0.486971 0.051730
H94   H     H_    0.379378 0.039296 0.424908 0.136315
H95   H     H_    0.376088 0.039984 0.549128 0.139533
C92   C     C_3   0.324479 0.959536 0.482423 -0.748682
H96   H     H_    0.317994 0.920003 0.544016 0.250120
H97   H     H_    0.296956 0.009555 0.479498 0.198350
H98   H     H_    0.321209 0.919491 0.420341 0.252145

loop_
_geom_bond_atom_site_label_1
_geom_bond_atom_site_label_2
_geom_bond_distance
_ccdc_geom_bond_type
C14   O14   1.386768 S    
C64   H11   1.109303 S    
C13   C15   1.410306 A    
C49   C51   1.451629 S    
C80   H60   1.109668 S    
N6    H23   1.030403 S    
N1    C17   1.437749 S    
C92   H98   1.110755 S    
C73   C74   1.521491 S    
C10   C18   1.403340 A    
O14   C65   1.419937 S    
N13   H71   1.032007 S    
C8    O11   1.348721 S    
C32   C39   1.423729 A    
C81   H65   1.111661 S    
O21   C89   1.409857 S    
C11   N10   1.424480 S    
C90   H93   1.110774 S    
O5    C3    1.286154 A    
C74   H40   1.110616 S    
C19   C25   1.415474 A    
C50   C52   1.451769 S    
O1    C1    1.278456 A    
C67   H22   1.108674 S    
N1    C7    1.367410 A    
C58   C60   1.560073 S    
C68   H24   1.109852 S    
C53   O15   1.413148 S    
N7    C77   1.445820 S    
C76   H44   1.110524 S    
C55   C58   1.543439 S    
C60   C62   1.492972 S    
N13   C83   1.446878 S    
C25   C38   1.414275 A    
N8    C78   1.445761 S    
C29   C35   1.408008 A    
C65   H14   1.110744 S    
C30   C36   1.407957 A    
C88   H88   1.111017 S    
C78   H54   1.110011 S    
C55   N5    1.448833 S    
C88   H86   1.110684 S    
C2    C46   1.421023 S    
H7    C48   1.110091 S    
C86   H81   1.110684 S    
C44   C47   1.542057 S    
O4    Cu1   1.928533 S    
C41   C43   1.541990 S    
C37   N13   1.423455 S    
C69   H27   1.107825 S    
C83   H74   1.111328 S    
C56   C60   1.557325 S    
C36   H4    1.079135 S    
C66   H18   1.109769 S    
C19   C21   1.407699 A    
C24   C40   1.392951 A    
O18   C75   1.413552 S    
C78   H52   1.110341 S    
C79   H56   1.109442 S    
C84   H77   1.111660 S    
C42   C44   1.542169 S    
C77   H48   1.110324 S    
C42   C49   1.545444 S    
C13   O13   1.386997 S    
C85   H79   1.114885 S    
O19   C85   1.411946 S    
C9    N12   1.424642 S    
C6    N2    1.366096 A    
C68   H26   1.110191 S    
C41   C47   1.554746 S    
N11   C81   1.445821 S    
O16   C71   1.411304 S    
C74   H39   1.110430 S    
C66   H17   1.110732 S    
N11   H63   1.030943 S    
Cu1   Cu2   2.637633 S    
N12   C82   1.445843 S    
C44   C50   1.528582 S    
C86   H82   1.110442 S    
C75   C76   1.520976 S    
O2    C2    1.279252 A    
O6    Cu2   1.954424 S    
C56   C57   1.543494 S    
C10   N11   1.424585 S    
C5    C21   1.399742 A    
N9    C79   1.446497 S    
C36   C38   1.397017 A    
N9    H55   1.029506 S    
C81   H66   1.110222 S    
C82   H69   1.111699 S    
C64   H12   1.110700 S    
C74   H41   1.111035 S    
C58   O17   1.413307 S    
C70   H30   1.110569 S    
C38   N14   1.423482 S    
C42   H6    1.110083 S    
C59   C61   1.493113 S    
C4    C28   1.483674 S    
N14   H75   1.032010 S    
C66   H16   1.109544 S    
C79   H58   1.111172 S    
C31   C33   1.419394 A    
C11   C27   1.424668 A    
N10   H59   1.029725 S    
C47   C49   1.545346 S    
C89   H89   1.113294 S    
C73   H38   1.113174 S    
C43   C49   1.528492 S    
C40   O20   1.381735 S    
C19   C34   1.418662 A    
C82   H68   1.110252 S    
C1    C45   1.420725 S    
Cu1   N4    1.982025 S    
C89   C90   1.520757 S    
N10   C80   1.446550 S    
C35   C37   1.397166 A    
C69   C70   1.520301 S    
C9    C17   1.402643 A    
C23   H1    1.083691 S    
C5    N1    1.365997 A    
O7    Cu2   1.954397 S    
N14   C84   1.446873 S    
C24   H2    1.083693 S    
O22   C91   1.410045 S    
C54   C58   1.550039 S    
N5    C67   1.447180 S    
C13   C27   1.418386 A    
C71   C72   1.520418 S    
C63   H10   1.117542 S    
C81   H64   1.110256 S    
C7    C25   1.414077 A    
C29   C33   1.414190 A    
O6    C4    1.287876 A    
C84   H78   1.111327 S    
C8    C26   1.414299 A    
C85   C86   1.520460 S    
C92   H96   1.110835 S    
C53   C55   1.543716 S    
C42   C48   1.555033 S    
N6    C68   1.447227 S    
C43   O21   1.410518 S    
C91   H95   1.113251 S    
C32   C34   1.419447 A    
O7    C3    1.288925 A    
C70   H29   1.110686 S    
N3    C61   1.166812 T    
O3    Cu2   1.928534 S    
O8    C4    1.285794 A    
C77   H50   1.110220 S    
C54   C59   1.559965 S    
C48   C50   1.545651 S    
C16   N8    1.425572 S    
C57   C59   1.559821 S    
N2    C8    1.367504 A    
C53   C60   1.559579 S    
C26   C37   1.414327 A    
C64   H13   1.109982 S    
C65   H15   1.117598 S    
C46   C52   1.197049 T    
O17   C73   1.412874 S    
C86   H83   1.111015 S    
C75   H43   1.108583 S    
O4    C2    1.278310 A    
O1    Cu1   1.928596 S    
C67   H20   1.109828 S    
C22   C24   1.397561 A    
C54   C56   1.543723 S    
C55   C59   1.557257 S    
C76   H46   1.110558 S    
C12   C28   1.423167 A    
C63   C64   1.518676 S    
C57   O18   1.413392 S    
C72   H34   1.110953 S    
N2    C18   1.437988 S    
C29   C32   1.421443 A    
C21   C23   1.397587 A    
C5    O9    1.350236 S    
O20   C87   1.411935 S    
C30   C31   1.421216 A    
C88   H87   1.110442 S    
C20   C33   1.418681 A    
C71   H33   1.107764 S    
C82   H70   1.110319 S    
C39   O19   1.381725 S    
C87   H84   1.114888 S    
C10   C12   1.406989 A    
O3    C1    1.278948 A    
O8    Cu1   1.954397 S    
C7    O12   1.348751 S    
C78   H53   1.111246 S    
H8    C47   1.110029 S    
C73   H37   1.108654 S    
C41   C50   1.545539 S    
C90   H92   1.110525 S    
C65   C66   1.518192 S    
N5    H19   1.030393 S    
C30   C34   1.414141 A    
C12   N9    1.424403 S    
C91   C92   1.520731 S    
C72   H36   1.110764 S    
C14   C16   1.410292 A    
C90   H91   1.110854 S    
C83   H72   1.110258 S    
C15   C17   1.401827 A    
O15   C69   1.412244 S    
C6    C22   1.399546 A    
C31   C40   1.423659 A    
C16   C18   1.402332 A    
C54   O16   1.412891 S    
C87   C88   1.520455 S    
C63   H9    1.110826 S    
C67   H21   1.110351 S    
C71   H32   1.109484 S    
N4    C62   1.166757 T    
C76   H45   1.110596 S    
C56   N6    1.448837 S    
C14   C28   1.416629 A    
C92   H97   1.110535 S    
C20   C22   1.407655 A    
C44   O22   1.410568 S    
C45   C51   1.196927 T    
C89   H90   1.113258 S    
C77   H49   1.111693 S    
C91   H94   1.113304 S    
O2    Cu2   1.928593 S    
C69   H28   1.109611 S    
C83   H73   1.111661 S    
C15   N7    1.425405 S    
N12   H67   1.030959 S    
C41   H5    1.110035 S    
O5    Cu1   1.954424 S    
C9    C11   1.406632 A    
C35   H3    1.079109 S    
C43   C48   1.542113 S    
C6    O10   1.350283 S    
C84   H76   1.110263 S    
C3    C27   1.486164 S    
N8    H51   1.028517 S    
C70   H31   1.110751 S    
C53   C57   1.549789 S    
C75   H42   1.112886 S    
C20   C26   1.415466 A    
C79   H57   1.110245 S    
C85   H80   1.114082 S    
C80   H62   1.111096 S    
Cu2   N3    1.982025 S    
C68   H25   1.108777 S    
O13   C63   1.419840 S    
N7    H47   1.028563 S    
C87   H85   1.114076 S    
C23   C39   1.393127 A    
C72   H35   1.110510 S    
C80   H61   1.110282 S    
