data_mof_unit_21896.cif
_audit_creation_date              2012-12-11T15:39:01-0500
_audit_creation_method            fapswitch 2.2
_symmetry_space_group_name_H-M    P1
_symmetry_Int_Tables_number       1
_space_group_crystal_system       triclinic
_cell_length_a                    14.351646
_cell_length_b                    14.793552
_cell_length_c                    33.182616
_cell_angle_alpha                 97.594825
_cell_angle_beta                  90.342065
_cell_angle_gamma                 118.916916
_cell_volume                      6092.74209687

loop_
_atom_site_label
_atom_site_type_symbol
_atom_type_description
_atom_site_fract_x
_atom_site_fract_y
_atom_site_fract_z
_atom_type_partial_charge
C1    C     C_R   0.616929 0.910298 0.437016 0.543717
C2    C     C_R   0.712389 0.438064 0.949151 0.533211
C3    C     C_R   0.754678 0.819479 0.765628 -0.114977
C4    C     C_R   0.747405 0.840499 0.726525 -0.114946
C5    C     C_R   0.686241 0.759192 0.694669 0.032821
C6    C     C_R   0.632871 0.655622 0.702910 -0.111889
C7    C     C_R   0.640085 0.634443 0.742433 -0.110846
C8    C     C_R   0.701196 0.716515 0.774117 0.032881
C9    C     C_R   0.571052 0.735002 0.632846 -0.119536
C10   C     C_R   0.553579 0.771260 0.598388 -0.126807
C11   C     C_R   0.739386 0.905628 0.604645 -0.128635
C12   C     C_2   0.109303 0.014744 0.195176 0.566860
C13   C     C_R   0.743508 0.716471 0.945935 0.566424
C14   C     C_R   0.829878 0.440468 0.165292 -0.118345
C15   C     C_R   0.827778 0.453446 0.124490 -0.124157
C16   C     C_R   0.781575 0.356712 0.246730 -0.112117
C17   C     C_R   0.774519 0.344242 0.287674 -0.109638
C18   C     C_R   0.733710 0.396345 0.314237 0.031249
C19   C     C_R   0.705919 0.465699 0.299726 -0.112845
C20   C     C_R   0.712439 0.477679 0.258762 -0.110594
C21   C     C_R   0.747269 0.420853 0.231790 0.029835
C22   C     C_R   0.742452 0.424828 0.187863 0.030814
C23   C     C_R   0.607339 0.346458 0.368656 -0.116260
C24   C     C_R   0.594094 0.205669 0.456670 0.544406
C25   C     C_R   0.572781 0.299454 0.403325 -0.125197
C26   C     C_R   0.740960 0.300737 0.413179 -0.126456
C27   C     C_R   0.775610 0.348041 0.378563 -0.121517
C28   C     C_R   0.707467 0.367585 0.355162 0.032461
C29   C     C_R   0.637648 0.272419 0.424927 0.021752
C30   C     C_R   0.245207 0.878337 0.393318 0.020586
C31   C     C_R   0.231885 0.959164 0.380941 -0.131461
C32   C     C_R   0.208497 0.957464 0.339836 -0.106429
C33   C     C_R   0.757131 0.868580 0.638873 -0.119115
C34   C     C_R   0.197536 0.874829 0.310707 0.035789
C35   C     C_R   0.203696 0.790826 0.322995 -0.120436
C36   C     C_R   0.295684 0.892836 0.434377 0.542148
C37   C     C_R   0.227136 0.792317 0.364079 -0.125602
C38   C     C_R   0.191554 0.806834 0.163955 -0.145906
C39   C     C_R   0.162899 0.783072 0.122230 -0.130570
C40   C     C_R   0.098719 0.908093 0.128338 -0.136579
C41   C     C_R   0.127741 0.933485 0.170667 0.065329
C42   C     C_R   0.170024 0.877825 0.188593 0.018251
C43   C     C_1   0.180444 0.881231 0.232028 0.037548
C44   C     C_R   0.672276 0.785212 0.654189 0.033344
C45   C     C_1   0.187440 0.879261 0.268039 0.008723
C46   C     C_R   0.111340 0.829524 0.104344 -0.008339
C47   C     C_R   0.637461 0.878743 0.395468 0.020234
C48   C     C_R   0.613902 0.904766 0.551556 0.543457
C49   C     C_R   0.552658 0.800315 0.368405 -0.129754
C50   C     C_R   0.564817 0.788334 0.326675 -0.117176
C51   C     C_R   0.661849 0.853892 0.311738 0.038405
C52   C     C_R   0.748911 0.926762 0.338686 -0.112790
C53   C     C_R   0.736971 0.939056 0.380394 -0.125984
C54   C     C_R   0.776903 0.921508 0.174428 -0.097934
C55   C     C_R   0.636764 0.859011 0.584708 0.019374
C56   C     C_R   0.792207 0.908121 0.133007 -0.114052
C57   C     C_R   0.618610 0.751664 0.121586 -0.124911
C58   C     C_R   0.603517 0.765315 0.162918 -0.114871
C59   C     C_R   0.684246 0.847977 0.189542 0.029996
C60   C     C_R   0.589822 0.199666 0.570815 0.541478
C61   C     C_1   0.676115 0.851244 0.232608 -0.028420
C62   C     C_1   0.669772 0.851955 0.268701 -0.027824
C63   C     C_R   0.715079 0.820391 0.106563 0.011932
C64   C     C_R   0.624090 0.252039 0.613473 0.019867
C65   C     C_R   0.560060 0.285068 0.635830 -0.129278
C66   C     C_R   0.052111 0.781312 0.063830 0.548281
C67   C     C_R   0.577788 0.311423 0.678189 -0.116572
C68   C     C_R   0.659686 0.305334 0.698540 0.041405
C69   C     C_R   0.728587 0.280016 0.676372 -0.114349
C70   C     C_R   0.711281 0.253935 0.633998 -0.129453
C71   C     C_R   0.764324 0.349176 0.844648 -0.115917
C72   C     C_R   0.288859 0.886704 0.548436 0.544483
C73   C     C_R   0.773066 0.373406 0.887072 -0.129008
C74   C     C_R   0.594470 0.352100 0.884608 -0.125857
C75   C     C_R   0.585966 0.327828 0.842195 -0.113285
C76   C     C_R   0.672324 0.330143 0.822163 0.042135
C77   C     C_R   0.743975 0.486862 0.066229 0.546587
C78   C     C_1   0.669605 0.321399 0.778621 -0.031546
C79   C     C_1   0.666538 0.315383 0.742126 -0.032234
C80   C     C_R   0.690088 0.379929 0.907343 0.021756
C81   C     C_R   0.064028 0.751025 0.907513 0.021770
C82   C     C_R   0.102030 0.849595 0.895565 -0.142669
C83   C     C_R   0.117449 0.860980 0.854730 -0.127868
C84   C     C_R   0.737947 0.450472 0.105780 0.020402
C85   C     C_R   0.095125 0.773914 0.825472 0.031103
C86   C     C_R   0.063865 0.676953 0.837983 -0.117802
C87   C     C_R   0.049100 0.665741 0.878727 -0.120101
C88   C     C_R   0.742880 0.789233 0.066390 0.553267
C89   C     C_R   0.142592 0.730522 0.756428 -0.113258
C90   C     C_R   0.146651 0.737513 0.715107 -0.111246
C91   C     C_R   0.108016 0.796501 0.698333 0.032957
C92   C     C_R   0.063442 0.846993 0.723456 -0.109556
C93   C     C_R   0.059690 0.840247 0.764952 -0.109985
C94   C     C_R   0.099912 0.782446 0.781780 0.032978
C95   C     C_R   0.174279 0.917484 0.647181 -0.120896
C96   C     C_R   0.647895 0.427646 0.127786 -0.122170
C97   C     C_R   0.219961 0.939975 0.610391 -0.129236
C98   C     C_R   0.163121 0.756346 0.589269 -0.128015
C99   C     C_R   0.021463 0.732013 0.947353 0.532115
C100  C     C_R   0.116678 0.733792 0.625876 -0.121908
C101  C     C_R   0.127390 0.815010 0.655990 0.032212
C102  C     C_R   0.219798 0.860278 0.582224 0.022075
C103  C     C_R   0.728194 0.701547 0.901118 0.016576
C104  C     C_R   0.629377 0.635915 0.878608 -0.124226
C105  C     C_R   0.620355 0.634979 0.836292 -0.115926
C106  C     C_R   0.710407 0.698289 0.816392 0.032564
C107  C     C_R   0.809949 0.755673 0.838690 -0.114514
C108  C     C_R   0.650340 0.415309 0.168521 -0.117171
C109  C     C_R   0.818300 0.758349 0.880433 -0.123071
Cr1   Cr    Cr6+3 0.424820 0.846020 0.489780 1.009343
Cr2   Cr    Cr6+3 0.657880 0.078580 0.505700 1.008481
Cr3   Cr    Cr6+3 0.417280 0.075360 0.504550 1.009138
Cr4   Cr    Cr6+3 0.903360 0.812540 0.006510 1.010638
Cr5   Cr    Cr6+3 0.914630 0.587050 0.006280 1.006488
Cr6   Cr    Cr6+3 0.673560 0.582680 0.008540 1.011763
H1    H     H_    0.577317 0.424339 0.114180 0.132559
H2    H     H_    0.060025 0.944985 0.114487 0.160561
H3    H     H_    0.898458 0.471113 0.108304 0.129576
H4    H     H_    0.203437 0.022637 0.330600 0.131273
H5    H     H_    0.867429 0.962027 0.122358 0.160673
H6    H     H_    0.839554 0.985970 0.194961 0.152524
H7    H     H_    0.824499 0.977376 0.327298 0.112678
H8    H     H_    0.803782 0.999921 0.400476 0.126692
H9    H     H_    0.474939 0.752979 0.379021 0.126001
H10   H     H_    0.531346 0.708333 0.174419 0.107921
H11   H     H_    0.557630 0.683577 0.101920 0.124634
H12   H     H_    0.492928 0.278863 0.411752 0.127500
H13   H     H_    0.497157 0.731403 0.305921 0.106523
H14   H     H_    0.847848 0.394627 0.903602 0.124067
H15   H     H_    0.853821 0.365204 0.369080 0.103418
H16   H     H_    0.831401 0.350686 0.829311 0.103272
H17   H     H_    0.792414 0.275471 0.691959 0.105668
H18   H     H_    0.762041 0.228908 0.617700 0.126867
H19   H     H_    0.492539 0.284746 0.620926 0.123579
H20   H     H_    0.514239 0.312713 0.824932 0.103994
H21   H     H_    0.529265 0.356708 0.899186 0.126981
H22   H     H_    0.524428 0.331533 0.695195 0.099697
H23   H     H_    0.901478 0.447496 0.179708 0.107260
H24   H     H_    0.114114 0.916351 0.917383 0.117648
H25   H     H_    0.018521 0.588563 0.887086 0.124494
H26   H     H_    0.078722 0.653851 0.631794 0.105321
H27   H     H_    0.795052 0.289116 0.297944 0.107151
H28   H     H_    0.184252 0.700298 0.696607 0.103528
H29   H     H_    0.175490 0.686747 0.768754 0.101792
H30   H     H_    0.143758 0.936999 0.845842 0.104947
H31   H     H_    0.033177 0.892865 0.711110 0.099007
H32   H     H_    0.025529 0.880335 0.783797 0.090329
H33   H     H_    0.183843 0.981515 0.670000 0.102167
H34   H     H_    0.793277 0.282063 0.429614 0.123770
H35   H     H_    0.262531 0.020722 0.605487 0.126626
H36   H     H_    0.045272 0.608402 0.815982 0.102804
H37   H     H_    0.159978 0.693273 0.567547 0.124769
H38   H     H_    0.558931 0.589764 0.893802 0.122573
H39   H     H_    0.808514 0.312155 0.226343 0.109290
H40   H     H_    0.895379 0.808524 0.896939 0.138026
H41   H     H_    0.836665 0.907447 0.654186 0.100223
H42   H     H_    0.786830 0.921262 0.721641 0.099935
H43   H     H_    0.800405 0.884668 0.789622 0.102068
H44   H     H_    0.542572 0.589517 0.819637 0.101652
H45   H     H_    0.174306 0.722743 0.104492 0.134148
H46   H     H_    0.585423 0.591240 0.678879 0.100395
H47   H     H_    0.598701 0.554375 0.748191 0.101361
H48   H     H_    0.503839 0.671405 0.644030 0.101174
H49   H     H_    0.473485 0.733393 0.583627 0.129157
H50   H     H_    0.880966 0.803050 0.824121 0.106609
H51   H     H_    0.581068 0.400717 0.185247 0.113300
H52   H     H_    0.805297 0.972408 0.594475 0.123784
H53   H     H_    0.675774 0.507862 0.319764 0.106759
H54   H     H_    0.687847 0.529429 0.247885 0.110996
H55   H     H_    0.552721 0.359749 0.350942 0.108184
H56   H     H_    0.224801 0.764694 0.177443 0.112048
H57   H     H_    0.135634 0.110296 0.248434 0.331979
H58   H     H_    0.194936 0.726292 0.300612 0.104834
H59   H     H_    0.237246 0.729136 0.372512 0.124435
H60   H     H_    0.245438 0.026631 0.402635 0.124309
O1    O     O_R   0.318160 0.824460 0.443680 -0.521638
O2    O     O_R   0.668160 0.499860 0.053480 -0.516234
O3    O     O_R   0.689170 0.693840 0.050110 -0.494623
O4    O     O_R   0.525040 0.857250 0.449830 -0.502603
O5    O     O_R   0.803860 0.812940 0.962540 -0.509885
O6    O     O_R   0.982950 0.787950 0.964120 -0.527424
O7    O     O_R   0.007050 0.649970 0.960540 -0.516358
O8    O     O_R   0.807910 0.482370 0.965590 -0.504547
O9    O     O_R   0.643310 0.460980 0.963840 -0.525499
O10   O     O_R   0.666140 0.657800 0.967020 -0.499290
O11   O     O_3   0.830520 0.660760 0.007110 -0.262521
O12   O     O_R   0.645130 0.163230 0.552140 -0.502514
O13   O     O_R   0.684760 0.998800 0.456360 -0.518258
O14   O     O_R   0.647540 0.166310 0.470260 -0.501565
O15   O     O_R   0.500960 0.181750 0.467450 -0.519794
O16   O     O_R   0.331100 0.981120 0.457080 -0.500977
O17   O     O_R   0.315560 0.821140 0.532010 -0.520310
O18   O     O_R   0.522630 0.854180 0.531710 -0.501169
O19   O     O_R   0.682160 0.995480 0.544690 -0.519231
O20   O     O_2   0.056237 0.047777 0.179901 -0.565087
O21   O     O_R   0.154061 0.055627 0.235342 -0.707956
O22   O     O_R   0.498360 0.178430 0.555780 -0.520057
O23   O     O_R   0.328690 0.978040 0.538950 -0.501739
O24   O     O_3   0.499990 0.999990 0.500010 -0.233382
O25   O     O_R   0.828710 0.851830 0.052170 -0.512520
O26   O     O_R   0.005980 0.823990 0.047210 -0.499976
O27   O     O_R   0.031900 0.688850 0.050170 -0.513482
O28   O     O_R   0.830940 0.518420 0.048680 -0.498253

loop_
_geom_bond_atom_site_label_1
_geom_bond_atom_site_label_2
_ccdc_geom_bond_type
C48   C55   S    
C107  H50   S    
C16   C21   A    
C71   H16   S    
C63   C88   S    
Cr6   O2    S    
C36   O16   A    
C107  C109  A    
C41   C42   A    
C19   C20   A    
C87   H25   S    
C22   C108  A    
C81   C82   A    
C57   C58   A    
C33   H41   S    
C7    C8    A    
C47   C49   A    
C31   H60   S    
C85   C86   A    
C40   C46   A    
C26   C27   A    
C93   C94   A    
C35   C37   A    
C76   C78   S    
C46   C66   S    
C100  H26   S    
C5    C6    A    
C39   H45   S    
C75   H20   S    
C106  C107  A    
Cr5   O8    S    
C17   C18   A    
C34   C35   A    
C84   C96   A    
C89   C94   A    
C9    H48   S    
C24   C29   S    
C92   C93   A    
C99   O7    A    
Cr2   O24   S    
C37   H59   S    
C83   H30   S    
C66   O26   A    
C52   H7    S    
C73   C80   A    
Cr4   O6    S    
C14   H23   S    
C16   C17   A    
C65   C67   A    
C74   H21   S    
C3    H43   S    
C97   H35   S    
Cr5   O27   S    
C93   H32   S    
C24   O14   A    
C64   C70   A    
C104  H38   S    
C13   C103  S    
C9    C10   A    
Cr3   O24   S    
C90   H28   S    
C47   C53   A    
C68   C79   S    
C20   H54   S    
C96   C108  A    
C74   C80   A    
C21   C22   S    
C11   H52   S    
C56   H5    S    
C61   C62   T    
C51   C62   S    
C91   C101  S    
C109  H40   S    
C77   O28   A    
Cr3   O23   S    
C104  C105  A    
C60   C64   S    
C57   C63   A    
C6    C7    A    
C54   C56   A    
C54   C59   A    
C25   C29   A    
C7    H47   S    
C73   H14   S    
C59   C61   S    
C13   O10   A    
C74   C75   A    
C92   H31   S    
C51   C52   A    
C35   H58   S    
C38   H56   S    
C18   C28   S    
C3    C8    A    
C53   H8    S    
C91   C92   A    
C71   C73   A    
Cr6   O11   S    
C78   C79   T    
C18   C19   A    
C98   H37   S    
C81   C99   S    
C77   C84   S    
C58   C59   A    
Cr5   O7    S    
C49   H9    S    
C72   O23   A    
C82   C83   A    
C4    H42   S    
C77   O2    A    
C67   C68   A    
C30   C37   A    
C17   H27   S    
C32   C34   A    
C75   C76   A    
C82   H24   S    
C5    C44   S    
C70   H18   S    
C85   C94   S    
C12   O21   S    
C31   C32   A    
C14   C15   A    
C6    H46   S    
C11   C33   A    
C30   C31   A    
Cr1   O18   S    
C50   C51   A    
Cr2   O13   S    
C56   C63   A    
C34   C45   S    
C2    O9    A    
C23   C28   A    
C88   O3    A    
C10   C55   A    
C43   C45   T    
C81   C87   A    
C60   O22   A    
C58   H10   S    
C39   C46   A    
C40   C41   A    
C83   C85   A    
C54   H6    S    
Cr2   O14   S    
C60   O12   A    
Cr4   O26   S    
C16   H39   S    
C12   O20   D    
H57   O21   S    
C50   H13   S    
C19   H53   S    
C32   H4    S    
C3    C4    A    
C13   O5    A    
Cr6   O9    S    
Cr3   O22   S    
C57   H11   S    
C11   C55   A    
C52   C53   A    
C12   C41   S    
C1    O13   A    
C108  H51   S    
C9    C44   A    
C10   H49   S    
C48   O19   A    
Cr1   O24   S    
C86   C87   A    
C33   C44   A    
C68   C69   A    
C26   H34   S    
C1    C47   S    
C95   H33   S    
C97   C102  A    
C4    C5    A    
C48   O18   A    
C8    C106  S    
C71   C76   A    
C95   C97   A    
C36   O1    A    
C15   C84   A    
Cr1   O1    S    
C89   H29   S    
C105  C106  A    
Cr2   O12   S    
Cr5   O11   S    
C15   H3    S    
C30   C36   S    
C103  C109  A    
C64   C65   A    
C14   C22   A    
C25   H12   S    
C98   C102  A    
C86   H36   S    
Cr3   O16   S    
C1    O4    A    
C88   O25   A    
C90   C91   A    
C38   C39   A    
C23   H55   S    
C72   C102  S    
Cr1   O4    S    
C69   H17   S    
Cr6   O10   S    
Cr4   O11   S    
Cr1   O17   S    
C100  C101  A    
Cr4   O25   S    
C40   H2    S    
C65   H19   S    
C2    O8    A    
C23   C25   A    
C69   C70   A    
C67   H22   S    
C98   C100  A    
C99   O6    A    
Cr6   O3    S    
C2    C80   S    
C105  H44   S    
Cr2   O19   S    
Cr3   O15   S    
C66   O27   A    
C38   C42   A    
Cr4   O5    S    
C20   C21   A    
C26   C29   A    
C49   C50   A    
C42   C43   S    
C103  C104  A    
C27   H15   S    
Cr5   O28   S    
C96   H1    S    
C24   O15   A    
C89   C90   A    
C72   O17   A    
C95   C101  A    
C27   C28   A    
