data_mof_unit_23598.cif
_audit_creation_date              2012-10-26T17:12:33-0400
_audit_creation_method            fapswitch 2.2
_symmetry_space_group_name_H-M    P1
_symmetry_Int_Tables_number       1
_space_group_crystal_system       triclinic
_cell_length_a                    16.759024
_cell_length_b                    16.847584
_cell_length_c                    16.75165
_cell_angle_alpha                 68.306184
_cell_angle_beta                  67.68918
_cell_angle_gamma                 67.678374
_cell_volume                      3904.84741932

loop_
_atom_site_label
_atom_site_type_symbol
_atom_type_description
_atom_site_fract_x
_atom_site_fract_y
_atom_site_fract_z
_atom_type_partial_charge
C1    C     C_R   0.023457 0.829556 0.566644 0.811275
C2    C     C_R   0.981277 0.170150 0.432588 0.804778
C3    C     C_R   0.828162 0.563655 0.031397 0.804254
C4    C     C_R   0.172022 0.436362 0.969012 0.809607
C5    C     C_R   0.563379 0.031349 0.828133 0.811465
C6    C     C_R   0.436920 0.967862 0.171657 0.823800
C7    C     C_R   0.431559 0.170334 0.980458 0.811969
C8    C     C_R   0.568500 0.829971 0.019535 0.817971
C9    C     C_R   0.984022 0.431608 0.169336 0.814726
C10   C     C_R   0.010992 0.570232 0.832799 0.828566
C11   C     C_R   0.170318 0.980003 0.431532 0.819839
C12   C     C_R   0.829808 0.019132 0.568571 0.818942
C13   C     C_R   0.453622 0.068995 0.702862 -0.186833
C14   C     C_R   0.547113 0.921196 0.299360 -0.178104
C15   C     C_R   0.090463 0.697804 0.459187 -0.181918
C16   C     C_R   0.038021 0.262634 0.518132 -0.192332
C17   C     C_R   0.699827 0.455949 0.075768 -0.180809
C18   C     C_R   0.299648 0.545228 0.926119 -0.176405
C19   C     C_R   0.266876 0.056931 0.487923 -0.168995
C20   C     C_R   0.735213 0.940583 0.510853 -0.173822
C21   C     C_R   0.489878 0.267610 0.056495 -0.172412
C22   C     C_R   0.510715 0.732928 0.943731 -0.175021
C23   C     C_R   0.063105 0.502419 0.255608 -0.176569
C24   C     C_R   0.973913 0.486758 0.726029 -0.167315
C25   C     C_R   0.547682 0.003826 0.551047 0.026966
C26   C     C_R   0.454215 0.990031 0.449182 0.026730
C27   C     C_R   0.041373 0.539356 0.540074 0.028546
C28   C     C_R   0.040713 0.438181 0.438707 0.034960
C29   C     C_R   0.550015 0.547357 0.008577 0.027343
C30   C     C_R   0.449402 0.453467 0.993633 0.027792
C31   C     C_R   0.596190 0.964028 0.478775 0.039938
C32   C     C_R   0.405979 0.030220 0.521089 0.041121
C33   C     C_R   0.022491 0.456393 0.582303 0.040519
C34   C     C_R   0.061937 0.520163 0.394310 0.040654
C35   C     C_R   0.478322 0.594604 0.968721 0.041042
C36   C     C_R   0.521103 0.406149 0.033474 0.041184
C37   C     C_R   0.549340 0.958685 0.426307 0.040847
C38   C     C_R   0.452605 0.033966 0.574364 0.044950
C39   C     C_R   0.426074 0.547713 0.963591 0.042014
C40   C     C_R   0.573096 0.453130 0.039028 0.043350
C41   C     C_R   0.033192 0.402257 0.530447 0.049694
C42   C     C_R   0.067372 0.569092 0.445346 0.039682
C43   C     C_R   0.407149 0.065016 0.651925 -0.214535
C44   C     C_R   0.594208 0.924612 0.350325 -0.209168
C45   C     C_R   0.095810 0.647125 0.406439 -0.206074
C46   C     C_R   0.040102 0.311799 0.567000 -0.231399
C47   C     C_R   0.649016 0.409083 0.072332 -0.211268
C48   C     C_R   0.349993 0.591940 0.930538 -0.213476
C49   C     C_R   0.312560 0.068799 0.534671 -0.206484
C50   C     C_R   0.689990 0.927861 0.464035 -0.206020
C51   C     C_R   0.535926 0.313280 0.069409 -0.206166
C52   C     C_R   0.464064 0.687283 0.931809 -0.207787
C53   C     C_R   0.078046 0.548289 0.300833 -0.212423
C54   C     C_R   0.985508 0.432830 0.675193 -0.220562
C55   C     C_R   0.547746 0.043438 0.678632 0.038543
C56   C     C_R   0.453024 0.950825 0.322078 0.034955
C57   C     C_R   0.052114 0.675576 0.552841 0.023241
C58   C     C_R   0.016246 0.304423 0.435420 0.042543
C59   C     C_R   0.677145 0.549098 0.047212 0.037244
C60   C     C_R   0.322655 0.452074 0.954184 0.041104
C61   C     C_R   0.311958 0.005507 0.425960 0.022668
C62   C     C_R   0.689293 0.991120 0.573749 0.019545
C63   C     C_R   0.427393 0.312045 0.006159 0.018690
C64   C     C_R   0.573119 0.688721 0.994159 0.020131
C65   C     C_R   0.026440 0.428979 0.302007 0.018723
C66   C     C_R   0.005238 0.562868 0.687376 0.027169
C67   C     C_R   0.596753 0.048383 0.728941 -0.172105
C68   C     C_R   0.403277 0.949383 0.270653 -0.177981
C69   C     C_R   0.027983 0.734458 0.607133 -0.155803
C70   C     C_R   0.984890 0.264662 0.394726 -0.153292
C71   C     C_R   0.728895 0.598280 0.048802 -0.172891
C72   C     C_R   0.271863 0.403016 0.950981 -0.168172
C73   C     C_R   0.266504 0.976193 0.390000 -0.157084
C74   C     C_R   0.733619 0.022011 0.609563 -0.166519
C75   C     C_R   0.391424 0.266882 0.976128 -0.142281
C76   C     C_R   0.609686 0.734257 0.022928 -0.159402
C77   C     C_R   0.989603 0.392130 0.263377 -0.133917
C78   C     C_R   0.004699 0.612431 0.739946 -0.166933
C79   C     C_R   0.683621 0.058320 0.684148 0.023751
C80   C     C_R   0.315254 0.942011 0.313859 0.026486
C81   C     C_R   0.999466 0.703380 0.702309 0.002825
C82   C     C_R   0.956002 0.317603 0.317310 0.010380
C83   C     C_R   0.686065 0.686156 0.056105 0.018510
C84   C     C_R   0.317132 0.316869 0.939984 0.022889
C85   C     C_R   0.594777 0.013589 0.600625 0.077739
C86   C     C_R   0.406567 0.981288 0.399590 0.076611
C87   C     C_R   0.033387 0.592584 0.593337 0.076121
C88   C     C_R   0.026304 0.391172 0.392252 0.072227
C89   C     C_R   0.599485 0.594949 0.017600 0.075901
C90   C     C_R   0.400385 0.405972 0.983825 0.073477
Cu1   Cu    Cu3+1 0.995180 0.995180 0.424630 0.898632
Cu2   Cu    Cu3+1 0.004820 0.004820 0.575370 0.875967
Cu3   Cu    Cu3+1 0.995180 0.424630 0.995180 0.908470
Cu4   Cu    Cu3+1 0.004820 0.575370 0.004820 0.875597
Cu5   Cu    Cu3+1 0.424630 0.995180 0.995180 0.898519
Cu6   Cu    Cu3+1 0.575370 0.004820 0.004820 0.880143
H1    H     H_    0.414034 0.097022 0.758884 0.179308
H2    H     H_    0.585437 0.890855 0.244422 0.157055
H3    H     H_    0.117397 0.754309 0.424897 0.160983
H4    H     H_    0.053994 0.192852 0.549611 0.177361
H5    H     H_    0.754804 0.417957 0.105207 0.172996
H6    H     H_    0.245270 0.583318 0.895688 0.163730
H7    H     H_    0.196177 0.090931 0.499566 0.159450
H8    H     H_    0.806394 0.908085 0.498134 0.172040
H9    H     H_    0.502587 0.197345 0.089174 0.175930
H10   H     H_    0.498766 0.802964 0.910016 0.175709
H11   H     H_    0.083065 0.525867 0.183894 0.186251
H12   H     H_    0.935324 0.469953 0.795036 0.175158
H13   H     H_    0.334995 0.085219 0.676561 0.133329
H14   H     H_    0.666245 0.901140 0.327180 0.134034
H15   H     H_    0.123100 0.670396 0.335191 0.134325
H16   H     H_    0.050747 0.277375 0.632540 0.137702
H17   H     H_    0.672499 0.337770 0.094904 0.133910
H18   H     H_    0.326211 0.663287 0.908636 0.134494
H19   H     H_    0.272644 0.109894 0.580271 0.134248
H20   H     H_    0.730801 0.888480 0.417057 0.135822
H21   H     H_    0.582260 0.273523 0.109038 0.136706
H22   H     H_    0.418022 0.726836 0.891824 0.136926
H23   H     H_    0.100913 0.606516 0.260796 0.135994
H24   H     H_    0.959725 0.375372 0.709036 0.142834
O1    O     O_R   0.124540 0.978640 0.385460 -0.596131
O2    O     O_R   0.875460 0.021360 0.614540 -0.589012
O3    O     O_R   0.978640 0.385460 0.124540 -0.583066
O4    O     O_R   0.021360 0.614540 0.875460 -0.602954
O5    O     O_R   0.385460 0.124540 0.978640 -0.587820
O6    O     O_R   0.614540 0.875460 0.021360 -0.599854
O7    O     O_R   0.614540 0.021360 0.875460 -0.591659
O8    O     O_R   0.385460 0.978640 0.124540 -0.571353
O9    O     O_R   0.875460 0.614540 0.021360 -0.580776
O10   O     O_R   0.124540 0.385460 0.978640 -0.582271
O11   O     O_R   0.021360 0.875460 0.614540 -0.578730
O12   O     O_R   0.978640 0.124540 0.385460 -0.583313
O13   O     O_R   0.013780 0.867370 0.487190 -0.602820
O14   O     O_R   0.986220 0.132630 0.512810 -0.616766
O15   O     O_R   0.867370 0.487190 0.013780 -0.597157
O16   O     O_R   0.132630 0.512810 0.986220 -0.595143
O17   O     O_R   0.487190 0.013780 0.867370 -0.597252
O18   O     O_R   0.512810 0.986220 0.132630 -0.599758
O19   O     O_R   0.512810 0.132630 0.986220 -0.598400
O20   O     O_R   0.487190 0.867370 0.013780 -0.603826
O21   O     O_R   0.986220 0.512810 0.132630 -0.613399
O22   O     O_R   0.013780 0.487190 0.867370 -0.596606
O23   O     O_R   0.132630 0.986220 0.512810 -0.594443
O24   O     O_R   0.867370 0.013780 0.487190 -0.588903
C91   C     C_3   0.707542 0.131449 0.696432 -0.342623
C92   C     C_3   0.759548 0.099630 0.766346 -0.269281
C93   C     C_3   0.827924 0.150890 0.739616 -0.874063
H25   H     H_    0.879598 0.140346 0.676439 0.289428
H26   H     H_    0.793683 0.223153 0.730828 0.251076
H27   H     H_    0.862026 0.127274 0.792881 0.227296
H28   H     H_    0.712214 0.111217 0.831134 0.228620
H29   H     H_    0.793866 0.027519 0.777203 0.232742
H30   H     H_    0.745431 0.166058 0.630420 0.195708
H31   H     H_    0.644938 0.183921 0.716055 0.158399
C94   C     C_3   0.287736 0.875614 0.293999 -0.335712
C95   C     C_3   0.226880 0.916601 0.230366 -0.260734
C96   C     C_3   0.254579 0.862748 0.163303 -0.868646
H32   H     H_    0.324332 0.860088 0.120767 0.292347
H33   H     H_    0.249828 0.793809 0.199259 0.239454
H34   H     H_    0.209079 0.894124 0.119434 0.225074
H35   H     H_    0.156705 0.915954 0.269110 0.219627
H36   H     H_    0.226036 0.986883 0.194289 0.236639
H37   H     H_    0.349975 0.826954 0.266266 0.184636
H38   H     H_    0.254065 0.834356 0.357875 0.157680
C97   C     C_3   0.943530 0.767725 0.762980 -0.299049
C98   C     C_3   0.998991 0.799188 0.795999 -0.249221
C99   C     C_3   0.951386 0.891931 0.810766 -0.892558
H39   H     H_    0.946579 0.942575 0.746730 0.299260
H40   H     H_    0.883128 0.893925 0.857604 0.233549
H41   H     H_    0.990034 0.908712 0.840423 0.222179
H42   H     H_    0.008270 0.756383 0.861862 0.227360
H43   H     H_    0.067292 0.797275 0.749421 0.224117
H44   H     H_    0.897557 0.825515 0.728002 0.190527
H45   H     H_    0.895530 0.736914 0.822528 0.164140
C100  C     C_3   0.880836 0.301035 0.300053 -0.349960
C101  C     C_3   0.798657 0.383341 0.295958 -0.373733
C102  C     C_3   0.715931 0.359088 0.305127 -0.858324
H46   H     H_    0.731197 0.322719 0.255357 0.251077
H47   H     H_    0.693633 0.316471 0.373350 0.254428
H48   H     H_    0.660314 0.420598 0.293882 0.249154
H49   H     H_    0.782961 0.413387 0.351045 0.223837
H50   H     H_    0.812413 0.434215 0.231519 0.211681
H51   H     H_    0.905795 0.278060 0.238599 0.216178
H52   H     H_    0.855330 0.247652 0.355457 0.209899
C103  C     C_3   0.707758 0.715661 0.120308 -0.326014
C104  C     C_3   0.772563 0.775337 0.075910 -0.259570
C105  C     C_3   0.840197 0.750120 0.128047 -0.870435
H53   H     H_    0.804337 0.758200 0.196806 0.238087
H54   H     H_    0.882012 0.680345 0.132518 0.291954
H55   H     H_    0.885161 0.794306 0.093808 0.224553
H56   H     H_    0.808485 0.773711 0.005302 0.231319
H57   H     H_    0.734638 0.845516 0.075432 0.219105
H58   H     H_    0.644331 0.750261 0.162691 0.154893
H59   H     H_    0.735697 0.654962 0.168999 0.184173
C106  C     C_3   0.295008 0.288643 0.875811 -0.342430
C107  C     C_3   0.374151 0.279602 0.791225 -0.372007
C108  C     C_3   0.343155 0.285797 0.713734 -0.859758
H60   H     H_    0.304028 0.237608 0.734441 0.248581
H61   H     H_    0.300268 0.353946 0.691442 0.257337
H62   H     H_    0.402463 0.271124 0.656504 0.252908
H63   H     H_    0.406497 0.333650 0.769821 0.224335
H64   H     H_    0.425450 0.215088 0.805256 0.211359
H65   H     H_    0.273231 0.227001 0.908868 0.212185
H66   H     H_    0.237605 0.340146 0.852542 0.211285

loop_
_geom_bond_atom_site_label_1
_geom_bond_atom_site_label_2
_ccdc_geom_bond_type
C25   C31   A    
C40   C47   A    
C14   C56   A    
C68   C80   A    
C97   C98   S    
C12   C74   S    
C3    C71   S    
Cu5   Cu6   S    
C34   C42   A    
C13   C43   A    
C103  H59   S    
C5    C67   S    
Cu6   O19   S    
C29   C89   A    
C91   C92   S    
C10   C78   S    
C99   H40   S    
C27   C33   A    
C98   H43   S    
C55   C85   A    
Cu5   O20   S    
Cu3   Cu4   S    
C65   C88   A    
C14   C44   A    
C95   C96   S    
C93   H26   S    
C54   H24   S    
C92   C93   S    
C46   H16   S    
C18   H6    S    
C75   C84   A    
C106  H65   S    
C60   C72   A    
C84   C106  S    
C24   C54   A    
C28   C41   A    
C8    C76   S    
C55   C67   A    
C63   C90   A    
C10   O22   A    
C104  H56   S    
C108  H61   S    
Cu2   O23   S    
C17   H5    S    
C105  H55   S    
C20   C50   A    
C51   H21   S    
C19   H7    S    
Cu5   O8    S    
C96   H32   S    
C59   C89   A    
C93   H25   S    
C21   C63   A    
C102  H47   S    
C28   C88   A    
C2    O12   A    
C41   C46   A    
C57   C87   A    
C14   H2    S    
C24   H12   S    
C32   C38   A    
C50   H20   S    
Cu1   Cu2   S    
C30   C90   A    
C4    O16   A    
C91   H30   S    
C6    C68   S    
C83   C103  S    
C95   H36   S    
C98   H42   S    
C96   H33   S    
C13   H1    S    
C15   C57   A    
C11   O1    A    
C64   C89   A    
C1    O13   A    
C76   C83   A    
C99   H39   S    
C23   C53   A    
C99   H41   S    
C71   C83   A    
C101  H49   S    
C66   C78   A    
C62   C85   A    
Cu5   O17   S    
Cu4   O9    S    
C65   C77   A    
C61   C86   A    
C104  H57   S    
C17   C47   A    
C106  C107  S    
C36   C40   A    
C93   H27   S    
C67   C79   A    
C79   C91   S    
C11   C73   S    
C16   C46   A    
C66   C87   A    
C9    O21   A    
C26   C32   A    
C58   C70   A    
Cu6   O18   S    
C7    C75   S    
Cu1   O12   S    
C61   C73   A    
C97   H45   S    
C56   C68   A    
C22   C64   A    
C1    C69   S    
C12   O24   A    
Cu6   O7    S    
C58   C88   A    
C42   C45   A    
C6    O18   A    
C108  H62   S    
C35   C39   A    
C27   C42   A    
Cu2   O2    S    
C25   C38   A    
C19   C49   A    
C56   C86   A    
C100  C101  S    
Cu1   O13   S    
C26   C86   A    
C102  H48   S    
C23   H11   S    
C5    O7    A    
C4    C72   S    
C25   C85   A    
C64   C76   A    
Cu6   O6    S    
C9    C77   S    
C7    O5    A    
C27   C87   A    
C44   H14   S    
C72   C84   A    
C36   C51   A    
C17   C59   A    
C92   H29   S    
C91   H31   S    
C8    O6    A    
Cu5   O5    S    
C49   H19   S    
C95   H35   S    
C16   C58   A    
C60   C90   A    
C74   C79   A    
Cu1   O1    S    
C98   C99   S    
C15   C45   A    
C31   C50   A    
C107  H64   S    
Cu3   O10   S    
C52   H22   S    
C53   H23   S    
C21   C51   A    
Cu4   O21   S    
C80   C94   S    
C48   H18   S    
Cu1   O24   S    
C18   C60   A    
C33   C54   A    
C47   H17   S    
C101  C102  S    
C3    O9    A    
C100  H51   S    
Cu2   O14   S    
Cu3   O3    S    
C103  H58   S    
C107  C108  S    
Cu3   O15   S    
C18   C48   A    
C4    O10   A    
C2    O14   A    
C26   C37   A    
C5    O17   A    
Cu2   O11   S    
C106  H66   S    
C24   C66   A    
C94   H38   S    
C96   H34   S    
C29   C35   A    
C10   O4    A    
C30   C36   A    
C8    O20   A    
C33   C41   A    
C23   C65   A    
C37   C44   A    
C107  H63   S    
C6    O8    A    
C38   C43   A    
C22   H10   S    
C45   H15   S    
C7    O19   A    
C35   C52   A    
C78   C81   A    
C103  C104  S    
C63   C75   A    
C77   C82   A    
C19   C61   A    
C1    O11   A    
C29   C40   A    
C9    O3    A    
C73   C80   A    
C30   C39   A    
C22   C52   A    
C3    O15   A    
C100  H52   S    
C20   C62   A    
C108  H60   S    
C70   C82   A    
C32   C49   A    
C105  H54   S    
C69   C81   A    
C20   H8    S    
C101  H50   S    
C28   C34   A    
C92   H28   S    
C16   H4    S    
C31   C37   A    
C105  H53   S    
C12   O2    A    
C82   C100  S    
C34   C53   A    
C94   H37   S    
C102  H46   S    
C15   H3    S    
C94   C95   S    
C81   C97   S    
C62   C74   A    
Cu4   O16   S    
C43   H13   S    
C57   C69   A    
C104  C105  S    
C2    C70   S    
C97   H44   S    
C11   O23   A    
C21   H9    S    
Cu3   O22   S    
C59   C71   A    
C39   C48   A    
C13   C55   A    
Cu4   O4    S    
