data_mof_unit_57085.cif
_audit_creation_date              2012-12-11T16:24:09-0500
_audit_creation_method            fapswitch 2.2
_symmetry_space_group_name_H-M    P1
_symmetry_Int_Tables_number       1
_space_group_crystal_system       triclinic
_cell_length_a                    14.720986
_cell_length_b                    14.74683
_cell_length_c                    33.326834
_cell_angle_alpha                 96.132062
_cell_angle_beta                  96.225196
_cell_angle_gamma                 61.198518
_cell_volume                      6290.09308094

loop_
_atom_site_label
_atom_site_type_symbol
_atom_type_description
_atom_site_fract_x
_atom_site_fract_y
_atom_site_fract_z
_atom_type_partial_charge
C1    C     C_R   0.390949 0.699714 0.445827 0.584476
C2    C     C_R   0.340194 0.355546 0.307248 0.030011
C3    C     C_R   0.411285 0.267557 0.327261 -0.167421
C4    C     C_R   0.427635 0.272907 0.369408 0.079911
C5    C     C_R   0.401578 0.296413 0.161030 0.115097
C6    C     C_R   0.389427 0.272414 0.119102 0.278193
C7    C     C_R   0.203593 0.343501 0.125415 -0.188910
C8    C     C_R   0.216537 0.363244 0.166619 -0.163146
C9    C     C_R   0.315086 0.337620 0.184594 0.034649
C10   C     C_1   0.326434 0.346191 0.227781 0.042997
C11   C     C_1   0.333066 0.350882 0.264027 0.042586
C12   C     C_R   0.406099 0.386418 0.433836 0.569304
C13   C     C_R   0.289535 0.295515 0.101507 0.021396
C14   C     C_R   0.747003 0.376605 0.407916 -0.039682
C15   C     C_R   0.781411 0.436397 0.390834 -0.125965
C16   C     C_R   0.799311 0.422010 0.349514 0.242836
C17   C     C_R   0.786057 0.343721 0.325387 0.086888
C18   C     C_R   0.759295 0.278212 0.343439 0.051348
C19   C     C_R   0.740812 0.294721 0.384465 -0.142120
C20   C     C_R   0.803127 0.324604 0.199931 0.334553
C21   C     C_R   0.792414 0.336268 0.281151 0.398547
C22   C     C_R   0.833147 0.395146 0.141450 -0.139144
C23   C     C_R   0.699574 0.410409 0.447119 0.542435
C24   C     C_R   0.871567 0.379927 0.103745 -0.185091
C25   C     C_R   0.881325 0.209315 0.094311 0.274611
C26   C     C_R   0.841044 0.226602 0.132647 -0.105747
C27   C     C_R   0.822566 0.316627 0.157030 -0.002993
C28   C     C_R   0.900690 0.285681 0.080652 0.037996
C29   C     C_R   0.370669 0.755424 0.408385 0.050307
C30   C     C_R   0.277996 0.781105 0.383730 0.054351
C31   C     C_R   0.271274 0.806159 0.343961 -0.159324
C32   C     C_R   0.353847 0.809177 0.327991 -0.003834
C33   C     C_R   0.439091 0.800930 0.354282 0.264425
C34   C     C_R   0.393283 0.701823 0.561287 0.554259
C35   C     C_R   0.449081 0.771102 0.393995 0.070401
C36   C     C_R   0.347600 0.816467 0.202184 0.341187
C37   C     C_R   0.351390 0.814933 0.283746 0.356691
C38   C     C_R   0.256046 0.830221 0.134075 -0.132753
C39   C     C_R   0.236367 0.863259 0.095049 -0.162206
C40   C     C_R   0.391825 0.883181 0.102462 0.088063
C41   C     C_R   0.411509 0.848988 0.141694 -0.113288
C42   C     C_R   0.340557 0.828341 0.158488 0.019447
C43   C     C_R   0.299556 0.896969 0.079771 0.061441
C44   C     C_R   0.369166 0.369992 0.584819 0.036961
C45   C     C_R   0.406961 0.388809 0.548949 0.568610
C46   C     C_R   0.289855 0.454915 0.605287 -0.180631
C47   C     C_R   0.267725 0.446479 0.643757 -0.140105
C48   C     C_R   0.323275 0.352474 0.662431 -0.007665
C49   C     C_R   0.395004 0.264631 0.640572 -0.104792
C50   C     C_R   0.420476 0.272850 0.602125 0.270116
C51   C     C_R   0.307591 0.344539 0.786423 0.351360
C52   C     C_R   0.313333 0.348136 0.705585 0.344169
C53   C     C_R   0.211299 0.403718 0.850189 0.267684
C54   C     C_R   0.205811 0.385691 0.890087 -0.113718
C55   C     C_R   0.381349 0.243226 0.890113 -0.144346
C56   C     C_R   0.701727 0.413549 0.562764 0.553226
C57   C     C_R   0.388647 0.262344 0.850976 -0.185190
C58   C     C_R   0.302884 0.339584 0.830021 0.037069
C59   C     C_R   0.288237 0.301594 0.909276 -0.021586
C60   C     C_R   0.755602 0.379775 0.603077 0.017215
C61   C     C_R   0.785863 0.443014 0.630022 0.096014
C62   C     C_R   0.812506 0.419995 0.670812 -0.110115
C63   C     C_R   0.811336 0.334738 0.685000 0.030763
C64   C     C_R   0.790455 0.266126 0.657656 0.103526
C65   C     C_R   0.763011 0.289492 0.617073 -0.124580
C66   C     C_R   0.889300 0.212094 0.822780 -0.166413
C67   C     C_R   0.372426 0.368500 0.391662 0.016807
C68   C     C_R   0.917140 0.200379 0.863970 -0.141362
C69   C     C_R   0.865000 0.383716 0.874323 -0.132768
C70   C     C_R   0.833383 0.396880 0.832902 0.276015
C71   C     C_R   0.851379 0.308915 0.807040 0.050292
C72   C     C_1   0.836699 0.316405 0.763954 0.022514
C73   C     C_1   0.825891 0.323536 0.727927 -0.010316
C74   C     C_R   0.909265 0.285202 0.889863 -0.023449
C75   C     C_R   0.374687 0.756453 0.602059 0.023194
C76   C     C_R   0.281668 0.781239 0.619363 -0.137590
C77   C     C_R   0.269526 0.809687 0.660665 0.103758
C78   C     C_R   0.295210 0.454208 0.371255 -0.143617
C79   C     C_R   0.351339 0.814264 0.684951 0.037230
C80   C     C_R   0.440719 0.798053 0.667705 -0.122561
C81   C     C_R   0.453238 0.769939 0.626260 0.090742
C82   C     C_R   0.397513 0.881538 0.832322 0.235576
C83   C     C_R   0.382239 0.903903 0.873909 0.256206
C84   C     C_R   0.228629 0.880328 0.863445 -0.179878
C85   C     C_R   0.248472 0.850058 0.822748 0.219082
C86   C     C_R   0.330006 0.855550 0.806871 0.001043
C87   C     C_1   0.340472 0.840385 0.764034 0.066595
C88   C     C_1   0.346488 0.829245 0.728040 0.027176
C89   C     C_R   0.277735 0.447892 0.329158 0.278907
C90   C     C_R   0.292505 0.911155 0.889084 -0.070191
C91   C     C_R   0.962369 0.264756 0.045340 0.561668
C92   C     C_R   0.272973 0.260070 0.059765 0.574134
C93   C     C_R   0.259967 0.958478 0.043551 0.554586
C94   C     C_R   0.962503 0.267595 0.930724 0.545364
C95   C     C_R   0.270827 0.263960 0.945318 0.551888
C96   C     C_R   0.256738 0.964270 0.929053 0.554924
Cr1   Cr    Cr6+3 0.576280 0.580550 0.506370 1.061965
Cr2   Cr    Cr6+3 0.346780 0.572400 0.496520 1.020946
Cr3   Cr    Cr6+3 0.576960 0.347070 0.497150 1.039022
Cr4   Cr    Cr6+3 0.087320 0.083240 0.984860 1.047273
Cr5   Cr    Cr6+3 0.087720 0.316210 0.996740 1.009556
Cr6   Cr    Cr6+3 0.317350 0.090340 0.995890 1.065335
H1    H     H_    0.714600 0.247307 0.397138 0.145169
H2    H     H_    0.883966 0.440408 0.093756 0.141346
H3    H     H_    0.817869 0.466175 0.159374 0.148654
H4    H     H_    0.826000 0.169462 0.144031 0.120606
H5    H     H_    0.167523 0.868588 0.077821 0.124985
H6    H     H_    0.202130 0.818479 0.325043 0.159936
H7    H     H_    0.201721 0.811478 0.145820 0.139820
H8    H     H_    0.479019 0.844979 0.159727 0.129799
H9    H     H_    0.249062 0.530315 0.592735 0.143199
H10   H     H_    0.134129 0.433218 0.904857 0.137789
H11   H     H_    0.210542 0.515167 0.659566 0.151275
H12   H     H_    0.434032 0.190345 0.653926 0.132761
H13   H     H_    0.456876 0.195403 0.310066 0.112847
H14   H     H_    0.446682 0.178612 0.904372 0.162857
H15   H     H_    0.460247 0.213024 0.836380 0.137124
H16   H     H_    0.951452 0.123433 0.874958 0.150140
H17   H     H_    0.901678 0.144564 0.802890 0.132036
H18   H     H_    0.742528 0.238707 0.596806 0.134457
H19   H     H_    0.860653 0.448957 0.893885 0.123710
H20   H     H_    0.831178 0.470768 0.691951 0.123423
H21   H     H_    0.502255 0.804026 0.686865 0.117040
H22   H     H_    0.220062 0.773154 0.601188 0.128716
H23   H     H_    0.160177 0.883987 0.874357 0.162800
H24   H     H_    0.252895 0.528569 0.387512 0.142824
H25   H     H_    0.149770 0.395392 0.184774 0.134659
H26   H     H_    0.126516 0.360618 0.112641 0.146973
H27   H     H_    0.790350 0.497031 0.409230 0.134514
N1    N     N_R   0.767308 0.417286 0.221467 -0.225174
N2    N     N_R   0.246521 0.433547 0.727317 -0.239641
N3    N     N_R   0.377327 0.261078 0.725095 -0.241271
N4    N     N_R   0.374252 0.259233 0.764673 -0.261707
N5    N     N_R   0.761406 0.423043 0.261233 -0.183093
N6    N     N_R   0.827016 0.243659 0.259555 -0.181016
N7    N     N_R   0.832532 0.237882 0.219709 -0.233982
N8    N     N_R   0.263518 0.829131 0.220128 -0.224767
N9    N     N_R   0.265533 0.827996 0.260016 -0.232501
N10   N     N_R   0.436070 0.800832 0.265705 -0.164104
N11   N     N_R   0.433962 0.802534 0.225757 -0.234069
N12   N     N_R   0.243364 0.431639 0.766943 -0.175901
O1    O     O_R   0.679450 0.499830 0.463150 -0.512551
O2    O     O_R   0.356040 0.477400 0.534170 -0.518014
O3    O     O_R   0.495910 0.323070 0.537100 -0.462314
O4    O     O_R   0.663920 0.359620 0.542290 -0.520138
O5    O     O_3   0.500010 0.500010 0.500010 -0.260568
O6    O     O_R   0.170070 0.978950 0.027680 -0.523965
O7    O     O_R   0.001760 0.175230 0.026640 -0.439025
O8    O     O_R   0.984760 0.333570 0.037150 -0.538952
O9    O     O_R   0.183410 0.309240 0.041890 -0.512479
O10   O     O_R   0.340240 0.172500 0.045430 -0.483991
O11   O     O_R   0.309670 0.000990 0.032050 -0.466092
O12   O     O_R   0.480650 0.664000 0.464630 -0.471734
O13   O     O_R   0.168330 0.982130 0.939200 -0.530641
O14   O     O_R   0.000140 0.178170 0.944610 -0.496518
O15   O     O_R   0.983010 0.336750 0.948660 -0.521783
O16   O     O_R   0.181800 0.312190 0.959860 -0.506882
O17   O     O_R   0.338500 0.175680 0.956950 -0.490741
O18   O     O_R   0.308050 0.003930 0.950020 -0.446958
O19   O     O_3   0.164130 0.163270 0.992500 -0.260266
O20   O     O_R   0.323930 0.675950 0.455370 -0.479309
O21   O     O_R   0.354700 0.475360 0.451930 -0.516992
O22   O     O_R   0.494470 0.320860 0.448390 -0.467634
O23   O     O_R   0.662580 0.357570 0.460050 -0.505312
O24   O     O_R   0.680900 0.502040 0.551870 -0.458442
O25   O     O_R   0.481990 0.666040 0.546870 -0.457660
O26   O     O_R   0.325370 0.678160 0.544080 -0.532622
O27   O     O_3   0.471864 0.235630 0.094598 -0.555406
C97   C     C_3   0.542155 0.130274 0.100846 -0.096645
H28   H     H_    0.519973 0.095071 0.123456 0.078134
H29   H     H_    0.619790 0.122743 0.110797 0.126857
H30   H     H_    0.549578 0.084165 0.071653 0.162018
O28   O     O_3   0.835430 0.479764 0.332678 -0.566490
C98   C     C_3   0.762609 0.586258 0.336188 -0.083027
H31   H     H_    0.770448 0.620538 0.366836 0.105716
H32   H     H_    0.681172 0.600802 0.328786 0.166626
H33   H     H_    0.779470 0.626907 0.314276 0.161954
N13   N     N_3   0.743308 0.199516 0.319707 -0.601485
H34   H     H_    0.666614 0.215561 0.322015 0.231254
H35   H     H_    0.792377 0.128469 0.332257 0.231393
O29   O     O_3   0.896848 0.122809 0.068669 -0.545585
C99   C     C_3   0.944034 0.030842 0.089490 -0.108931
H36   H     H_    0.007288 0.027295 0.111988 0.117510
H37   H     H_    0.979295 0.964171 0.067083 0.142113
H38   H     H_    0.884944 0.021394 0.104015 0.107933
N14   N     N_3   0.191523 0.777477 0.398092 -0.595382
H39   H     H_    0.126552 0.850672 0.395697 0.226524
H40   H     H_    0.176229 0.724518 0.379110 0.240572
N15   N     N_3   0.540827 0.753649 0.419157 -0.589158
H41   H     H_    0.605503 0.696542 0.404564 0.243048
H42   H     H_    0.546309 0.822132 0.422728 0.234670
N16   N     N_3   0.500339 0.279745 0.179855 -0.606126
H43   H     H_    0.529512 0.315629 0.163494 0.266487
H44   H     H_    0.551611 0.200248 0.178916 0.225433
O30   O     O_3   0.517878 0.813143 0.340751 -0.571522
C100  C     C_3   0.487710 0.919954 0.343229 -0.119320
H45   H     H_    0.472257 0.954367 0.374733 0.101817
H46   H     H_    0.418299 0.963159 0.322570 0.133458
H47   H     H_    0.552220 0.929807 0.333754 0.139982
N17   N     N_3   0.463311 0.908123 0.086762 -0.608954
H48   H     H_    0.536093 0.841918 0.086950 0.218254
H49   H     H_    0.469692 0.965129 0.106442 0.218510
O31   O     O_3   0.492031 0.186542 0.580467 -0.548966
C101  C     C_3   0.588726 0.140088 0.602943 -0.099312
H50   H     H_    0.589587 0.086908 0.624366 0.116454
H51   H     H_    0.609250 0.198326 0.619351 0.143610
H52   H     H_    0.650086 0.092801 0.581685 0.141646
O32   O     O_3   0.126773 0.483038 0.830908 -0.563737
C102  C     C_3   0.050501 0.451613 0.819484 -0.082306
H53   H     H_    0.016438 0.444439 0.846391 0.127445
H54   H     H_    0.082103 0.377510 0.800392 0.122103
H55   H     H_    0.986674 0.511808 0.801187 0.180405
N18   N     N_3   0.791612 0.175034 0.670084 -0.649531
H56   H     H_    0.849581 0.110720 0.654957 0.220070
H57   H     H_    0.812143 0.165496 0.700903 0.240302
N19   N     N_3   0.785877 0.532310 0.616445 -0.574234
H58   H     H_    0.846549 0.505306 0.597235 0.229473
H59   H     H_    0.802408 0.574409 0.640695 0.216727
O33   O     O_3   0.796907 0.491634 0.816138 -0.582063
C103  C     C_3   0.714242 0.570899 0.837510 -0.121265
H60   H     H_    0.744290 0.600095 0.865022 0.107150
H61   H     H_    0.658531 0.545646 0.845406 0.113750
H62   H     H_    0.670266 0.636886 0.817883 0.175673
N20   N     N_3   0.503045 0.182226 0.389139 -0.594214
H63   H     H_    0.481453 0.124159 0.382152 0.213792
H64   H     H_    0.574695 0.157051 0.377106 0.219511
O34   O     O_3   0.449858 0.928867 0.898499 -0.530704
C104  C     C_3   0.530139 0.836987 0.914345 -0.089000
H65   H     H_    0.575416 0.780601 0.889881 0.123821
H66   H     H_    0.499197 0.800884 0.932938 0.100021
H67   H     H_    0.584314 0.856552 0.934383 0.135523
O35   O     O_3   0.480337 0.882699 0.816764 -0.567890
C105  C     C_3   0.450526 0.985471 0.808377 -0.089261
H68   H     H_    0.432675 0.037654 0.836381 0.159543
H69   H     H_    0.382911 0.015852 0.785754 0.115769
H70   H     H_    0.516240 0.986291 0.795284 0.148255
N21   N     N_3   0.546905 0.751133 0.609268 -0.560728
H71   H     H_    0.599355 0.757132 0.631794 0.224581
H72   H     H_    0.526835 0.810122 0.589871 0.226109
O36   O     O_3   0.180722 0.826585 0.797506 -0.555191
C106  C     C_3   0.209411 0.721522 0.800832 -0.077484
H73   H     H_    0.200695 0.707091 0.831945 0.126331
H74   H     H_    0.290262 0.669602 0.791933 0.128298
H75   H     H_    0.156965 0.701523 0.779837 0.179141
N22   N     N_3   0.176741 0.828747 0.678510 -0.598955
H76   H     H_    0.126009 0.816827 0.656823 0.217580
H77   H     H_    0.138581 0.907166 0.688338 0.236717
O37   O     O_3   0.208879 0.535033 0.308899 -0.558857
C107  C     C_3   0.106554 0.560697 0.316478 -0.118900
H78   H     H_    0.089993 0.589467 0.348467 0.107301
H79   H     H_    0.091082 0.493848 0.308507 0.138417
H80   H     H_    0.051843 0.624249 0.297164 0.149779

loop_
_geom_bond_atom_site_label_1
_geom_bond_atom_site_label_2
_ccdc_geom_bond_type
C16   O28   S    
C8    C9    A    
C7    C13   A    
C66   C68   A    
O31   C101  S    
N22   H77   S    
C40   C41   A    
C55   C59   A    
Cr2   O2    S    
C95   O17   A    
Cr1   O5    S    
C74   C94   S    
C36   C42   S    
C20   N7    A    
C87   C88   T    
C1    O20   A    
N20   H63   S    
C26   H4    S    
C104  H66   S    
N13   H34   S    
N6    N7    A    
C83   O34   S    
C50   O31   S    
O37   C107  S    
C25   C28   A    
C39   H5    S    
C107  H78   S    
O32   C102  S    
C59   C95   S    
C30   N14   S    
N19   H59   S    
C38   C42   A    
C43   C93   S    
C85   C86   A    
C5    C6    A    
C33   C35   A    
Cr1   O24   S    
C55   H14   S    
Cr4   O6    S    
C68   C74   A    
C15   C16   A    
Cr2   O5    S    
O29   C99   S    
Cr5   O9    S    
C100  H45   S    
C102  H55   S    
C18   C19   A    
C41   C42   A    
C56   O4    A    
N15   H42   S    
C98   H31   S    
C104  H65   S    
C44   C50   A    
C68   H16   S    
C99   H36   S    
C19   H1    S    
C40   C43   A    
C96   O13   A    
C34   O25   A    
C47   C48   A    
Cr5   O19   S    
C44   C46   A    
N3    N4    A    
C56   O24   A    
C45   O3    A    
C23   O1    A    
C70   C71   A    
C61   N19   S    
Cr1   O12   S    
C7    H26   S    
C29   C30   A    
C36   N8    A    
C84   H23   S    
Cr2   O26   S    
N2    N12   A    
C34   C75   S    
C72   C73   T    
Cr6   O10   S    
C61   C62   A    
C51   N12   A    
C49   H12   S    
Cr3   O4    S    
Cr5   O16   S    
C35   N15   S    
O28   C98   S    
C46   H9    S    
C97   H29   S    
Cr6   O17   S    
Cr1   O25   S    
N1    N5    A    
C67   C78   A    
C84   C90   A    
C100  H47   S    
C2    C11   S    
C14   C19   A    
C103  H61   S    
C103  H60   S    
Cr2   O21   S    
C53   C54   A    
C25   O29   S    
C102  H53   S    
C98   H32   S    
C54   C59   A    
C77   C79   A    
C78   C89   A    
C38   C39   A    
C12   C67   S    
C6    O27   S    
C107  H79   S    
C63   C64   A    
C52   N3    A    
C97   H28   S    
Cr3   O3    S    
C7    C8    A    
C94   O14   A    
N19   H58   S    
C100  H46   S    
Cr6   O19   S    
O33   C103  S    
C91   O8    A    
C86   C87   S    
N17   H48   S    
C39   C43   A    
C40   N17   S    
Cr5   O15   S    
C25   C26   A    
C82   C86   A    
C17   C21   S    
C56   C60   S    
C32   C33   A    
C60   C61   A    
C106  H74   S    
C99   H38   S    
N16   H44   S    
C14   C23   S    
C2    C89   A    
C75   C76   A    
C66   C71   A    
C5    C9    A    
C62   C63   A    
C36   N11   A    
Cr4   O19   S    
C8    H25   S    
N13   H35   S    
O34   C104  S    
C15   H27   S    
C101  H52   S    
C69   H19   S    
C30   C31   A    
N10   N11   A    
C92   O10   A    
C1    C29   S    
C17   C18   A    
C26   C27   A    
C54   H10   S    
C69   C74   A    
C51   C58   S    
C32   C37   S    
C84   C85   A    
C38   H7    S    
C1    O12   A    
C105  H69   S    
C98   H33   S    
C33   O30   S    
C79   C88   S    
Cr3   O22   S    
Cr4   O14   S    
N17   H49   S    
C48   C49   A    
Cr3   O5    S    
C101  H51   S    
C60   C65   A    
C49   C50   A    
C66   H17   S    
C55   C57   A    
C13   C92   S    
C92   O9    A    
C22   C27   A    
C97   H30   S    
C22   C24   A    
C79   C80   A    
N14   H40   S    
C3    C4    A    
C78   H24   S    
C31   H6    S    
C21   N5    A    
C62   H20   S    
Cr2   O20   S    
C44   C45   S    
C57   H15   S    
C23   O23   A    
C9    C10   S    
Cr4   O13   S    
N15   H41   S    
C47   H11   S    
C83   C90   A    
C82   O35   S    
C46   C47   A    
O27   C97   S    
C107  H80   S    
C64   N18   S    
C95   O16   A    
C52   N2    A    
C53   O32   S    
C31   C32   A    
C75   C81   A    
C41   H8    S    
C24   C28   A    
C5    N16   S    
C20   N1    A    
C80   C81   A    
N20   H64   S    
Cr6   O18   S    
C4    C67   A    
C91   O7    A    
C53   C58   A    
C90   C96   S    
C20   C27   S    
C22   H3    S    
C63   C73   S    
N8    N9    A    
C29   C35   A    
C70   O33   S    
C89   O37   S    
C37   N9    A    
C85   O36   S    
N16   H43   S    
C106  H75   S    
N21   H72   S    
C2    C3    A    
N18   H57   S    
C71   C72   S    
C4    N20   S    
C64   C65   A    
C12   O22   A    
C76   C77   A    
C51   N4    A    
C57   C58   A    
C16   C17   A    
Cr3   O23   S    
Cr4   O7    S    
C106  H73   S    
N18   H56   S    
N21   H71   S    
Cr5   O8    S    
O36   C106  S    
C102  H54   S    
C65   H18   S    
C81   N21   S    
C93   O6    A    
C28   C91   S    
C77   N22   S    
C103  H62   S    
C69   C70   A    
C105  H70   S    
C99   H37   S    
Cr1   O1    S    
C10   C11   T    
C76   H22   S    
C12   O21   A    
O30   C100  S    
C48   C52   S    
C96   O18   A    
C101  H50   S    
C18   N13   S    
C94   O15   A    
C82   C83   A    
C37   N10   A    
Cr6   O11   S    
C45   O2    A    
C14   C15   A    
C93   O11   A    
C3    H13   S    
C24   H2    S    
N14   H39   S    
N22   H76   S    
C21   N6    A    
C104  H67   S    
C34   O26   A    
C105  H68   S    
O35   C105  S    
C6    C13   A    
C80   H21   S    
