data_mof_unit_54987.cif
_audit_creation_date              2013-03-05T16:48:42-0500
_audit_creation_method            fapswitch 2.2
_symmetry_space_group_name_H-M    P1
_symmetry_Int_Tables_number       1
_space_group_crystal_system       triclinic
_cell_length_a                    27.781031
_cell_length_b                    8.909454
_cell_length_c                    8.094986
_cell_angle_alpha                 90.011644
_cell_angle_beta                  90.695366
_cell_angle_gamma                 89.951558
_cell_volume                      2003.47257856

loop_
_atom_site_label
_atom_site_type_symbol
_atom_site_description
_atom_site_fract_x
_atom_site_fract_y
_atom_site_fract_z
_atom_type_partial_charge
O1    O     O_R   0.500000 0.285350 0.636850 -0.613801
O2    O     O_R   0.500000 0.714650 0.363150 -0.613801
O3    O     O_R   0.500000 0.714650 0.636850 -0.613338
O4    O     O_R   0.500000 0.285350 0.363150 -0.613338
C1    C     C_R   0.500004 0.217995 0.499989 0.947881
C2    C     C_R   0.499996 0.782005 0.500010 0.947882
O5    O     O_R   0.428760 0.500000 0.636860 -0.622538
O6    O     O_R   0.571240 0.500000 0.363140 -0.622544
O7    O     O_R   0.571240 0.500000 0.636860 -0.624389
O8    O     O_R   0.428760 0.500000 0.363140 -0.624393
C3    C     C_R   0.405756 0.500405 0.498881 0.874779
C4    C     C_R   0.594244 0.499593 0.501118 0.874783
Zn1   Zn    Zn3+2 0.500000 0.500000 0.682780 1.000765
Zn2   Zn    Zn3+2 0.500000 0.500000 0.317220 1.000762
C5    C     C_R   0.177928 0.387668 0.422451 0.573040
C6    C     C_R   0.822068 0.612416 0.577390 0.573026
C7    C     C_R   0.177946 0.636071 0.532969 0.570091
C8    C     C_R   0.822056 0.364017 0.466866 0.570117
O9    O     O_2   0.203814 0.267105 0.375959 -0.445310
O10   O     O_2   0.796177 0.732958 0.623935 -0.445321
O11   O     O_2   0.203962 0.755405 0.583951 -0.449390
O12   O     O_2   0.796046 0.244668 0.415930 -0.449378
N1    N     N_R   0.201556 0.511148 0.480435 -0.378027
N2    N     N_R   0.798443 0.488922 0.519438 -0.378030
C9    C     C_R   0.277220 0.503760 0.637968 -0.072845
C10   C     C_R   0.722774 0.496309 0.361971 -0.072892
C11   C     C_R   0.278554 0.512358 0.338241 -0.075097
C12   C     C_R   0.721452 0.487635 0.661682 -0.075055
C13   C     C_R   0.327249 0.500636 0.642884 -0.198974
C14   C     C_R   0.672745 0.499410 0.357089 -0.198957
C15   C     C_R   0.328494 0.508832 0.342727 -0.196793
C16   C     C_R   0.671511 0.491139 0.657232 -0.196818
C17   C     C_R   0.252908 0.509588 0.485668 0.285702
C18   C     C_R   0.747092 0.490454 0.514244 0.285700
C19   C     C_R   0.101818 0.510213 0.479110 -0.157668
C20   C     C_R   0.898181 0.489917 0.520620 -0.157666
C21   C     C_R   0.127362 0.385273 0.415583 -0.099349
C22   C     C_R   0.872636 0.614845 0.584177 -0.099364
C23   C     C_R   0.127305 0.639291 0.534334 -0.102733
C24   C     C_R   0.872695 0.360830 0.465422 -0.102725
C25   C     C_R   0.101435 0.263475 0.347379 0.479825
C26   C     C_R   0.898564 0.736664 0.652331 0.479829
C27   C     C_R   0.101211 0.766388 0.587036 0.472381
C28   C     C_R   0.898788 0.233753 0.412664 0.472371
C29   C     C_R   0.353184 0.502954 0.495120 -0.045520
C30   C     C_R   0.646816 0.497046 0.504863 -0.045525
H1    H     H_    0.347690 0.510982 0.227055 0.166433
H2    H     H_    0.652318 0.488956 0.772909 0.166431
H3    H     H_    0.345532 0.496202 0.761764 0.165489
H4    H     H_    0.654458 0.503871 0.238228 0.165502
H5    H     H_    0.259682 0.517050 0.220446 0.150839
H6    H     H_    0.740329 0.482924 0.779456 0.150847
H7    H     H_    0.257270 0.501169 0.752082 0.151521
H8    H     H_    0.742719 0.498945 0.247851 0.151511
C31   C     C_R   0.974690 0.369481 0.448538 0.023288
C32   C     C_R   0.025309 0.630675 0.551121 0.023282
C33   C     C_R   0.974537 0.623191 0.567703 0.024100
C34   C     C_R   0.025462 0.376965 0.431959 0.024101
C35   C     C_R   0.949261 0.494288 0.512008 0.085608
C36   C     C_R   0.050738 0.505861 0.487673 0.085607
C37   C     C_R   0.948593 0.238673 0.407815 -0.261365
C38   C     C_R   0.051406 0.761486 0.591833 -0.261351
C39   C     C_R   0.948330 0.738853 0.644495 -0.256449
C40   C     C_R   0.051669 0.261304 0.355166 -0.256469
H9    H     H_    0.965906 0.135249 0.373979 0.178609
H10   H     H_    0.034094 0.864924 0.625627 0.178608
H11   H     H_    0.965538 0.832412 0.704930 0.180762
H12   H     H_    0.034462 0.167759 0.294700 0.180763
C41   C     C_1   0.500001 0.065233 0.499985 -0.178651
C42   C     C_1   0.499999 0.934767 0.500015 -0.178651
N3    N     N_1   0.500000 0.500000 0.073640 -0.033608
N4    N     N_1   0.500000 0.500000 0.926360 -0.033607
Cl1   Cl    Cl    0.127963 0.111289 0.241410 -0.452741
Cl2   Cl    Cl    0.872039 0.888857 0.758295 -0.452722
Cl3   Cl    Cl    0.127538 0.938543 0.648820 -0.452513
Cl4   Cl    Cl    0.872459 0.061605 0.350875 -0.452526

loop_
_geom_bond_atom_site_label_1
_geom_bond_atom_site_label_2
_geom_bond_distance
_ccdc_geom_bond_type
C31   C35   1.416600 A    
Zn2   N3    1.971777 S    
C20   C35   1.422167 A    
C13   H3    1.083398 S    
C11   C17   1.397557 A    
C5    O9    1.348212 S    
C7    N1    1.362044 A    
O1    C1    1.259863 A    
C40   H12   1.075895 S    
C19   C21   1.419312 A    
C9    H7    1.083271 S    
C22   C26   1.411604 A    
C33   C35   1.417306 A    
C34   C36   1.417304 A    
C32   C33   1.420121 A    
C7    C23   1.407299 A    
C28   Cl4   1.769268 S    
C8    C24   1.407257 A    
C5    C21   1.405381 A    
C20   C24   1.420274 A    
O7    Zn1   2.018153 S    
C10   C18   1.399386 A    
N1    C17   1.426771 S    
C1    C41   1.361022 S    
C8    N2    1.362053 A    
O3    Zn1   1.948295 S    
C6    O10   1.348257 S    
O3    C2    1.259926 A    
C5    N1    1.361993 A    
C14   H4    1.083322 S    
C12   C18   1.397552 A    
C6    N2    1.361965 A    
C15   H1    1.083372 S    
C21   C25   1.411608 A    
C16   H2    1.083366 S    
O2    C2    1.259863 A    
C10   H8    1.083260 S    
C11   H5    1.083384 S    
C33   C39   1.409912 A    
C9    C13   1.390208 A    
C39   H11   1.075884 S    
C26   Cl2   1.769348 S    
C38   H10   1.076023 S    
C11   C15   1.387748 A    
C12   C16   1.387760 A    
C4    C30   1.460611 S    
O8    Zn2   2.018156 S    
C23   C27   1.412691 A    
C34   C40   1.409910 A    
C7    O11   1.347943 S    
C32   C36   1.416586 A    
C13   C29   1.404024 A    
C19   C36   1.422144 A    
C19   C23   1.420282 A    
O5    C3    1.280097 A    
O5    Zn1   2.009288 S    
O6    C4    1.280085 A    
C10   C14   1.390185 A    
C32   C38   1.409962 A    
C3    C29   1.460615 S    
O1    Zn1   1.948147 S    
C27   Cl3   1.769278 S    
C2    C42   1.361022 S    
O6    Zn2   2.009286 S    
C8    O12   1.347863 S    
C16   C30   1.405070 A    
C14   C30   1.404013 A    
O4    C1    1.259926 A    
Zn1   N4    1.971777 S    
C28   C37   1.385387 A    
C20   C22   1.419334 A    
N3    N4    1.192229 T    
C12   H6    1.083306 S    
C31   C37   1.409960 A    
O4    Zn2   1.948295 S    
C41   C42   1.162387 T    
O2    Zn2   1.948146 S    
O7    C4    1.277843 A    
N2    C18   1.426764 S    
O8    C3    1.277836 A    
C25   Cl1   1.769355 S    
C37   H9    1.076004 S    
C24   C28   1.412669 A    
C15   C29   1.405157 A    
C31   C34   1.420113 A    
C9    C17   1.399489 A    
C25   C40   1.384891 A    
C26   C39   1.384917 A    
C27   C38   1.385373 A    
C6    C22   1.405421 A    
