data_mof_unit_17723.cif
_audit_creation_date              2013-03-05T15:44:58-0500
_audit_creation_method            fapswitch 2.2
_symmetry_space_group_name_H-M    P1
_symmetry_Int_Tables_number       1
_space_group_crystal_system       triclinic
_cell_length_a                    10.937394
_cell_length_b                    10.890347
_cell_length_c                    18.79217
_cell_angle_alpha                 90.013651
_cell_angle_beta                  90.059822
_cell_angle_gamma                 119.477526
_cell_volume                      1948.61131452

loop_
_atom_site_label
_atom_site_type_symbol
_atom_site_description
_atom_site_fract_x
_atom_site_fract_y
_atom_site_fract_z
_atom_type_partial_charge
O1    O     O_R   0.766500 0.250040 0.579790 -0.515884
O2    O     O_R   0.798570 0.516780 0.574780 -0.494795
C1    C     C_R   0.864901 0.637778 0.603392 0.551414
O3    O     O_R   0.984000 0.732950 0.581090 -0.528355
O4    O     O_R   0.218600 0.700890 0.574760 -0.508466
C2    C     C_R   0.271218 0.633214 0.603526 0.555850
O5    O     O_R   0.249390 0.515350 0.579940 -0.504796
O6    O     O_R   0.982790 0.280900 0.573700 -0.507265
C3    C     C_R   0.861410 0.222392 0.602187 0.528737
O7    O     O_R   0.766600 0.251130 0.419260 -0.500925
O8    O     O_R   0.798660 0.517790 0.425980 -0.453326
C4    C     C_R   0.868258 0.637898 0.396198 0.560249
O9    O     O_R   0.984100 0.734040 0.420570 -0.534856
O10   O     O_R   0.218690 0.701900 0.425960 -0.513284
C5    C     C_R   0.209687 0.596343 0.388651 0.552090
O11   O     O_R   0.249490 0.516440 0.419420 -0.416616
O12   O     O_R   0.982880 0.281910 0.424890 -0.493149
C6    C     C_R   0.861897 0.228767 0.396052 0.520773
Cr1   Cr    Cr6+3 0.791660 0.390250 0.499930 1.074778
Cr2   Cr    Cr6+3 0.098520 0.708290 0.500540 1.019111
Cr3   Cr    Cr6+3 0.109770 0.401430 0.499480 1.083588
O13   O     O_3   0.999980 0.499990 0.499980 -0.290399
C7    C     C_R   0.276256 0.747087 0.717365 -0.128898
H1    H     H_    0.213977 0.790099 0.695015 0.137678
C8    C     C_R   0.300079 0.758250 0.790168 -0.125794
H2    H     H_    0.261746 0.814086 0.822844 0.124841
C9    C     C_R   0.368714 0.692092 0.820329 0.049459
C10   C     C_R   0.421743 0.623410 0.777364 -0.115443
H3    H     H_    0.479001 0.575298 0.799958 0.139578
C11   C     C_R   0.400987 0.614993 0.704938 -0.129739
H4    H     H_    0.438257 0.557150 0.673056 0.134392
C12   C     C_R   0.325036 0.673479 0.674850 0.024580
C13   C     C_R   0.843980 0.172377 0.823489 -0.019831
C14   C     C_R   0.096234 0.241044 0.825427 0.102530
C15   C     C_R   0.213185 0.253839 0.789245 -0.104431
C16   C     C_R   0.204392 0.218828 0.717623 -0.153951
C17   C     C_R   0.081034 0.179656 0.679912 -0.090778
C18   C     C_R   0.963475 0.175572 0.713253 -0.008860
C19   C     C_R   0.966991 0.193782 0.788554 0.002323
H5    H     H_    0.312431 0.293615 0.816769 0.120497
H6    H     H_    0.294984 0.226040 0.690585 0.110800
C20   C     C_R   0.720042 0.124786 0.710096 0.010500
C21   C     C_R   0.730389 0.163051 0.781891 0.021510
C22   C     C_R   0.589137 0.071675 0.675012 -0.065935
C23   C     C_R   0.479555 0.082333 0.706375 -0.119481
C24   C     C_R   0.498276 0.143517 0.773169 -0.140577
C25   C     C_R   0.623118 0.185914 0.810218 -0.072762
C26   C     C_R   0.843250 0.154363 0.673325 -0.039860
H7    H     H_    0.077966 0.150088 0.624739 0.137389
H8    H     H_    0.634998 0.237030 0.861143 0.137107
H9    H     H_    0.381682 0.046742 0.678014 0.106346
H10   H     H_    0.573453 0.026791 0.622103 0.131435
H11   H     H_    0.415117 0.155412 0.797083 0.104336
C27   C     C_R   0.725699 0.536897 0.712880 -0.137652
H12   H     H_    0.666082 0.433996 0.688353 0.148396
C28   C     C_R   0.716377 0.548257 0.786076 -0.155726
H13   H     H_    0.645147 0.456860 0.816823 0.112740
C29   C     C_R   0.801947 0.677521 0.819185 0.030518
C30   C     C_R   0.886574 0.797956 0.778208 -0.129383
H14   H     H_    0.948095 0.901271 0.802092 0.151693
C31   C     C_R   0.894169 0.787340 0.705718 -0.144180
H15   H     H_    0.965426 0.880379 0.675895 0.130658
C32   C     C_R   0.819898 0.655752 0.673140 0.025072
C33   C     C_R   0.225471 0.509097 0.266246 0.187663
C34   C     C_R   0.248441 0.537377 0.194104 -0.101226
H16   H     H_    0.232765 0.452256 0.158702 0.190270
C35   C     C_R   0.312664 0.675477 0.168488 -0.024282
C36   C     C_R   0.329539 0.785031 0.213147 -0.155825
H17   H     H_    0.378683 0.892796 0.194164 0.157664
C37   C     C_R   0.292140 0.756965 0.284467 -0.169730
H18   H     H_    0.307646 0.844107 0.318200 0.163514
C38   C     C_R   0.244743 0.620793 0.312715 0.000319
C39   C     C_R   0.848356 0.291581 0.273742 -0.088815
H19   H     H_    0.853321 0.387875 0.292659 0.117071
C40   C     C_R   0.839820 0.265930 0.201319 -0.116996
H20   H     H_    0.834466 0.340003 0.164694 0.118435
C41   C     C_R   0.836394 0.143642 0.176782 0.060168
C42   C     C_R   0.838293 0.045226 0.224768 -0.065188
H21   H     H_    0.830411 0.947572 0.205875 0.130432
C43   C     C_R   0.846099 0.070699 0.297604 -0.080179
H22   H     H_    0.847752 0.995268 0.334615 0.119655
C44   C     C_R   0.851055 0.194044 0.321698 0.070985
C45   C     C_R   0.957097 0.737222 0.279813 -0.176937
H23   H     H_    0.059207 0.806175 0.302807 0.165858
C46   C     C_R   0.947206 0.734137 0.207137 -0.151067
H24   H     H_    0.039863 0.804730 0.176925 0.164542
C47   C     C_R   0.817241 0.651881 0.174455 -0.032319
C48   C     C_R   0.700303 0.559177 0.214971 -0.125692
H25   H     H_    0.598934 0.495354 0.189914 0.175909
C49   C     C_R   0.710528 0.557385 0.288932 0.177331
C50   C     C_R   0.839885 0.650248 0.321783 -0.003249
O14   O     O_R   0.895110 0.806860 0.920430 -0.519425
O15   O     O_R   0.872260 0.046970 0.925000 -0.476436
C51   C     C_R   0.807631 0.106558 0.895417 0.561471
O16   O     O_R   0.691430 0.085060 0.918550 -0.527086
O17   O     O_R   0.451490 0.822460 0.925250 -0.503778
C52   C     C_R   0.400217 0.702726 0.895182 0.561835
O18   O     O_R   0.413330 0.603360 0.920440 -0.499210
O19   O     O_R   0.676110 0.626250 0.926750 -0.512118
C53   C     C_R   0.793637 0.697198 0.894759 0.542066
O20   O     O_R   0.895350 0.809870 0.080950 -0.513099
O21   O     O_R   0.872490 0.049760 0.073800 -0.478307
C54   C     C_R   0.806256 0.104024 0.103123 0.548439
O22   O     O_R   0.691680 0.088070 0.079070 -0.518304
O23   O     O_R   0.451720 0.825250 0.074050 -0.500860
C55   C     C_R   0.390294 0.702828 0.102021 0.556213
O24   O     O_R   0.413580 0.606370 0.080960 -0.505406
O25   O     O_R   0.676340 0.629040 0.075550 -0.501549
C56   C     C_R   0.798286 0.692470 0.103704 0.543514
Cr4   Cr    Cr6+3 0.874790 0.925890 0.000070 1.057233
Cr5   Cr    Cr6+3 0.574120 0.948670 0.999300 1.030742
Cr6   Cr    Cr6+3 0.551420 0.625320 0.000920 1.042345
O26   O     O_3   0.666780 0.833290 0.000090 -0.263784
N1    N     N_R   0.192530 0.369526 0.289305 0.077075
O27   O     O_R   0.126942 0.264804 0.245414 -0.367843
O28   O     O_R   0.268923 0.354345 0.337668 -0.208751
N2    N     N_R   0.589300 0.463067 0.329409 0.101527
O29   O     O_R   0.554284 0.507429 0.386007 -0.292170
O30   O     O_R   0.508547 0.334677 0.307152 -0.295358
I1    I     I_    0.137051 0.323988 0.931134 -0.342860

loop_
_geom_bond_atom_site_label_1
_geom_bond_atom_site_label_2
_geom_bond_distance
_ccdc_geom_bond_type
C2    C12   1.441972 S    
C47   C48   1.402276 A    
O15   C51   1.296394 A    
C39   H19   1.082947 S    
C4    C50   1.452652 S    
C15   C16   1.389087 A    
C13   C51   1.489987 S    
N1    O27   1.299501 A    
O4    Cr2   1.943490 S    
C41   C42   1.408772 A    
O25   C56   1.275790 A    
C5    C38   1.468035 S    
O8    Cr1   1.939782 S    
C13   C19   1.410218 A    
C16   C17   1.391401 A    
N2    O30   1.301379 A    
O4    C2    1.258412 A    
C42   C43   1.390693 A    
C27   C32   1.408619 A    
C23   H9    1.081930 S    
O20   C56   1.268818 A    
C5    O11   1.285914 A    
C52   O18   1.252883 A    
C28   H13   1.081463 S    
C14   C15   1.394416 A    
O24   Cr6   2.067984 S    
C31   C32   1.393254 A    
C35   C55   1.457148 S    
O21   C54   1.264781 A    
C27   H12   1.083236 S    
C45   H23   1.082289 S    
C36   H17   1.083177 S    
C34   C35   1.395832 A    
C7    H1    1.083205 S    
C37   H18   1.082742 S    
C18   C26   1.429817 A    
O15   Cr4   1.940707 S    
O25   Cr6   1.943400 S    
C22   H10   1.083436 S    
C7    C8    1.386509 A    
O23   Cr5   1.950885 S    
C30   H14   1.083594 S    
Cr3   O13   1.965360 S    
C39   C40   1.383084 A    
C16   H6    1.081940 S    
C51   O16   1.251970 A    
C20   C22   1.414915 A    
Cr6   O26   1.977242 S    
C8    H2    1.083452 S    
O12   C6    1.274458 A    
C25   H8    1.082076 S    
C46   C47   1.394620 A    
C14   I1    2.135802 S    
O17   Cr5   1.950753 S    
C27   C28   1.389385 A    
C30   C31   1.373169 A    
C33   N1    1.445541 S    
C35   C36   1.394395 A    
C13   C21   1.427822 A    
C49   N2    1.433121 S    
O10   Cr2   1.946902 S    
Cr1   O13   1.984903 S    
O1    C3    1.285363 A    
C43   C44   1.392945 A    
C42   H21   1.083514 S    
O6    C3    1.274442 A    
C29   C30   1.406106 A    
C46   H24   1.084001 S    
O1    Cr1   2.061046 S    
C37   C38   1.412116 A    
O12   Cr3   1.949958 S    
C14   C19   1.423032 A    
C40   H20   1.083758 S    
C17   C18   1.411819 A    
C17   H7    1.081174 S    
O19   C53   1.278720 A    
O7    Cr1   2.063502 S    
O17   C52   1.270180 A    
O6    Cr3   1.951393 S    
C29   C53   1.445842 S    
Cr5   O26   1.964544 S    
C20   C26   1.404304 A    
C4    O9    1.266610 A    
C40   C41   1.392186 A    
Cr4   O26   1.983688 S    
C45   C46   1.369003 A    
C48   C49   1.395167 A    
O21   Cr4   1.942349 S    
C20   C21   1.399917 A    
C1    O3    1.272537 A    
C10   H3    1.081433 S    
C39   C44   1.404483 A    
C54   O22   1.260724 A    
C22   C23   1.391282 A    
O14   C53   1.258924 A    
C24   C25   1.392755 A    
C9    C52   1.438901 S    
O9    Cr2   2.060312 S    
O2    Cr1   1.944053 S    
Cr2   O13   1.975200 S    
C43   H22   1.083391 S    
O22   Cr5   2.068555 S    
N1    O28   1.298425 A    
O8    C4    1.274726 A    
O11   Cr3   2.071127 S    
C2    O5    1.264495 A    
C47   C56   1.447765 S    
C1    C32   1.447279 S    
C8    C9    1.391221 A    
C45   C50   1.403619 A    
O23   C55   1.274628 A    
C7    C12   1.409635 A    
O18   Cr6   2.065249 S    
C10   C11   1.375205 A    
C15   H5    1.081394 S    
O20   Cr4   2.058386 S    
O5    Cr3   2.070525 S    
N2    O29   1.301547 A    
C33   C34   1.385889 A    
C11   C12   1.391181 A    
C11   H4    1.083969 S    
O14   Cr4   2.062248 S    
C49   C50   1.412561 A    
C18   C19   1.426703 A    
O7    C6    1.259613 A    
O19   Cr6   1.947591 S    
C24   H11   1.078322 S    
C6    C44   1.436925 S    
C28   C29   1.395158 A    
O2    C1    1.268781 A    
C33   C38   1.425979 A    
C31   H15   1.082655 S    
C41   C54   1.438613 S    
O3    Cr2   2.065705 S    
C23   C24   1.387897 A    
C48   H25   1.083708 S    
C3    C26   1.493862 S    
C36   C37   1.391161 A    
C34   H16   1.083678 S    
C55   O24   1.260276 A    
C9    C10   1.405479 A    
O10   C5    1.307972 A    
O16   Cr5   2.069956 S    
C21   C25   1.417981 A    
