data_mof_unit_63935.cif
_audit_creation_date              2012-12-11T16:03:50-0500
_audit_creation_method            fapswitch 2.2
_symmetry_space_group_name_H-M    P1
_symmetry_Int_Tables_number       1
_space_group_crystal_system       triclinic
_cell_length_a                    6.952488
_cell_length_b                    18.936154
_cell_length_c                    20.698157
_cell_angle_alpha                 90.0
_cell_angle_beta                  89.999957
_cell_angle_gamma                 90.000133
_cell_volume                      2724.98240025

loop_
_atom_site_label
_atom_site_type_symbol
_atom_type_description
_atom_site_fract_x
_atom_site_fract_y
_atom_site_fract_z
_atom_type_partial_charge
O1    O     O_R   0.708090 0.813600 0.184050 -0.532601
O2    O     O_R   0.291910 0.186400 0.815950 -0.532601
O3    O     O_R   0.291910 0.186400 0.684050 -0.532602
O4    O     O_R   0.708090 0.813600 0.315950 -0.532602
O5    O     O_R   0.208090 0.686400 0.315950 -0.532601
O6    O     O_R   0.791910 0.313600 0.684050 -0.532601
O7    O     O_R   0.791910 0.313600 0.815950 -0.532601
O8    O     O_R   0.208090 0.686400 0.184050 -0.532601
O9    O     O_R   0.378340 0.821960 0.315500 -0.538693
O10   O     O_R   0.621660 0.178040 0.684500 -0.538694
O11   O     O_R   0.621660 0.178040 0.815500 -0.538694
O12   O     O_R   0.378340 0.821960 0.184500 -0.538694
O13   O     O_R   0.878340 0.678040 0.184500 -0.538691
O14   O     O_R   0.121660 0.321960 0.815500 -0.538691
O15   O     O_R   0.121660 0.321960 0.684500 -0.538692
O16   O     O_R   0.878340 0.678040 0.315500 -0.538691
C1    C     C_R   0.546878 0.839158 0.337651 0.725259
C2    C     C_R   0.453122 0.160842 0.662349 0.725259
C3    C     C_R   0.453121 0.160842 0.837651 0.725261
C4    C     C_R   0.546879 0.839158 0.162349 0.725261
C5    C     C_R   0.046878 0.660841 0.162349 0.725267
C6    C     C_R   0.953122 0.339158 0.837651 0.725267
C7    C     C_R   0.953122 0.339158 0.662349 0.725265
C8    C     C_R   0.046878 0.660841 0.337651 0.725265
O17   O     O_3   0.541560 0.705520 0.250000 -0.367239
O18   O     O_3   0.458440 0.294480 0.750000 -0.367240
O19   O     O_3   0.041560 0.794480 0.250000 -0.367244
O20   O     O_3   0.958440 0.205520 0.750000 -0.367244
V1    V     V_3+5 0.266720 0.758250 0.250000 1.439079
V2    V     V_3+5 0.733280 0.241750 0.750000 1.439079
V3    V     V_3+5 0.766720 0.741750 0.250000 1.439086
V4    V     V_3+5 0.233280 0.258250 0.750000 1.439086
C9    C     C_1   0.944965 0.391577 0.611017 -0.206246
C10   C     C_1   0.055035 0.608423 0.388983 -0.206247
C11   C     C_1   0.055035 0.608423 0.111017 -0.206246
C12   C     C_1   0.944965 0.391577 0.888983 -0.206246
C13   C     C_1   0.444963 0.108431 0.888990 -0.206251
C14   C     C_1   0.555037 0.891569 0.111009 -0.206252
C15   C     C_1   0.555036 0.891573 0.388987 -0.206253
C16   C     C_1   0.444964 0.108427 0.611013 -0.206253
C17   C     C_2   0.921469 0.488339 0.516721 0.141869
C18   C     C_2   0.078531 0.511661 0.483279 0.141868
C19   C     C_2   0.078531 0.511660 0.016722 0.141868
C20   C     C_2   0.921469 0.488340 0.983278 0.141867
C21   C     C_2   0.421451 0.011698 0.983309 0.141822
C22   C     C_2   0.578549 0.988302 0.016690 0.141820
C23   C     C_2   0.578540 0.988322 0.483293 0.141848
C24   C     C_2   0.421460 0.011678 0.516707 0.141846
C25   C     C_1   0.062905 0.564549 0.431914 0.040027
C26   C     C_1   0.937095 0.435451 0.568086 0.040027
C27   C     C_1   0.937095 0.435452 0.931913 0.040029
C28   C     C_1   0.062905 0.564548 0.068086 0.040028
C29   C     C_1   0.562912 0.935433 0.068070 0.040012
C30   C     C_1   0.437088 0.064567 0.931930 0.040010
C31   C     C_1   0.437091 0.064557 0.568079 0.040016
C32   C     C_1   0.562909 0.935443 0.431921 0.040016
N1    N     N_3   0.267217 0.484961 0.497353 -0.641453
H1    H     H_    0.298601 0.495460 0.545824 0.244286
H2    H     H_    0.266506 0.430200 0.490826 0.231623
N2    N     N_3   0.732782 0.515040 0.502647 -0.641452
H3    H     H_    0.701396 0.504540 0.454176 0.244285
H4    H     H_    0.733494 0.569801 0.509173 0.231623
N3    N     N_3   0.732784 0.515042 0.997351 -0.641451
H5    H     H_    0.701393 0.504540 0.045821 0.244287
H6    H     H_    0.733505 0.569804 0.990827 0.231622
N4    N     N_3   0.267216 0.484957 0.002649 -0.641452
H7    H     H_    0.298606 0.495458 0.954179 0.244288
H8    H     H_    0.266497 0.430196 0.009175 0.231621
N5    N     N_3   0.767287 0.014901 0.002530 -0.641350
H9    H     H_    0.798444 0.004377 0.954047 0.244209
H10   H     H_    0.766816 0.069664 0.009050 0.231684
N6    N     N_3   0.232712 0.985098 0.997468 -0.641347
H11   H     H_    0.201548 0.995624 0.045951 0.244209
H12   H     H_    0.233185 0.930334 0.990950 0.231685
N7    N     N_3   0.232749 0.985023 0.502594 -0.641405
H13   H     H_    0.201467 0.995535 0.454117 0.244249
H14   H     H_    0.233351 0.930261 0.509117 0.231651
N8    N     N_3   0.767251 0.014977 0.497406 -0.641405
H15   H     H_    0.798532 0.004467 0.545883 0.244250
H16   H     H_    0.766649 0.069739 0.490881 0.231649

loop_
_geom_bond_atom_site_label_1
_geom_bond_atom_site_label_2
_ccdc_geom_bond_type
O17   V3    S    
C24   C31   S    
N4    H8    S    
N3    H6    S    
O18   V4    S    
O12   V1    S    
O19   V1    S    
C17   C18   D    
N7    H13   S    
O15   V4    S    
C21   C22   D    
O16   V3    S    
C14   C29   T    
O11   C3    A    
O8    V1    S    
N2    H4    S    
N8    H16   S    
C19   C28   S    
N1    H2    S    
O1    V3    S    
O3    C2    A    
O2    V4    S    
C1    C15   S    
N5    H10   S    
C2    C16   S    
C22   N5    S    
C3    C13   S    
C23   C24   D    
O11   V2    S    
C7    C9    S    
O9    V1    S    
O15   C7    A    
N4    H7    S    
O16   C8    A    
O7    V2    S    
C21   N6    S    
C24   N7    S    
N5    H9    S    
C18   N1    S    
O5    V1    S    
C20   N3    S    
O17   V1    S    
O19   V3    S    
O20   V4    S    
N6    H12   S    
N8    H15   S    
C9    C26   T    
C8    C10   S    
N2    H3    S    
C19   C20   D    
C4    C14   S    
O10   V2    S    
C15   C32   T    
C16   C31   T    
O12   C4    A    
O8    C5    A    
O13   C5    A    
N7    H14   S    
C12   C27   T    
C13   C30   T    
C20   C27   S    
O9    C1    A    
O6    V2    S    
C21   C30   S    
O18   V2    S    
O4    C1    A    
C17   C26   S    
O1    C4    A    
O2    C3    A    
O13   V3    S    
C17   N2    S    
O14   V4    S    
N6    H11   S    
C5    C11   S    
O7    C6    A    
C6    C12   S    
O14   C6    A    
O20   V2    S    
N1    H1    S    
O5    C8    A    
O10   C2    A    
C19   N4    S    
O6    C7    A    
C22   C29   S    
O3    V4    S    
O4    V3    S    
C18   C25   S    
N3    H5    S    
C10   C25   T    
C11   C28   T    
C23   N8    S    
C23   C32   S    
