data_mof_unit_43825.cif
_audit_creation_date              2012-12-10T17:07:10-0500
_audit_creation_method            fapswitch 2.2
_symmetry_space_group_name_H-M    P1
_symmetry_Int_Tables_number       1
_space_group_crystal_system       triclinic
_cell_length_a                    10.222557
_cell_length_b                    10.673606
_cell_length_c                    13.611075
_cell_angle_alpha                 95.215118
_cell_angle_beta                  83.117133
_cell_angle_gamma                 90.951193
_cell_volume                      1468.29454776

loop_
_atom_site_label
_atom_site_type_symbol
_atom_type_description
_atom_site_fract_x
_atom_site_fract_y
_atom_site_fract_z
_atom_type_partial_charge
C1    C     C_R   0.500977 0.737201 0.503769 0.941202
C2    C     C_R   0.497829 0.263790 0.505120 1.012071
C3    C     C_R   0.523517 0.499891 0.314830 0.922742
C4    C     C_1   0.539634 0.494395 0.210684 -0.025109
C5    C     C_2   0.543987 0.485900 0.018869 -0.314103
C6    C     C_2   0.452988 0.549650 0.981628 0.476818
C7    C     C_1   0.452405 0.534291 0.877502 -0.014439
C8    C     C_1   0.546553 0.489551 0.122705 0.159567
C9    C     C_3   0.110752 0.640659 0.628263 -0.061517
C10   C     C_1   0.460279 0.518494 0.789492 -0.095376
C11   C     C_2   0.592089 0.075603 0.549385 -0.188913
C12   C     C_2   0.489060 0.134979 0.524397 -0.371460
C13   C     C_2   0.583579 0.942187 0.561619 0.449367
C14   C     C_2   0.506185 0.870260 0.505379 -0.419087
C15   C     C_2   0.084962 0.423185 0.437346 0.422624
C16   C     C_2   0.931885 0.423507 0.436814 0.325623
C17   C     C_R   0.476484 0.502735 0.685263 0.878313
H1    H     H_    0.886309 0.547998 0.558590 0.211939
H2    H     H_    0.092999 0.558137 0.672836 0.120681
H3    H     H_    0.038735 0.713989 0.661017 0.185020
H4    H     H_    0.917745 0.193178 0.213936 0.388461
H5    H     H_    0.614099 0.425436 0.970889 0.157404
H6    H     H_    0.683670 0.124834 0.560675 0.210498
H7    H     H_    0.392904 0.090305 0.523356 0.177993
H8    H     H_    0.449622 0.908739 0.452747 0.158131
H9    H     H_    0.186162 0.778130 0.024857 0.394356
H10   H     H_    0.800346 0.041348 0.695209 0.359746
H11   H     H_    0.151646 0.127325 0.272379 0.393120
H12   H     H_    0.210091 0.680532 0.634994 0.196783
N1    N     N_2   0.147970 0.498670 0.498970 -0.007030
N2    N     N_2   0.852310 0.498640 0.498940 -0.238003
O1    O     O_R   0.386960 0.680940 0.500020 -0.603160
O2    O     O_2   0.409303 0.750108 0.113982 -0.279535
O3    O     O_3   0.247895 0.722973 0.979320 -0.530264
O4    O     O_2   0.597684 0.790575 0.707560 -0.276511
O5    O     O_2   0.800066 0.822434 0.596708 -0.286260
O6    O     O_3   0.719696 0.004256 0.729179 -0.516934
O7    O     O_2   0.168314 0.370721 0.243453 -0.207631
O8    O     O_2   0.319249 0.291320 0.341689 -0.283912
O9    O     O_3   0.113432 0.169881 0.336944 -0.484047
O10   O     O_3   0.091460 0.610971 0.528120 -0.571233
O11   O     O_2   0.873594 0.177369 0.407737 -0.278950
O12   O     O_R   0.613100 0.680900 0.499980 -0.546020
O13   O     O_2   0.724794 0.300866 0.335533 -0.266275
O14   O     O_3   0.944102 0.277480 0.241997 -0.461724
O15   O     O_R   0.370650 0.500000 0.640370 -0.653427
O16   O     O_R   0.596800 0.499960 0.640330 -0.598074
O17   O     O_R   0.386900 0.319100 0.500020 -0.581797
O18   O     O_R   0.613040 0.319060 0.499980 -0.566728
O19   O     O_R   0.403200 0.500040 0.359670 -0.533183
O20   O     O_R   0.629350 0.500000 0.359630 -0.567893
O21   O     O_2   0.247651 0.578180 0.123119 -0.232826
S1    S     S_3+6 0.337489 0.652225 0.054025 0.074120
S2    S     S_3+6 0.677252 0.884743 0.649596 0.062170
S3    S     S_3+6 0.177001 0.316155 0.340392 0.110024
S4    S     S_3+6 0.863379 0.295780 0.357240 0.109500
Zn1   Zn    Zn3+2 0.349000 0.500030 0.500020 1.070850
Zn2   Zn    Zn3+2 0.651000 0.499970 0.499980 1.092297

loop_
_geom_bond_atom_site_label_1
_geom_bond_atom_site_label_2
_ccdc_geom_bond_type
C7    C10   T    
C11   C12   D    
C16   S4    S    
N1    O10   S    
C6    C7    S    
H1    N2    S    
C2    O18   A    
C5    C8    S    
C1    O12   A    
C12   H7    S    
C9    H3    S    
C9    O10   S    
C9    H12   S    
C4    C8    T    
O9    S3    S    
C2    C12   S    
C3    C4    S    
O17   Zn1   S    
C14   H8    S    
O20   Zn2   S    
C13   C14   D    
C17   O15   A    
O16   Zn2   S    
O11   S4    D    
C11   C13   S    
O1    Zn1   S    
H10   O6    S    
O6    S2    S    
N2    Zn2   S    
C11   H6    S    
C3    O19   A    
C9    H2    S    
H4    O14   S    
O15   Zn1   S    
O2    S1    D    
C5    C6    D    
O5    S2    D    
O18   Zn2   S    
H11   O9    S    
C10   C17   S    
C15   C16   S    
N1    Zn1   S    
O21   S1    D    
C15   N1    D    
C13   S2    S    
O3    S1    S    
O13   S4    D    
C3    O20   A    
C1    C14   S    
C6    S1    S    
O12   Zn2   S    
C2    O17   A    
O19   Zn1   S    
C16   N2    D    
H9    O3    S    
C1    O1    A    
O8    S3    D    
C5    H5    S    
C17   O16   A    
O14   S4    S    
O4    S2    D    
O7    S3    D    
C15   S3    S    
