data_mof_unit_31448.cif
_audit_creation_date              2012-12-10T17:27:06-0500
_audit_creation_method            fapswitch 2.2
_symmetry_space_group_name_H-M    P1
_symmetry_Int_Tables_number       1
_space_group_crystal_system       triclinic
_cell_length_a                    18.044049
_cell_length_b                    18.337879
_cell_length_c                    12.100758
_cell_angle_alpha                 89.9312
_cell_angle_beta                  86.781529
_cell_angle_gamma                 89.998352
_cell_volume                      3997.69646849

loop_
_atom_site_label
_atom_site_type_symbol
_atom_type_description
_atom_site_fract_x
_atom_site_fract_y
_atom_site_fract_z
_atom_type_partial_charge
C1    C     C_R   0.400461 0.100524 0.520984 0.883929
C2    C     C_R   0.535250 0.004708 0.022094 -0.039641
C3    C     C_R   0.964628 0.497110 0.977959 -0.035522
C4    C     C_R   0.035347 0.496909 0.022054 -0.035609
C5    C     C_R   0.589474 0.000870 0.832751 0.185629
C6    C     C_R   0.410960 0.990226 0.167324 0.186966
C7    C     C_R   0.089409 0.500186 0.832543 0.193198
C8    C     C_R   0.910591 0.500520 0.167472 0.192706
C9    C     C_R   0.598025 0.007959 0.948464 0.118150
C10   C     C_R   0.402950 0.986789 0.051128 0.129189
C11   C     C_R   0.098066 0.495222 0.948237 0.125598
C12   C     C_R   0.599264 0.899246 0.478871 0.873465
C13   C     C_R   0.901900 0.495725 0.051786 0.125620
C14   C     C_R   0.458440 0.999152 0.861263 -0.098031
C15   C     C_R   0.541262 0.007475 0.138796 -0.093582
C16   C     C_R   0.958242 0.497576 0.861155 -0.102128
C17   C     C_R   0.041741 0.497305 0.138851 -0.102313
C18   C     C_R   0.654641 0.156507 0.466712 -0.048402
C19   C     C_R   0.344700 0.844276 0.535400 -0.039080
C20   C     C_R   0.345548 0.156648 0.533149 -0.048537
C21   C     C_R   0.656312 0.845337 0.465122 -0.039923
C22   C     C_R   0.157127 0.653977 0.465500 -0.041962
C23   C     C_R   0.599565 0.100510 0.478950 0.882887
C24   C     C_R   0.845105 0.343754 0.533353 -0.048594
C25   C     C_R   0.843028 0.654023 0.534321 -0.040918
C26   C     C_R   0.154756 0.343674 0.466722 -0.048312
C27   C     C_R   0.232077 0.801851 0.630271 -0.224433
C28   C     C_R   0.724492 0.242891 0.353435 -0.226088
C29   C     C_R   0.769441 0.803655 0.371040 -0.228829
C30   C     C_R   0.277710 0.244721 0.645665 -0.227084
C31   C     C_R   0.775033 0.257587 0.646701 -0.226794
C32   C     C_R   0.270687 0.695225 0.371866 -0.228544
C33   C     C_R   0.222882 0.255887 0.354075 -0.227224
C34   C     C_R   0.401098 0.898880 0.521199 0.873012
C35   C     C_R   0.729306 0.694992 0.627490 -0.230430
C36   C     C_R   0.292470 0.848537 0.625181 -0.220257
C37   C     C_R   0.672346 0.187790 0.362822 -0.204469
C38   C     C_R   0.709020 0.850340 0.376053 -0.215684
C39   C     C_R   0.329517 0.189332 0.636395 -0.204126
C40   C     C_R   0.827319 0.312547 0.637269 -0.201724
C41   C     C_R   0.209602 0.649307 0.376098 -0.216787
C42   C     C_R   0.170943 0.311148 0.363398 -0.201763
C43   C     C_R   0.790203 0.648882 0.623201 -0.218770
C44   C     C_R   0.339573 0.791370 0.453966 -0.279409
C45   C     C_R   0.900584 0.600609 0.521077 0.874400
C46   C     C_R   0.689161 0.179414 0.560836 -0.289706
C47   C     C_R   0.661099 0.791910 0.546009 -0.281497
C48   C     C_R   0.309664 0.178412 0.439586 -0.288493
C49   C     C_R   0.810439 0.320995 0.439273 -0.289504
C50   C     C_R   0.163125 0.706042 0.547947 -0.281590
C51   C     C_R   0.190771 0.322042 0.560229 -0.289220
C52   C     C_R   0.837617 0.706741 0.452489 -0.280496
C53   C     C_R   0.278749 0.745566 0.456960 0.187093
C54   C     C_R   0.740898 0.234246 0.552292 0.191428
C55   C     C_R   0.721855 0.746076 0.543068 0.189373
C56   C     C_R   0.099600 0.399544 0.478994 0.883187
C57   C     C_R   0.258296 0.233583 0.447985 0.191735
C58   C     C_R   0.758614 0.266244 0.447846 0.192073
C59   C     C_R   0.224253 0.751348 0.545387 0.187040
C60   C     C_R   0.242268 0.266994 0.551771 0.192275
C61   C     C_R   0.776746 0.752399 0.455251 0.188595
C62   C     C_3   0.339147 0.992050 0.240289 -0.362886
C63   C     C_3   0.295856 0.919775 0.247130 -0.342835
C64   C     C_3   0.232839 0.922856 0.336933 -0.873193
C65   C     C_3   0.660485 0.993255 0.759992 -0.355778
C66   C     C_3   0.693424 0.916248 0.766873 -0.345114
C67   C     C_R   0.099450 0.600612 0.478838 0.874264
C68   C     C_3   0.765784 0.909793 0.695860 -0.869827
C69   C     C_3   0.839511 0.507194 0.240425 -0.360761
C70   C     C_3   0.803078 0.582388 0.228579 -0.355270
C71   C     C_3   0.731660 0.588345 0.301905 -0.857901
C72   C     C_3   0.160532 0.506626 0.759605 -0.361268
C73   C     C_3   0.197488 0.581531 0.771664 -0.355631
C74   C     C_3   0.268851 0.587286 0.698151 -0.857823
C75   C     C_3   0.706138 0.964660 0.045910 -0.830449
C76   C     C_3   0.320788 0.901499 0.964477 -0.834258
C77   C     C_3   0.192872 0.414464 0.012102 -0.811652
C78   C     C_R   0.900384 0.399545 0.521060 0.883057
C79   C     C_3   0.806559 0.415635 0.988086 -0.812257
C80   C     C_R   0.465073 0.996783 0.977913 -0.032803
H1    H     H_    0.593981 0.015504 0.174605 0.163838
H2    H     H_    0.823852 0.345422 0.358909 0.154755
H3    H     H_    0.880055 0.711021 0.385632 0.142000
H4    H     H_    0.178632 0.347564 0.640053 0.153706
H5    H     H_    0.645763 0.170117 0.289373 0.159951
H6    H     H_    0.296781 0.889842 0.688438 0.153088
H7    H     H_    0.357237 0.172600 0.709391 0.162345
H8    H     H_    0.704814 0.891940 0.313042 0.153277
H9    H     H_    0.204673 0.608547 0.312159 0.150378
H10   H     H_    0.853991 0.330129 0.710683 0.161535
H11   H     H_    0.794716 0.607609 0.686641 0.150511
H12   H     H_    0.404994 0.999513 0.825468 0.149516
H13   H     H_    0.143194 0.327849 0.290412 0.161729
H14   H     H_    0.761535 0.233313 0.727063 0.137832
H15   H     H_    0.311788 0.690875 0.303358 0.139469
H16   H     H_    0.235090 0.230555 0.274211 0.137095
H17   H     H_    0.687883 0.690238 0.695523 0.141028
H18   H     H_    0.190982 0.806159 0.698798 0.139905
H19   H     H_    0.737971 0.267196 0.273083 0.135623
H20   H     H_    0.810836 0.808388 0.302964 0.141133
H21   H     H_    0.265550 0.270116 0.725503 0.135979
H22   H     H_    0.254311 0.936083 0.418622 0.266231
H23   H     H_    0.095145 0.496139 0.174799 0.149476
H24   H     H_    0.191844 0.965182 0.316048 0.256035
H25   H     H_    0.204186 0.869293 0.342809 0.261060
H26   H     H_    0.269310 0.908359 0.169191 0.252356
H27   H     H_    0.333909 0.874135 0.263510 0.233147
H28   H     H_    0.348883 0.007550 0.324165 0.259630
H29   H     H_    0.302569 0.035513 0.209439 0.165744
H30   H     H_    0.756463 0.922692 0.608050 0.268289
H31   H     H_    0.807960 0.947852 0.726256 0.258009
H32   H     H_    0.787490 0.853295 0.700727 0.259084
H33   H     H_    0.704866 0.901805 0.852713 0.235175
H34   H     H_    0.904832 0.496673 0.825207 0.149316
H35   H     H_    0.652897 0.875715 0.739532 0.234004
H36   H     H_    0.652953 0.004654 0.673438 0.250897
H37   H     H_    0.701815 0.034364 0.784255 0.184069
H38   H     H_    0.690376 0.547801 0.275903 0.258163
H39   H     H_    0.742929 0.578564 0.389950 0.267472
H40   H     H_    0.707797 0.643813 0.294187 0.257628
H41   H     H_    0.842361 0.625559 0.251512 0.230536
H42   H     H_    0.789241 0.592612 0.141769 0.226385
H43   H     H_    0.799945 0.463829 0.218577 0.189852
H44   H     H_    0.847510 0.497993 0.327447 0.252836
H45   H     H_    0.675779 0.154966 0.641192 0.154825
H46   H     H_    0.309876 0.546320 0.723773 0.258095
H47   H     H_    0.257381 0.577982 0.610094 0.267419
H48   H     H_    0.293139 0.642538 0.706128 0.257880
H49   H     H_    0.158447 0.625034 0.749052 0.230016
H50   H     H_    0.211525 0.591362 0.858449 0.226688
H51   H     H_    0.199801 0.462921 0.781313 0.189453
H52   H     H_    0.152450 0.497832 0.672554 0.252958
H53   H     H_    0.673822 0.073222 0.025191 0.217901
H54   H     H_    0.761535 0.954423 0.004372 0.251958
H55   H     H_    0.673329 0.913280 0.047148 0.243918
H56   H     H_    0.381709 0.787620 0.386620 0.140885
H57   H     H_    0.714963 0.980918 0.132593 0.224765
H58   H     H_    0.312949 0.015203 0.960251 0.216732
H59   H     H_    0.260781 0.892723 0.953495 0.238321
H60   H     H_    0.340353 0.858943 0.021459 0.246032
H61   H     H_    0.351070 0.894673 0.882954 0.243313
H62   H     H_    0.183266 0.525515 0.048305 0.212460
H63   H     H_    0.251885 0.414017 0.033548 0.241456
H64   H     H_    0.187224 0.379064 0.938598 0.240753
H65   H     H_    0.158333 0.391970 0.082988 0.236593
H66   H     H_    0.816912 0.526652 0.951645 0.212565
H67   H     H_    0.321726 0.152828 0.359793 0.153570
H68   H     H_    0.747547 0.415585 0.966626 0.241377
H69   H     H_    0.811966 0.380126 0.061659 0.240775
H70   H     H_    0.840954 0.392982 0.917259 0.236427
H71   H     H_    0.618461 0.787410 0.612531 0.140469
H72   H     H_    0.120924 0.710079 0.615153 0.142688
N1    N     N_R   0.480750 0.000000 0.209750 -0.132794
N2    N     N_R   0.519250 0.000000 0.790250 -0.128407
N3    N     N_R   0.980750 0.500000 0.209750 -0.128400
N4    N     N_R   0.019250 0.500000 0.790250 -0.128406
N5    N     N_2   0.669651 0.022840 0.988245 -0.314300
N6    N     N_2   0.331659 0.973900 0.009405 -0.318426
N7    N     N_2   0.170686 0.488410 0.988244 -0.318431
N8    N     N_2   0.829234 0.489417 0.011796 -0.318346
O1    O     O_R   0.418020 0.076820 0.422210 -0.650979
O2    O     O_R   0.569630 0.923170 0.391410 -0.617697
O3    O     O_R   0.569630 0.076830 0.391410 -0.626816
O4    O     O_R   0.430370 0.923170 0.608590 -0.622513
O5    O     O_R   0.930370 0.576830 0.608590 -0.621063
O6    O     O_R   0.069630 0.423170 0.391410 -0.623387
O7    O     O_R   0.069630 0.576830 0.391410 -0.621027
O8    O     O_R   0.930370 0.423170 0.608590 -0.623080
O9    O     O_R   0.581980 0.923180 0.577790 -0.633019
O10   O     O_R   0.581980 0.076820 0.577790 -0.648829
O11   O     O_R   0.418020 0.923180 0.422210 -0.626341
O12   O     O_R   0.918020 0.576820 0.422210 -0.633332
O13   O     O_R   0.081980 0.423180 0.577790 -0.647828
O14   O     O_R   0.081980 0.576820 0.577790 -0.633237
O15   O     O_R   0.918020 0.423180 0.422210 -0.648165
O16   O     O_R   0.430370 0.076830 0.608590 -0.623777
Zn1   Zn    Zn3+2 0.491750 0.000000 0.375560 0.925498
Zn2   Zn    Zn3+2 0.508250 0.000000 0.624440 0.923236
Zn3   Zn    Zn3+2 0.991750 0.500000 0.375560 0.924759
Zn4   Zn    Zn3+2 0.008250 0.500000 0.624440 0.925042

loop_
_geom_bond_atom_site_label_1
_geom_bond_atom_site_label_2
_ccdc_geom_bond_type
C44   H56   S    
C66   C68   S    
C45   O12   A    
C1    O16   A    
C8    C13   A    
C66   H33   S    
C77   H65   S    
C42   H13   S    
C73   C74   S    
O9    Zn2   S    
C46   H45   S    
C41   H9    S    
C39   H7    S    
H62   N7    S    
C25   C43   A    
C53   C59   A    
C75   H54   S    
C11   N7    S    
C48   C57   A    
C15   H1    S    
C64   H22   S    
C23   O10   A    
C76   N6    S    
C8    C69   S    
C71   H40   S    
O10   Zn2   S    
C50   C59   A    
C37   H5    S    
C18   C37   A    
C34   O4    A    
C52   C61   A    
C75   H55   S    
C22   C41   A    
H66   N8    S    
C69   H43   S    
C67   O14   A    
C5    N2    A    
C48   H67   S    
C31   C40   A    
C68   H32   S    
C8    N3    A    
H58   N6    S    
O2    Zn1   S    
C44   C53   A    
C74   H48   S    
C21   C38   A    
C1    C20   S    
C30   C60   A    
C29   C38   A    
C16   N4    A    
C32   C41   A    
C70   C71   S    
C14   C80   A    
C35   C43   A    
C10   N6    S    
C13   N8    S    
C3    C13   A    
C22   C50   A    
C76   H61   S    
C75   N5    S    
O16   Zn2   S    
C1    O1    A    
C31   C54   A    
C14   N2    A    
C18   C46   A    
N3    Zn3   S    
C72   H52   S    
C23   O3    A    
C76   H60   S    
C29   C61   A    
C66   H35   S    
C7    N4    A    
C35   C55   A    
C18   C23   S    
C29   H20   S    
C64   H25   S    
C5    C65   S    
C75   H57   S    
C79   N8    S    
C20   C39   A    
C10   C80   A    
C57   C60   A    
O15   Zn3   S    
C69   H44   S    
C36   H6    S    
O8    Zn4   S    
C12   C21   S    
C43   H11   S    
C49   C58   A    
C38   H8    S    
C4    C11   A    
C68   H31   S    
C77   H64   S    
C49   H2    S    
C52   H3    S    
C7    C11   A    
C77   H63   S    
O3    Zn1   S    
C62   C63   S    
C70   H42   S    
C74   H47   S    
C9    N5    S    
C46   C54   A    
C68   H30   S    
C63   H26   S    
C2    C15   A    
C14   H12   S    
C20   C48   A    
C26   C56   S    
C77   N7    S    
C79   H70   S    
C4    C17   A    
O12   Zn3   S    
C24   C78   S    
C47   H71   S    
O7    Zn3   S    
C71   H39   S    
N2    Zn2   S    
C78   O15   A    
C65   H36   S    
C33   C42   A    
C63   H27   S    
C3    C4    A    
C17   N3    A    
C33   H16   S    
C25   C45   S    
C32   C53   A    
C7    C72   S    
O4    Zn2   S    
C19   C44   A    
C28   H19   S    
C72   H51   S    
C47   C55   A    
C54   C58   A    
C76   H59   S    
C67   O7    A    
C24   C49   A    
C64   H24   S    
C73   H50   S    
C27   H18   S    
C33   C57   A    
C71   H38   S    
N1    Zn1   S    
C5    C9    A    
C72   C73   S    
C19   C34   S    
C16   H34   S    
C6    C10   A    
C12   O9    A    
C51   C60   A    
C28   C58   A    
C27   C36   A    
C31   H14   S    
O14   Zn4   S    
C78   O8    A    
O13   Zn4   S    
C79   H69   S    
C56   O13   A    
C19   C36   A    
C6    C62   S    
C17   H23   S    
C25   C52   A    
C27   C59   A    
C26   C51   A    
N4    Zn4   S    
C70   H41   S    
C74   H46   S    
C62   H29   S    
C45   O5    A    
C28   C37   A    
C73   H49   S    
C55   C61   A    
C30   H21   S    
C24   C40   A    
C30   C39   A    
C79   H68   S    
H53   N5    S    
C26   C42   A    
C69   C70   S    
C22   C67   S    
C15   N1    A    
C6    N1    A    
C2    C80   A    
C3    C16   A    
C12   O2    A    
C63   C64   S    
C50   H72   S    
C32   H15   S    
C62   H28   S    
C65   C66   S    
C56   O6    A    
O5    Zn4   S    
C65   H37   S    
O11   Zn1   S    
O6    Zn3   S    
C40   H10   S    
C35   H17   S    
C2    C9    A    
O1    Zn1   S    
C51   H4    S    
C34   O11   A    
C21   C47   A    
