data_mof_unit_45396.cif
_audit_creation_date              2012-12-10T18:47:07-0500
_audit_creation_method            fapswitch 2.2
_symmetry_space_group_name_H-M    P1
_symmetry_Int_Tables_number       1
_space_group_crystal_system       triclinic
_cell_length_a                    10.7662
_cell_length_b                    9.830955
_cell_length_c                    14.891415
_cell_angle_alpha                 89.91699
_cell_angle_beta                  89.752949
_cell_angle_gamma                 88.669373
_cell_volume                      1575.69645497

loop_
_atom_site_label
_atom_site_type_symbol
_atom_type_description
_atom_site_fract_x
_atom_site_fract_y
_atom_site_fract_z
_atom_type_partial_charge
C1    C     C_R   0.259900 0.502014 0.497230 0.920946
C2    C     C_R   0.127017 0.506364 0.492977 -0.174761
C3    C     C_R   0.434520 0.073474 0.563381 0.453049
C4    C     C_R   0.565481 0.926526 0.436619 0.453030
C5    C     C_R   0.564955 0.070453 0.436352 0.452916
C6    C     C_R   0.435048 0.929546 0.563650 0.452947
C7    C     C_R   0.500226 0.500174 0.326985 0.868226
C8    C     C_R   0.499775 0.499827 0.673014 0.868267
C9    C     C_R   0.603095 0.448136 0.813073 -0.236012
C10   C     C_R   0.396905 0.551824 0.186926 -0.236041
C11   C     C_R   0.499147 0.499025 0.768228 -0.043435
C12   C     C_R   0.740100 0.497984 0.502777 0.920990
C13   C     C_R   0.500856 0.500983 0.231771 -0.043425
C14   C     C_R   0.394139 0.547803 0.813506 -0.188042
C15   C     C_R   0.605874 0.452292 0.186493 -0.188060
C16   C     C_R   0.391069 0.544706 0.906869 0.085628
C17   C     C_R   0.608946 0.455388 0.093129 0.085655
C18   C     C_R   0.499051 0.499016 0.953257 0.009297
C19   C     C_R   0.500959 0.501038 0.046742 0.009311
C20   C     C_R   0.605186 0.450875 0.905911 0.118610
C21   C     C_R   0.394821 0.549136 0.094088 0.118614
C22   C     C_R   0.283756 0.587384 0.954843 0.218601
C23   C     C_R   0.287634 0.591719 0.048431 -0.284007
C24   C     C_R   0.716268 0.412742 0.045154 0.218633
C25   C     C_3   0.098438 0.507820 0.884118 -0.807650
C26   C     C_3   0.901453 0.492549 0.115903 -0.807730
C27   C     C_3   0.160811 0.324740 0.315482 -0.769558
C28   C     C_3   0.839221 0.675224 0.684575 -0.769671
C29   C     C_3   0.875147 0.156836 0.505592 -0.686408
C30   C     C_3   0.124799 0.843157 0.494438 -0.686389
C31   C     C_R   0.712381 0.408322 0.951568 -0.283995
C32   C     C_R   0.067139 0.393287 0.456746 0.133533
C33   C     C_R   0.932861 0.606688 0.543291 0.133551
C34   C     C_R   0.939748 0.383376 0.467907 0.093110
C35   C     C_R   0.060251 0.616604 0.532124 0.093134
C36   C     C_R   0.872982 0.493621 0.507047 -0.174808
F1    F     F_    0.367839 0.143062 0.626360 -0.596146
F2    F     F_    0.632163 0.856938 0.373641 -0.596149
F3    F     F_    0.629785 0.137003 0.372390 -0.598466
F4    F     F_    0.370223 0.862997 0.627614 -0.598473
H1    H     H_    0.682894 0.409457 0.775466 0.124715
H2    H     H_    0.012256 0.543755 0.850058 0.236313
H3    H     H_    0.882203 0.304206 0.056755 0.233315
H4    H     H_    0.927689 0.552433 0.055664 0.244841
H5    H     H_    0.987607 0.456716 0.150038 0.236349
H6    H     H_    0.848143 0.559409 0.162950 0.262688
H7    H     H_    0.108776 0.192166 0.416969 0.231734
H8    H     H_    0.072959 0.327133 0.276704 0.228552
H9    H     H_    0.225055 0.246858 0.285887 0.252555
H10   H     H_    0.205313 0.425152 0.310618 0.223670
H11   H     H_    0.891202 0.807813 0.583082 0.231737
H12   H     H_    0.317100 0.590452 0.224531 0.124707
H13   H     H_    0.927051 0.673037 0.723373 0.228558
H14   H     H_    0.794901 0.574712 0.689460 0.223667
H15   H     H_    0.774840 0.753000 0.714136 0.252605
H16   H     H_    0.904999 0.229538 0.375946 0.251159
H17   H     H_    0.970456 0.124140 0.525608 0.205005
H18   H     H_    0.827392 0.067459 0.477865 0.249000
H19   H     H_    0.823805 0.192375 0.566326 0.241988
H20   H     H_    0.095002 0.770427 0.624089 0.251148
H21   H     H_    0.029474 0.875791 0.474420 0.205020
H22   H     H_    0.176177 0.807664 0.433704 0.241989
H23   H     H_    0.315314 0.586468 0.775319 0.184006
H24   H     H_    0.172496 0.932575 0.522165 0.248961
H25   H     H_    0.684703 0.413675 0.224681 0.183980
H26   H     H_    0.205683 0.625364 0.085584 0.149150
H27   H     H_    0.794334 0.374661 0.914414 0.149120
H28   H     H_    0.117946 0.696185 0.943238 0.233304
H29   H     H_    0.072235 0.447936 0.944354 0.244837
H30   H     H_    0.151625 0.440919 0.837009 0.262614
N1    N     N_R   0.500000 0.857200 0.500000 -0.239547
N2    N     N_R   0.500000 0.142800 0.500000 -0.239541
N3    N     N_2   0.171113 0.623431 0.909920 -0.304749
N4    N     N_2   0.828936 0.376844 0.090081 -0.304818
N5    N     N_2   0.136031 0.291007 0.408243 -0.276041
N6    N     N_2   0.863970 0.708958 0.591810 -0.276048
N7    N     N_2   0.878687 0.264049 0.438695 -0.239296
N8    N     N_2   0.121306 0.735928 0.561331 -0.239279
O1    O     O_R   0.316770 0.614620 0.499990 -0.587309
O2    O     O_R   0.683230 0.385380 0.500010 -0.587305
O3    O     O_R   0.683230 0.614620 0.500010 -0.563167
O4    O     O_R   0.316770 0.385380 0.499990 -0.563155
O5    O     O_R   0.499980 0.614680 0.367850 -0.573266
O6    O     O_R   0.500020 0.385320 0.632150 -0.573275
O7    O     O_R   0.500020 0.614680 0.632150 -0.563679
O8    O     O_R   0.499980 0.385320 0.367850 -0.563664
Zn1   Zn    Zn3+2 0.500000 0.653120 0.500000 1.059012
Zn2   Zn    Zn3+2 0.500000 0.346880 0.500000 1.059017

loop_
_geom_bond_atom_site_label_1
_geom_bond_atom_site_label_2
_ccdc_geom_bond_type
C27   H8    S    
C2    C35   A    
O5    Zn1   S    
C30   H24   S    
C7    O5    A    
C3    C6    A    
C10   H12   S    
C32   N5    S    
O1    Zn1   S    
C26   H4    S    
C31   H27   S    
H20   N8    S    
C23   H26   S    
C19   C21   A    
C1    C2    S    
C5    N2    A    
C34   N7    S    
C33   C35   A    
C11   C14   A    
O8    Zn2   S    
C7    O8    A    
C15   H25   S    
C33   C36   A    
C18   C20   A    
C2    C32   A    
C8    O7    A    
C33   N6    S    
C26   H5    S    
C17   C19   A    
C21   C23   A    
C29   H19   S    
C12   C36   S    
C25   N3    S    
C27   H10   S    
H3    N4    S    
C27   N5    S    
N2    Zn2   S    
C28   H15   S    
O7    Zn1   S    
C10   C21   A    
C6    N1    A    
C17   C24   A    
H11   N6    S    
C28   H14   S    
C18   C19   A    
C1    O4    A    
H16   N7    S    
C32   C34   A    
C9    C20   A    
C9    C11   A    
O3    Zn1   S    
N1    Zn1   S    
C4    F2    S    
C13   C15   A    
C1    O1    A    
C14   C16   A    
C25   H29   S    
C28   N6    S    
C15   C17   A    
C5    F3    S    
C16   C22   A    
C8    O6    A    
O6    Zn2   S    
C29   H17   S    
C4    C5    A    
C10   C13   A    
C25   H2    S    
C28   H13   S    
C35   N8    S    
C9    H1    S    
C30   H22   S    
C3    N2    A    
H28   N3    S    
C24   C31   A    
H7    N5    S    
O2    Zn2   S    
C24   N4    S    
C8    C11   S    
O4    Zn2   S    
C14   H23   S    
C12   O2    A    
C26   N4    S    
C34   C36   A    
C12   O3    A    
C6    F4    S    
C26   H6    S    
C30   N8    S    
C7    C13   S    
C29   N7    S    
C29   H18   S    
C3    F1    S    
C16   C18   A    
C30   H21   S    
C22   C23   A    
C25   H30   S    
C22   N3    S    
C4    N1    A    
C27   H9    S    
C20   C31   A    
