data_mof_unit_44487.cif
_audit_creation_date              2013-03-05T16:11:50-0500
_audit_creation_method            fapswitch 2.2
_symmetry_space_group_name_H-M    P1
_symmetry_Int_Tables_number       1
_space_group_crystal_system       triclinic
_cell_length_a                    10.795915
_cell_length_b                    9.662064
_cell_length_c                    23.516556
_cell_angle_alpha                 89.816502
_cell_angle_beta                  89.724523
_cell_angle_gamma                 90.297758
_cell_volume                      2452.95702415

loop_
_atom_site_label
_atom_site_type_symbol
_atom_site_description
_atom_site_fract_x
_atom_site_fract_y
_atom_site_fract_z
_atom_type_partial_charge
O1    O     O_R   0.317570 0.620260 0.500030 -0.533189
O2    O     O_R   0.317570 0.379740 0.500030 -0.594272
C1    C     C_R   0.260827 0.499915 0.500422 0.853638
O3    O     O_R   0.499840 0.620290 0.417900 -0.609792
O4    O     O_R   0.499840 0.379710 0.417900 -0.600205
C2    C     C_R   0.500731 0.500263 0.391246 0.737427
Cu1   Cu    Cu3+1 0.499860 0.642410 0.500030 1.002532
Cu2   Cu    Cu3+1 0.499860 0.357590 0.500030 0.990104
O5    O     O_R   0.682190 0.620260 0.500010 -0.538043
O6    O     O_R   0.682190 0.379740 0.500010 -0.523563
O7    O     O_R   0.499920 0.620230 0.582140 -0.544440
O8    O     O_R   0.499920 0.379770 0.582140 -0.537638
C3    C     C_R   0.739654 0.500054 0.500026 0.841817
C4    C     C_R   0.501805 0.499988 0.608705 0.841731
C5    C     C_R   0.622384 0.510242 0.880005 0.543132
N1    N     N_R   0.512328 0.507231 0.851511 -0.470798
C6    C     C_R   0.401327 0.506151 0.879551 0.548424
C7    C     C_R   0.397591 0.506436 0.939126 -0.041085
C8    C     C_R   0.509244 0.511097 0.969661 -0.063256
C9    C     C_R   0.623955 0.517600 0.940030 -0.113382
C10   C     C_R   0.284338 0.501870 0.968297 -0.138599
C11   C     C_R   0.278861 0.500115 0.027819 0.130094
C12   C     C_R   0.391186 0.502645 0.059591 -0.012623
C13   C     C_R   0.506091 0.508474 0.029833 -0.052144
C14   C     C_R   0.618503 0.510819 0.060124 -0.089925
C15   C     C_R   0.731532 0.518968 0.030719 -0.161785
C16   C     C_R   0.735493 0.526970 0.971615 0.407509
C17   C     C_R   0.394589 0.500076 0.119895 0.535300
N2    N     N_R   0.505290 0.503409 0.147891 -0.461667
C18   C     C_R   0.615746 0.507677 0.119579 0.552851
O9    O     O_2   0.728996 0.502087 0.850105 -0.497019
O10   O     O_2   0.294831 0.504170 0.849691 -0.516056
H1    H     H_    0.198728 0.499116 0.944423 0.206973
O11   O     O_2   0.289332 0.494699 0.150866 -0.545136
O12   O     O_2   0.722656 0.509835 0.149123 -0.539039
H2    H     H_    0.818290 0.523801 0.053658 0.201163
C19   C     C_R   0.501358 0.630104 0.238860 0.211973
C20   C     C_R   0.500360 0.627444 0.298401 -0.212131
H3    H     H_    0.497651 0.724028 0.321140 0.153063
C21   C     C_R   0.502857 0.501428 0.328382 -0.057778
C22   C     C_R   0.508002 0.377189 0.297687 -0.229861
H4    H     H_    0.511586 0.278641 0.319172 0.158119
C23   C     C_R   0.509042 0.378711 0.238465 -0.149149
H5    H     H_    0.512579 0.281977 0.215396 0.143668
C24   C     C_R   0.505385 0.504346 0.208871 0.368230
C25   C     C_R   0.491625 0.380092 0.761918 -0.097013
H6    H     H_    0.476451 0.285114 0.785610 0.138558
C26   C     C_R   0.489382 0.378103 0.702651 -0.185553
H7    H     H_    0.473245 0.280754 0.681527 0.151416
C27   C     C_R   0.506954 0.500896 0.671368 -0.023554
C28   C     C_R   0.530346 0.625122 0.700602 -0.191912
H8    H     H_    0.547034 0.720959 0.677817 0.142862
C29   C     C_R   0.533407 0.626757 0.759850 -0.107384
H9    H     H_    0.550658 0.723131 0.781926 0.135315
C30   C     C_R   0.513076 0.504508 0.790616 0.358901
C31   C     C_3   0.073638 0.650984 0.493842 0.188729
C32   C     C_3   0.072806 0.437658 0.558192 0.216804
H10   H     H_    0.113809 0.694907 0.453838 0.093988
H11   H     H_    0.100385 0.326502 0.559344 0.117227
C33   C     C_3   0.931242 0.647881 0.489718 0.129544
C34   C     C_3   0.928523 0.451681 0.560006 0.113622
H12   H     H_    0.894961 0.714446 0.524179 0.189915
H13   H     H_    0.904185 0.533488 0.591322 0.175561
H14   H     H_    0.103465 0.457203 0.410155 0.189006
H15   H     H_    0.111528 0.304803 0.453550 0.203909
H16   H     H_    0.891235 0.428177 0.411377 0.187139
H17   H     H_    0.903228 0.293797 0.462206 0.192997
C35   C     C_3   0.073328 0.411413 0.451484 -0.629598
C36   C     C_3   0.123091 0.500589 0.501473 0.035811
C37   C     C_3   0.878757 0.499322 0.500532 -0.039612
C38   C     C_3   0.930627 0.402259 0.453654 -0.429125
C39   C     C_3   0.621072 0.085721 0.477848 0.523374
C40   C     C_3   0.619976 0.917208 0.476883 0.499621
H18   H     H_    0.567470 0.119663 0.587121 0.157593
H19   H     H_    0.572898 0.882844 0.585852 0.131286
C41   C     C_3   0.488621 0.083098 0.560590 0.234305
C42   C     C_3   0.490904 0.915816 0.560622 0.231200
C43   C     C_3   0.388605 0.082096 0.470785 0.049983
C44   C     C_3   0.387751 0.917488 0.471455 0.056988
N3    N     N_3   0.500250 0.143650 0.501250 -0.162602
N4    N     N_3   0.500250 0.856350 0.501250 -0.167487
H20   H     H_    0.305220 0.111039 0.496088 0.205155
H21   H     H_    0.305903 0.889714 0.498097 0.222834
O13   O     O_3   0.110187 0.735284 0.539616 -0.642474
H22   H     H_    0.094292 0.832500 0.528035 0.313997
O14   O     O_3   0.126154 0.504419 0.605215 -0.661825
H23   H     H_    0.107134 0.446072 0.639004 0.344199
O15   O     O_3   0.891778 0.702979 0.437361 -0.778593
H24   H     H_    0.936489 0.656053 0.406027 0.330416
O16   O     O_3   0.871078 0.329427 0.579702 -0.693031
H25   H     H_    0.908551 0.250176 0.559496 0.338547
O17   O     O_3   0.715450 0.128195 0.515772 -0.702663
H26   H     H_    0.798083 0.115308 0.498163 0.301690
O18   O     O_3   0.717045 0.872489 0.512443 -0.718483
H27   H     H_    0.797513 0.897452 0.494646 0.337270
C45   C     C_3   0.151605 0.495419 0.054915 -0.711539
H28   H     H_    0.076435 0.494721 0.022809 0.228622
H29   H     H_    0.140719 0.399523 0.080619 0.258842
H30   H     H_    0.137389 0.588411 0.081724 0.256818
C46   C     C_3   0.659109 0.147955 0.418323 -0.776803
H31   H     H_    0.598166 0.118527 0.383323 0.191448
H32   H     H_    0.675357 0.259318 0.417550 0.269394
H33   H     H_    0.752968 0.113237 0.405912 0.156990
C47   C     C_3   0.651930 0.859095 0.416472 -0.694509
H34   H     H_    0.585814 0.887116 0.383393 0.169369
H35   H     H_    0.743126 0.897050 0.401393 0.199199
H36   H     H_    0.669654 0.748231 0.416042 0.303547
C48   C     C_3   0.347936 0.146740 0.413234 -0.785618
H37   H     H_    0.325863 0.256873 0.415213 0.266535
H38   H     H_    0.408389 0.122795 0.377033 0.219403
H39   H     H_    0.255263 0.106637 0.401566 0.183199
C49   C     C_3   0.342497 0.852224 0.414732 -0.793533
H40   H     H_    0.395970 0.882881 0.376873 0.217882
H41   H     H_    0.326235 0.740853 0.415702 0.262880
H42   H     H_    0.246562 0.887019 0.406390 0.180161
O19   O     O_3   0.380301 0.132428 0.587253 -0.702159
H43   H     H_    0.386454 0.109968 0.628312 0.309379
O20   O     O_3   0.385457 0.861731 0.588726 -0.653961
H44   H     H_    0.399606 0.870371 0.630240 0.312000
O21   O     O_3   0.849906 0.546396 0.946698 -0.694756
H45   H     H_    0.841727 0.624028 0.919356 0.357643
C50   C     C_3   0.498040 0.766279 0.207669 -0.845645
H46   H     H_    0.495217 0.855210 0.237469 0.217618
H47   H     H_    0.581951 0.777398 0.180536 0.247052
H48   H     H_    0.414425 0.770734 0.180448 0.246518

loop_
_geom_bond_atom_site_label_1
_geom_bond_atom_site_label_2
_geom_bond_distance
_ccdc_geom_bond_type
C34   C37   1.569205 S    
C20   C21   1.405471 A    
C7    C10   1.399515 A    
C22   H4    1.077462 S    
C8    C9    1.419080 A    
C49   H41   1.089551 S    
C33   O15   1.408599 S    
Cu1   Cu2   2.751948 S    
C4    C27   1.474969 S    
C29   H9    1.083290 S    
O19   H43   0.991598 S    
Cu1   O7    1.942119 S    
C15   C16   1.392280 A    
N2    C18   1.363332 A    
H18   C41   1.114500 S    
C44   C49   1.556978 S    
H14   C35   1.113073 S    
C33   H12   1.107576 S    
C17   N2    1.367517 A    
C1    C36   1.487126 S    
O1    C1    1.311443 A    
O4    C2    1.320937 A    
C39   O17   1.417288 S    
O7    C4    1.317633 A    
C43   N3    1.524253 S    
C32   H11   1.116274 S    
C10   H1    1.083950 S    
C3    C37   1.501901 S    
C5    N1    1.367109 A    
C45   H30   1.110154 S    
C48   H37   1.092759 S    
C43   C48   1.554900 S    
C7    C8    1.406625 A    
C34   H13   1.113639 S    
O5    C3    1.319585 A    
O20   H44   0.992603 S    
C47   H34   1.092668 S    
O13   H22   0.993175 S    
C40   C47   1.566834 S    
C48   H38   1.096239 S    
N1    C6    1.365000 A    
C45   H29   1.110090 S    
C25   C30   1.399275 A    
C12   C13   1.422123 A    
C31   O13   1.408621 S    
C37   C38   1.553882 S    
C33   C37   1.560094 S    
C26   C27   1.405556 A    
C17   O11   1.347452 S    
C10   C11   1.400773 A    
C22   C23   1.392714 A    
C40   O18   1.412448 S    
O3    Cu1   1.943887 S    
C40   N4    1.525657 S    
C49   H40   1.097845 S    
C27   C28   1.407442 A    
C29   C30   1.398979 A    
C5    C9    1.413777 A    
C25   C26   1.394265 A    
C28   H8    1.082207 S    
C13   C14   1.410279 A    
O3    C2    1.320092 A    
C42   O20   1.410733 S    
C44   N4    1.525766 S    
O14   H23   0.992841 S    
C35   C36   1.555872 S    
C14   C15   1.401398 A    
C16   O21   1.376296 S    
C46   H33   1.107155 S    
C31   C33   1.540954 S    
N2    C24   1.434093 S    
C28   C29   1.393991 A    
C23   H5    1.082947 S    
C19   C20   1.400344 A    
C23   C24   1.398144 A    
C43   H20   1.114101 S    
H16   C38   1.111573 S    
C42   N4    1.514642 S    
Cu2   O8    1.943483 S    
H15   C35   1.112551 S    
C45   H28   1.111100 S    
C46   H32   1.089381 S    
C6    C7    1.401390 A    
C12   C17   1.418926 A    
C41   C42   1.616603 S    
C5    O9    1.348649 S    
H19   C42   1.115286 S    
C18   O12   1.350133 S    
C15   H2    1.083981 S    
C26   H7    1.078873 S    
Cu1   N4    2.067376 S    
O8    C4    1.320770 A    
C2    C21   1.478414 S    
C50   H47   1.110103 S    
C34   O16   1.407326 S    
C39   C46   1.573581 S    
C14   C18   1.398561 A    
Cu1   O5    1.981124 S    
C25   H6    1.083374 S    
C21   C22   1.403903 A    
O1    Cu1   1.978483 S    
C11   C45   1.512045 S    
C11   C12   1.427562 A    
O2    Cu2   1.980694 S    
C41   N3    1.515828 S    
C39   C40   1.628395 S    
O6    C3    1.314812 A    
O4    Cu2   1.942527 S    
C32   C34   1.564639 S    
C47   H35   1.105263 S    
C9    C16   1.420488 A    
C48   H39   1.107122 S    
C50   H48   1.110097 S    
C8    C13   1.415433 A    
N1    C30   1.432354 S    
C39   N3    1.523230 S    
C44   H21   1.111959 S    
C43   C44   1.590460 S    
C32   O14   1.406227 S    
O16   H25   0.989697 S    
C20   H3    1.077494 S    
C35   C38   1.543260 S    
O17   H26   0.990346 S    
C41   O19   1.410147 S    
C31   H10   1.115712 S    
O2    C1    1.315677 A    
H17   C38   1.105008 S    
C47   H36   1.089182 S    
O18   H27   0.990806 S    
C19   C50   1.504988 S    
O15   H24   0.991233 S    
Cu2   O6    1.978912 S    
C31   C36   1.560806 S    
Cu2   N3    2.067236 S    
C6    O10   1.350165 S    
O21   H45   0.990960 S    
C46   H31   1.093607 S    
C32   C36   1.558183 S    
C50   H46   1.110979 S    
C19   C24   1.407631 A    
C49   H42   1.108757 S    
