data_mof_unit_43222.cif
_audit_creation_date              2012-12-10T19:49:26-0500
_audit_creation_method            fapswitch 2.2
_symmetry_space_group_name_H-M    P1
_symmetry_Int_Tables_number       1
_space_group_crystal_system       triclinic
_cell_length_a                    15.046644
_cell_length_b                    14.295174
_cell_length_c                    14.878723
_cell_angle_alpha                 89.96514
_cell_angle_beta                  91.16281
_cell_angle_gamma                 90.029268
_cell_volume                      3199.66986303

loop_
_atom_site_label
_atom_site_type_symbol
_atom_type_description
_atom_site_fract_x
_atom_site_fract_y
_atom_site_fract_z
_atom_type_partial_charge
C1    C     C_R   0.327949 0.499805 0.500267 1.047284
C2    C     C_R   0.813245 0.432551 0.451661 0.353533
C3    C     C_R   0.813792 0.560070 0.561848 0.342260
C4    C     C_R   0.188943 0.431830 0.554550 0.359322
C5    C     C_R   0.231728 0.498630 0.501322 -0.314345
C6    C     C_R   0.768238 0.498620 0.503568 -0.315929
C7    C     C_R   0.048089 0.498847 0.507589 -0.215374
C8    C     C_R   0.952076 0.496378 0.508778 -0.216930
C9    C     C_R   0.475990 0.105361 0.421743 0.354305
C10   C     C_R   0.575758 0.894859 0.529039 0.361307
C11   C     C_R   0.523984 0.105248 0.578195 0.355429
C12   C     C_R   0.672028 0.499860 0.500221 1.051097
C13   C     C_R   0.424272 0.894798 0.470809 0.361136
C14   C     C_R   0.467973 0.203419 0.426783 0.421564
C15   C     C_R   0.570409 0.796721 0.536640 0.412929
C16   C     C_R   0.531985 0.203324 0.573206 0.421215
C17   C     C_R   0.429626 0.796671 0.463237 0.414241
C18   C     C_R   0.499995 0.053324 0.499955 -0.282425
C19   C     C_R   0.500008 0.946816 0.499932 -0.300314
C20   C     C_R   0.497388 0.500135 0.326874 0.990872
C21   C     C_R   0.502572 0.500068 0.673151 0.992559
C22   C     C_R   0.585070 0.519990 0.815851 0.408363
C23   C     C_R   0.336432 0.546765 0.039582 0.382312
C24   C     C_R   0.414934 0.520844 0.184265 0.406468
C25   C     C_R   0.504667 0.501782 0.769434 -0.325733
C26   C     C_R   0.495254 0.502024 0.230633 -0.324222
C27   C     C_R   0.424109 0.495816 0.813467 0.388564
C28   C     C_R   0.575838 0.495939 0.186651 0.388587
C29   C     C_R   0.420851 0.523565 0.903551 -0.138521
C30   C     C_R   0.579161 0.523532 0.096494 -0.138192
C31   C     C_R   0.501298 0.531653 0.953168 -0.149898
C32   C     C_R   0.498727 0.531729 0.046862 -0.149656
C33   C     C_R   0.584199 0.532932 0.909431 -0.039712
C34   C     C_R   0.663632 0.546266 0.960386 0.380821
C35   C     C_R   0.415832 0.533427 0.090609 -0.039377
C36   C     C_R   0.339239 0.542498 0.945174 0.341859
C37   C     C_R   0.660808 0.542300 0.054804 0.341748
C38   C     C_3   0.690704 0.432521 0.744229 0.136403
C39   C     C_3   0.789267 0.417563 0.766798 -0.300723
C40   C     C_3   0.823987 0.328858 0.722581 -0.938732
C41   C     C_3   0.308190 0.435330 0.256502 0.136383
C42   C     C_3   0.208329 0.423707 0.238840 -0.291439
C43   C     C_3   0.173384 0.335200 0.283387 -0.939822
C44   C     C_3   0.324794 0.374364 0.798909 0.178589
C45   C     C_R   0.090854 0.563014 0.450312 0.350797
C46   C     C_3   0.381535 0.296825 0.757596 -0.343274
C47   C     C_3   0.348267 0.199997 0.783864 -0.913708
C48   C     C_3   0.675720 0.375157 0.202261 0.178754
C49   C     C_3   0.620204 0.297558 0.245236 -0.342963
C50   C     C_3   0.653946 0.200762 0.219710 -0.914327
C51   C     C_3   0.259906 0.638069 0.848242 0.155871
C52   C     C_3   0.217994 0.714643 0.905524 -0.412610
C53   C     C_3   0.209791 0.806387 0.853543 -0.878582
C54   C     C_3   0.740097 0.638520 0.151091 0.157278
C55   C     C_3   0.781520 0.714934 0.093092 -0.412470
C56   C     C_R   0.906037 0.432167 0.452483 0.351259
C57   C     C_3   0.789656 0.807028 0.144411 -0.879462
C58   C     C_R   0.906708 0.559048 0.565234 0.323893
C59   C     C_R   0.096532 0.433601 0.560455 0.323957
C60   C     C_R   0.183729 0.562658 0.447856 0.333871
H1    H     H_    0.681222 0.427342 0.670631 0.140190
H2    H     H_    0.172049 0.485166 0.265232 0.265030
H3    H     H_    0.195011 0.419027 0.165302 0.243288
H4    H     H_    0.209423 0.272761 0.258750 0.291435
H5    H     H_    0.101588 0.326837 0.266674 0.285655
H6    H     H_    0.181913 0.339908 0.357600 0.261522
H7    H     H_    0.254035 0.362643 0.779637 0.200480
H8    H     H_    0.327953 0.368860 0.873595 0.118613
H9    H     H_    0.379479 0.302633 0.683239 0.295038
H10   H     H_    0.451682 0.304277 0.781289 0.237700
H11   H     H_    0.351094 0.191522 0.858083 0.265331
H12   H     H_    0.652257 0.374765 0.776090 0.126814
H13   H     H_    0.390891 0.145727 0.753283 0.297525
H14   H     H_    0.278801 0.189665 0.759139 0.264795
H15   H     H_    0.746771 0.364425 0.220905 0.200111
H16   H     H_    0.671739 0.368718 0.127664 0.117512
H17   H     H_    0.623178 0.304289 0.319515 0.294075
H18   H     H_    0.549741 0.304054 0.222319 0.240286
H19   H     H_    0.650247 0.191374 0.145624 0.265612
H20   H     H_    0.612188 0.146434 0.251517 0.296337
H21   H     H_    0.723788 0.191422 0.243654 0.264813
H22   H     H_    0.218456 0.628588 0.786253 0.189689
H23   H     H_    0.828581 0.478376 0.743427 0.263444
H24   H     H_    0.326729 0.660993 0.825630 0.136352
H25   H     H_    0.150803 0.691924 0.926311 0.245333
H26   H     H_    0.259726 0.726611 0.966911 0.243075
H27   H     H_    0.276437 0.831190 0.833256 0.262833
H28   H     H_    0.179436 0.860441 0.896804 0.276763
H29   H     H_    0.166870 0.796837 0.792602 0.274894
H30   H     H_    0.781851 0.629594 0.212953 0.191773
H31   H     H_    0.673313 0.661279 0.173870 0.136380
H32   H     H_    0.848684 0.692384 0.072158 0.245530
H33   H     H_    0.739493 0.726362 0.031807 0.243136
H34   H     H_    0.798628 0.411149 0.840773 0.242073
H35   H     H_    0.723025 0.831659 0.164826 0.262944
H36   H     H_    0.819648 0.860951 0.100643 0.276809
H37   H     H_    0.832866 0.798041 0.205230 0.274814
H38   H     H_    0.206961 0.564059 0.039596 0.358384
H39   H     H_    0.793146 0.563268 0.960256 0.358540
H40   H     H_    0.980049 0.618113 0.400510 0.359732
H41   H     H_    0.013723 0.375749 0.401850 0.354723
H42   H     H_    0.014441 0.606086 0.627823 0.356679
H43   H     H_    0.993135 0.386260 0.625567 0.353581
H44   H     H_    0.188417 0.660993 0.355710 0.414235
H45   H     H_    0.784644 0.267168 0.743760 0.293854
H46   H     H_    0.803191 0.321740 0.374313 0.377457
H47   H     H_    0.804909 0.654594 0.657076 0.415604
H48   H     H_    0.201475 0.317593 0.626806 0.376914
H49   H     H_    0.484796 0.001390 0.338145 0.347137
H50   H     H_    0.658804 0.999114 0.525547 0.351607
H51   H     H_    0.515184 0.001117 0.661743 0.347058
H52   H     H_    0.341203 0.998940 0.474274 0.351775
H53   H     H_    0.392589 0.299815 0.382584 0.349516
H54   H     H_    0.611817 0.697565 0.611835 0.391427
H55   H     H_    0.607197 0.299808 0.617476 0.348940
H56   H     H_    0.894492 0.317671 0.743211 0.281661
H57   H     H_    0.388051 0.697323 0.388214 0.390821
H58   H     H_    0.819870 0.335442 0.648194 0.262829
H59   H     H_    0.321093 0.428821 0.329526 0.137721
H60   H     H_    0.343247 0.376995 0.221870 0.126446
N1    N     N_R   0.500000 0.252470 0.500000 -0.263004
N2    N     N_R   0.500000 0.747530 0.500000 -0.284427
O1    O     O_R   0.369060 0.579480 0.500010 -0.577839
O2    O     O_3   0.335629 0.525916 0.230028 -0.559470
O3    O     O_3   0.349231 0.464153 0.766614 -0.602441
O4    O     O_3   0.650814 0.465008 0.233811 -0.601821
O5    O     O_3   0.261018 0.551520 0.894835 -0.641210
O6    O     O_3   0.739006 0.551671 0.105115 -0.641204
O7    O     O_3   0.257580 0.563479 0.083041 -0.725514
O8    O     O_3   0.742492 0.562897 0.916849 -0.725472
O9    O     O_3   0.044971 0.625996 0.395723 -0.743799
O10   O     O_3   0.948522 0.369721 0.396459 -0.761595
O11   O     O_3   0.950267 0.620338 0.623371 -0.743932
O12   O     O_R   0.630940 0.420520 0.499990 -0.628135
O13   O     O_3   0.056434 0.370675 0.617856 -0.761624
O14   O     O_3   0.229788 0.620504 0.390558 -0.681937
O15   O     O_3   0.764195 0.370459 0.399454 -0.745315
O16   O     O_3   0.765115 0.616843 0.617729 -0.680846
O17   O     O_3   0.239773 0.366908 0.601477 -0.743946
O18   O     O_3   0.456114 0.063597 0.340078 -0.675301
O19   O     O_3   0.655236 0.936733 0.554086 -0.648491
O20   O     O_3   0.543861 0.063361 0.659840 -0.676057
O21   O     O_3   0.344798 0.936605 0.445727 -0.648653
O22   O     O_3   0.426653 0.248187 0.356060 -0.722609
O23   O     O_R   0.630940 0.579480 0.499990 -0.577935
O24   O     O_3   0.638324 0.752108 0.581839 -0.629590
O25   O     O_3   0.573235 0.248021 0.643970 -0.723992
O26   O     O_3   0.361729 0.752059 0.417949 -0.629170
O27   O     O_R   0.369060 0.420520 0.500010 -0.625186
O28   O     O_R   0.499980 0.579490 0.367850 -0.639353
O29   O     O_R   0.500020 0.420510 0.632150 -0.635315
O30   O     O_R   0.500020 0.579490 0.632150 -0.639636
O31   O     O_R   0.499980 0.420510 0.367850 -0.636163
O32   O     O_3   0.664503 0.523627 0.770240 -0.558456
Zn1   Zn    Zn3+2 0.500000 0.606140 0.500000 0.996369
Zn2   Zn    Zn3+2 0.500000 0.393860 0.500000 0.952341

loop_
_geom_bond_atom_site_label_1
_geom_bond_atom_site_label_2
_ccdc_geom_bond_type
C40   H58   S    
C45   C60   A    
C15   N2    A    
C27   C29   A    
C34   C37   A    
N2    Zn1   S    
C48   H16   S    
C55   H33   S    
C3    C6    A    
C50   H19   S    
C8    C56   A    
H40   O9    S    
C7    C8    S    
C11   C18   A    
O1    Zn1   S    
C29   C36   A    
H57   O26   S    
C1    C5    S    
C7    C45   A    
C41   O2    S    
C52   H25   S    
N1    Zn2   S    
O27   Zn2   S    
C24   C26   A    
C54   H30   S    
C10   C15   A    
C49   H17   S    
C6    C12   S    
C38   C39   S    
C9    O18   S    
C23   C36   A    
H55   O25   S    
C24   O2    S    
C49   H18   S    
C23   O7    S    
C18   C19   S    
C41   C42   S    
C21   O30   A    
C22   C33   A    
H43   O13   S    
C46   H9    S    
C21   C25   S    
H51   O20   S    
C8    C58   A    
C46   C47   S    
O12   Zn2   S    
C44   C46   S    
C28   C30   A    
C22   C25   A    
C31   C33   A    
C1    O27   A    
C60   O14   S    
C5    C60   A    
C37   O6    S    
C13   O21   S    
C14   N1    A    
C12   O12   A    
C48   H15   S    
C2    C6    A    
C52   H26   S    
C7    C59   A    
C28   O4    S    
C43   H4    S    
C14   O22   S    
C58   O11   S    
C38   H12   S    
C44   O3    S    
C24   C35   A    
C20   O31   A    
C13   C19   A    
C51   C52   S    
C32   C35   A    
C17   O26   S    
H54   O24   S    
C39   C40   S    
H41   O10   S    
H46   O15   S    
C54   O6    S    
C57   H36   S    
C30   C37   A    
C10   O19   S    
C12   O23   A    
H50   O19   S    
C9    C14   A    
C1    O1    A    
C39   H34   S    
C55   H32   S    
H48   O17   S    
C4    C59   A    
C11   C16   A    
C17   N2    A    
C31   C32   A    
O30   Zn1   S    
C10   C19   A    
C43   H5    S    
C57   H37   S    
C33   C34   A    
C53   H27   S    
C3    O16   S    
O29   Zn2   S    
C41   H59   S    
O31   Zn2   S    
C51   H22   S    
C47   H13   S    
C56   O10   S    
H49   O18   S    
C48   C49   S    
C45   O9    S    
C23   C35   A    
O28   Zn1   S    
C16   O25   S    
C53   H29   S    
C44   H8    S    
C36   O5    S    
C42   C43   S    
C47   H11   S    
C52   C53   S    
H52   O21   S    
C22   O32   S    
C16   N1    A    
C42   H2    S    
C54   C55   S    
H44   O14   S    
H39   O8    S    
C2    O15   S    
C47   H14   S    
C4    C5    A    
C50   H20   S    
C15   O24   S    
C25   C27   A    
C26   C28   A    
H53   O22   S    
C13   C17   A    
C51   O5    S    
C38   H1    S    
H47   O16   S    
C55   C57   S    
H42   O11   S    
C39   H23   S    
C54   H31   S    
C29   C31   A    
C2    C56   A    
C4    O17   S    
C30   C32   A    
C27   O3    S    
C40   H56   S    
C20   C26   S    
C43   H6    S    
C42   H3    S    
H38   O7    S    
C59   O13   S    
C20   O28   A    
C53   H28   S    
C21   O29   A    
C41   H60   S    
C11   O20   S    
C46   H10   S    
C48   O4    S    
O23   Zn1   S    
C3    C58   A    
C9    C18   A    
C34   O8    S    
C49   C50   S    
C57   H35   S    
C38   O32   S    
C44   H7    S    
C51   H24   S    
C50   H21   S    
C40   H45   S    
