data_mof_unit_31100.cif
_audit_creation_date              2012-12-10T17:18:53-0500
_audit_creation_method            fapswitch 2.2
_symmetry_space_group_name_H-M    P1
_symmetry_Int_Tables_number       1
_space_group_crystal_system       triclinic
_cell_length_a                    9.616915
_cell_length_b                    10.777722
_cell_length_c                    13.439608
_cell_angle_alpha                 92.448833
_cell_angle_beta                  73.063155
_cell_angle_gamma                 90.040455
_cell_volume                      1331.25783576

loop_
_atom_site_label
_atom_site_type_symbol
_atom_type_description
_atom_site_fract_x
_atom_site_fract_y
_atom_site_fract_z
_atom_type_partial_charge
C1    C     C_R   0.498447 0.737378 0.503807 0.801763
C2    C     C_R   0.447233 0.434945 0.972530 0.078454
C3    C     C_R   0.492214 0.435250 0.862250 0.095302
C4    C     C_R   0.553085 0.453346 0.026738 0.073350
C5    C     C_R   0.702008 0.460468 0.969806 0.176404
C6    C     C_R   0.745498 0.436130 0.862889 -0.267824
C7    C     C_R   0.642315 0.418497 0.810487 -0.197487
C8    C     C_R   0.515373 0.470364 0.135350 -0.260312
C9    C     C_R   0.767444 0.502441 0.128480 -0.203843
C10   C     C_R   0.385150 0.450098 0.808626 -0.103994
C11   C     C_R   0.283688 0.879699 0.668912 -0.185860
C12   C     C_R   0.424057 0.485064 0.698266 0.771699
C13   C     C_R   0.180607 0.948818 0.745795 -0.139765
C14   C     C_R   0.180599 0.077854 0.745596 -0.128780
C15   C     C_R   0.283546 0.138546 0.668433 -0.171476
C16   C     C_R   0.387824 0.070437 0.588615 0.099050
C17   C     C_R   0.387875 0.939176 0.588858 0.098085
C18   C     C_R   0.495694 0.871615 0.510972 -0.104482
C19   C     C_R   0.604602 0.932665 0.438022 -0.194126
C20   C     C_R   0.604577 0.060646 0.437785 -0.203929
C21   C     C_R   0.495642 0.129545 0.510505 -0.087742
C22   C     C_R   0.912399 0.336536 0.360629 -0.147092
C23   C     C_R   0.498677 0.262935 0.503111 0.757913
C24   C     C_R   0.011819 0.256110 0.292623 -0.218332
C25   C     C_R   0.154793 0.254835 0.293366 -0.221973
C26   C     C_R   0.199468 0.334473 0.361681 -0.149431
C27   C     C_R   0.102254 0.418975 0.431876 0.213331
C28   C     C_R   0.952910 0.419482 0.431613 0.208281
C29   C     C_R   0.899640 0.576361 0.565365 -0.067705
C30   C     C_R   0.047436 0.576426 0.565268 -0.065727
C31   C     C_R   0.577638 0.499364 0.300303 0.783295
C32   C     C_R   0.806623 0.489026 0.020537 -0.209637
C33   C     C_R   0.621661 0.491436 0.186408 -0.046024
C34   C     C_R   0.238493 0.432066 0.862643 -0.213160
C35   C     C_R   0.197887 0.407552 0.967969 -0.153402
C36   C     C_R   0.298963 0.414610 0.023567 -0.181948
Cu1   Cu    Cu3+1 0.359340 0.500010 0.500010 0.924994
Cu2   Cu    Cu3+1 0.640660 0.499990 0.499990 0.926258
H1    H     H_    0.850795 0.521683 0.166368 0.160187
H2    H     H_    0.282370 0.779935 0.674470 0.142536
H3    H     H_    0.101617 0.902053 0.806600 0.133808
H4    H     H_    0.101682 0.131288 0.806261 0.134996
H5    H     H_    0.281808 0.238800 0.673526 0.148587
H6    H     H_    0.688181 0.106193 0.378923 0.139104
H7    H     H_    0.822869 0.638995 0.619055 0.147931
H8    H     H_    0.805360 0.329319 0.354209 0.195069
H9    H     H_    0.977267 0.193985 0.239144 0.148173
H10   H     H_    0.232153 0.191809 0.240352 0.155187
H11   H     H_    0.311471 0.325489 0.355666 0.199182
H12   H     H_    0.080721 0.639159 0.618828 0.134929
H13   H     H_    0.918289 0.502251 0.975931 0.131782
H14   H     H_    0.403473 0.469119 0.181805 0.157113
H15   H     H_    0.155269 0.434644 0.823093 0.144483
H16   H     H_    0.258520 0.399270 0.105624 0.138842
H17   H     H_    0.086847 0.385387 0.008228 0.139568
H18   H     H_    0.683887 0.387028 0.730085 0.192991
H19   H     H_    0.688212 0.880707 0.379332 0.152359
N1    N     N_R   0.852480 0.498790 0.499000 -0.204430
N2    N     N_R   0.148360 0.498710 0.498970 -0.198916
O1    O     O_R   0.381190 0.680360 0.500010 -0.572977
O2    O     O_R   0.618760 0.680340 0.500000 -0.569016
O3    O     O_R   0.323240 0.499990 0.650990 -0.592475
O4    O     O_R   0.560820 0.499960 0.650980 -0.588198
O5    O     O_R   0.381240 0.319660 0.500000 -0.602066
O6    O     O_R   0.618810 0.319640 0.499990 -0.596930
O7    O     O_R   0.439180 0.500040 0.349020 -0.597013
O8    O     O_R   0.676760 0.500010 0.349010 -0.600828
H20   H     H_    0.859838 0.430110 0.819514 0.141895

loop_
_geom_bond_atom_site_label_1
_geom_bond_atom_site_label_2
_ccdc_geom_bond_type
C31   O7    A    
C2    C4    A    
C24   C25   A    
C31   C33   S    
C32   H13   S    
C29   C30   A    
C28   N1    A    
C12   O3    A    
C8    H14   S    
C35   C36   A    
Cu2   O6    S    
C4    C8    A    
C14   H4    S    
Cu2   O2    S    
C30   N2    A    
C23   O6    A    
C6    H20   S    
C2    C3    A    
C30   H12   S    
C15   H5    S    
C10   C34   A    
C3    C10   A    
C27   N2    A    
C13   C14   A    
C29   N1    A    
C31   O8    A    
C11   C13   A    
C25   H10   S    
C1    C18   S    
Cu1   N2    S    
C10   C12   S    
C7    H18   S    
C9    C33   A    
C5    C6    A    
C13   H3    S    
C23   O5    A    
C22   H8    S    
Cu1   Cu2   S    
C17   C18   A    
C6    C7    A    
C3    C7    A    
C8    C33   A    
C21   C23   S    
Cu1   O7    S    
C26   C27   A    
C11   H2    S    
C22   C24   A    
C26   H11   S    
Cu1   O1    S    
C36   H16   S    
C35   H17   S    
C15   C16   A    
Cu2   O8    S    
C9    H1    S    
Cu1   O5    S    
C20   C21   A    
C34   H15   S    
C34   C35   A    
C1    O1    A    
C2    C36   A    
C27   C28   A    
C12   O4    A    
Cu1   O3    S    
C14   C15   A    
C18   C19   A    
C22   C28   A    
C9    C32   A    
C20   H6    S    
C25   C26   A    
Cu2   O4    S    
C24   H9    S    
C16   C21   A    
Cu2   N1    S    
C19   H19   S    
C5    C32   A    
C11   C17   A    
C19   C20   A    
C16   C17   A    
C29   H7    S    
C4    C5    A    
C1    O2    A    
