data_mof_unit_66177.cif
_audit_creation_date              2012-12-10T20:20:10-0500
_audit_creation_method            fapswitch 2.2
_symmetry_space_group_name_H-M    P1
_symmetry_Int_Tables_number       1
_space_group_crystal_system       triclinic
_cell_length_a                    47.713534
_cell_length_b                    35.51993
_cell_length_c                    31.854512
_cell_angle_alpha                 90.008411
_cell_angle_beta                  131.884598
_cell_angle_gamma                 89.994455
_cell_volume                      40192.416171

loop_
_atom_site_label
_atom_site_type_symbol
_atom_type_description
_atom_site_fract_x
_atom_site_fract_y
_atom_site_fract_z
_atom_type_partial_charge
C1    C     C_R   0.073461 0.000014 0.573464 0.876986
C2    C     C_3   0.040748 0.003951 0.766472 -0.394971
C3    C     C_R   0.573475 0.000119 0.073479 0.876676
C4    C     C_R   0.926525 0.500119 0.926521 0.876544
C5    C     C_R   0.073475 0.500119 0.073479 0.876563
C6    C     C_R   0.500005 0.073605 0.000013 0.893218
C7    C     C_R   0.000000 0.573603 0.000003 0.893677
C8    C     C_R   0.474274 0.826272 0.949241 -0.196998
C9    C     C_R   0.525731 0.826274 0.050732 -0.196981
C10   C     C_R   0.974274 0.326272 0.949241 -0.197018
C11   C     C_R   0.025731 0.326275 0.050731 -0.197028
C12   C     C_R   0.474050 0.865521 0.948802 -0.022516
C13   C     C_3   0.459589 0.506483 0.233864 -0.394777
C14   C     C_R   0.525955 0.865524 0.051178 -0.022529
C15   C     C_R   0.974050 0.365521 0.948802 -0.022523
C16   C     C_R   0.025955 0.365524 0.051178 -0.022513
C17   C     C_R   0.500002 0.885483 0.999992 -0.133166
C18   C     C_R   0.000002 0.385483 0.999992 -0.133166
C19   C     C_R   0.500003 0.806891 0.999984 0.119385
C20   C     C_R   0.000003 0.306892 0.999984 0.119393
C21   C     C_1   0.500001 0.766845 0.999982 -0.044103
C22   C     C_1   0.000002 0.266845 0.999981 -0.044130
C23   C     C_3   0.018976 0.963576 0.293312 -0.391440
C24   C     C_3   0.539537 0.510535 0.765274 -0.394538
C25   C     C_3   0.983218 0.962526 0.708865 -0.391442
C26   C     C_3   0.514401 0.461524 0.288740 -0.391521
C27   C     C_3   0.489534 0.460281 0.715177 -0.391990
C28   C     C_1   0.000001 0.233191 0.999982 -0.071762
C29   C     C_1   0.500001 0.733191 0.999982 -0.071736
C30   C     C_R   0.965852 0.173693 0.965666 -0.164653
C31   C     C_R   0.034149 0.173693 0.034310 -0.164626
C32   C     C_R   0.465852 0.673693 0.965714 -0.164638
C33   C     C_R   0.534149 0.673693 0.034262 -0.164650
C34   C     C_R   0.965805 0.134513 0.965627 -0.199566
C35   C     C_1   0.999984 0.999716 0.163163 -0.114923
C36   C     C_R   0.034196 0.134513 0.034359 -0.199555
C37   C     C_R   0.465804 0.634513 0.965675 -0.199564
C38   C     C_R   0.534196 0.634513 0.034312 -0.199617
C39   C     C_R   0.000000 0.114625 0.999996 -0.037484
C40   C     C_R   0.500000 0.614625 0.999996 -0.037364
C41   C     C_R   0.000001 0.193154 0.999985 0.159913
C42   C     C_R   0.500000 0.693154 0.999986 0.159907
C43   C     C_R   0.497880 0.173640 0.036306 0.023478
C44   C     C_R   0.502414 0.173746 0.964343 0.020891
C45   C     C_R   0.997914 0.673682 0.036197 0.024383
C46   C     C_1   0.000015 0.999726 0.836836 -0.114908
C47   C     C_R   0.002102 0.673682 0.963860 0.024379
C48   C     C_R   0.497872 0.134450 0.036002 -0.235429
C49   C     C_R   0.502287 0.134549 0.964344 -0.242002
C50   C     C_R   0.997966 0.634490 0.036027 -0.238220
C51   C     C_R   0.002043 0.634490 0.964009 -0.238204
C52   C     C_R   0.500046 0.114757 0.000101 -0.076000
C53   C     C_R   0.000003 0.614751 0.000013 -0.077926
C54   C     C_R   0.500181 0.193346 0.000401 0.043068
C55   C     C_R   0.000010 0.693335 0.000033 0.046613
C56   C     C_1   0.500204 0.233511 0.000505 -0.038104
C57   C     C_1   0.499984 0.499715 0.163162 -0.114896
C58   C     C_1   0.000011 0.733495 0.000040 -0.040823
C59   C     C_3   0.018972 0.963510 0.244711 -0.389157
C60   C     C_3   0.983220 0.962457 0.757465 -0.388951
C61   C     C_3   0.514399 0.461459 0.240139 -0.388634
C62   C     C_3   0.489534 0.460212 0.763776 -0.388832
C63   C     C_1   0.000011 0.767057 0.000040 -0.051987
C64   C     C_1   0.500184 0.267076 0.000530 0.005330
C65   C     C_R   0.980772 0.826604 0.012713 0.064656
C66   C     C_R   0.019243 0.826589 0.987342 0.064657
C67   C     C_R   0.481096 0.326673 0.013497 0.038462
C68   C     C_1   0.500015 0.499723 0.836837 -0.115412
C69   C     C_R   0.519010 0.326384 0.987259 0.067860
C70   C     C_R   0.980740 0.865958 0.012641 -0.029528
C71   C     C_R   0.019266 0.865942 0.987387 -0.029523
C72   C     C_R   0.481014 0.366025 0.013232 -0.030177
C73   C     C_R   0.519034 0.365879 0.987074 -0.065834
C74   C     C_R   0.000001 0.885636 0.000008 -0.212752
C75   C     C_R   0.500004 0.385635 0.000071 -0.187694
C76   C     C_R   0.000009 0.807140 0.000034 0.028771
C77   C     C_R   0.500105 0.307154 0.000478 0.062710
C78   C     C_1   0.000003 0.999759 0.125648 -0.171712
C79   C     C_1   0.999984 0.999928 0.336789 -0.119310
C80   C     C_1   0.999996 0.999764 0.874352 -0.171699
C81   C     C_1   0.500003 0.499758 0.125647 -0.171177
C82   C     C_1   0.499996 0.499762 0.874352 -0.171190
C83   C     C_3   0.999976 0.999854 0.291067 0.352552
C84   C     C_3   0.000025 0.999873 0.708933 0.352497
C85   C     C_3   0.499973 0.499852 0.291065 0.352486
C86   C     C_3   0.500029 0.499869 0.708938 0.353000
C87   C     C_3   0.021868 0.034348 0.247515 -0.394929
C88   C     C_3   0.976110 0.032997 0.750474 -0.394732
C89   C     C_3   0.525929 0.531412 0.251579 -0.394577
C90   C     C_1   0.000018 0.999948 0.663212 -0.119285
C91   C     C_3   0.471015 0.528647 0.745371 -0.394322
C92   C     C_3   0.999975 0.999744 0.208863 0.348876
C93   C     C_3   0.000024 0.999758 0.791137 0.348826
C94   C     C_3   0.499974 0.499743 0.208861 0.348731
C95   C     C_3   0.500026 0.499754 0.791139 0.349492
C96   C     C_1   0.446120 0.884622 0.895662 0.171004
C97   C     C_1   0.553884 0.884628 0.104322 0.171005
C98   C     C_1   0.946120 0.384622 0.895662 0.170968
C99   C     C_1   0.053885 0.384628 0.104322 0.170972
C100  C     C_1   0.495475 0.193044 0.073714 0.143157
C101  C     C_1   0.499982 0.499927 0.336787 -0.119280
C102  C     C_1   0.504888 0.193288 0.927099 0.167704
C103  C     C_1   0.995669 0.693143 0.073739 0.147171
C104  C     C_1   0.004351 0.693142 0.926327 0.147179
C105  C     C_1   0.961827 0.885918 0.027349 0.220997
C106  C     C_1   0.038173 0.885886 0.972664 0.220994
C107  C     C_1   0.462330 0.386060 0.028273 0.220781
C108  C     C_1   0.537641 0.385889 0.971877 0.158913
C109  C     C_R   0.926539 0.000014 0.426535 0.876986
C110  C     C_1   0.500021 0.499945 0.663216 -0.119506
C111  C     C_1   0.999999 0.999987 0.374343 -0.184499
C112  C     C_1   0.000003 0.000002 0.625658 -0.184473
C113  C     C_1   0.499997 0.499986 0.374341 -0.184483
C114  C     C_1   0.500005 0.500001 0.625661 -0.184674
C115  C     C_R   0.326321 0.001637 0.864352 -0.164841
C116  C     C_R   0.673679 0.001610 0.135645 -0.164785
C117  C     C_R   0.826321 0.501625 0.864352 -0.164917
C118  C     C_R   0.173678 0.501636 0.135646 -0.164812
C119  C     C_R   0.365477 0.001393 0.903575 -0.196779
C120  C     C_R   0.573460 0.500014 0.573464 0.876977
C121  C     C_R   0.634523 0.001365 0.096424 -0.196673
C122  C     C_R   0.865476 0.501381 0.903575 -0.196779
C123  C     C_R   0.134523 0.501392 0.096424 -0.196729
C124  C     C_R   0.385333 0.000240 0.885315 -0.041069
C125  C     C_R   0.614667 0.000241 0.114684 -0.041061
C126  C     C_R   0.885333 0.500241 0.885315 -0.041052
C127  C     C_R   0.114667 0.500241 0.114684 -0.041077
C128  C     C_R   0.365485 0.999291 0.827334 -0.185713
C129  C     C_R   0.634515 0.999321 0.172666 -0.185489
C130  C     C_R   0.865485 0.499304 0.827334 -0.185611
C131  C     C_R   0.426539 0.500014 0.426535 0.877009
C132  C     C_R   0.134516 0.499294 0.172665 -0.185600
C133  C     C_R   0.326326 0.999527 0.788215 -0.157086
C134  C     C_R   0.673674 0.999558 0.211785 -0.156927
C135  C     C_R   0.826326 0.499540 0.788214 -0.157014
C136  C     C_R   0.173674 0.499531 0.211784 -0.157037
C137  C     C_R   0.000014 0.000015 0.418850 0.917772
C138  C     C_R   0.999986 0.000020 0.581151 0.917783
C139  C     C_R   0.500014 0.500014 0.418849 0.917813
C140  C     C_R   0.499987 0.500019 0.581152 0.917776
C141  C     C_R   0.306894 0.000723 0.806848 0.157181
C142  C     C_3   0.959080 0.001433 0.184766 -0.387104
C143  C     C_R   0.693106 0.000725 0.193150 0.157166
C144  C     C_R   0.806894 0.500724 0.806848 0.157198
C145  C     C_R   0.193105 0.500725 0.193150 0.157166
C146  C     C_1   0.266911 0.000696 0.766881 -0.065123
C147  C     C_1   0.733089 0.000698 0.233117 -0.065042
C148  C     C_1   0.766911 0.500697 0.766880 -0.065141
C149  C     C_1   0.233089 0.500698 0.233116 -0.065084
C150  C     C_1   0.233289 0.000431 0.733332 -0.040325
C151  C     C_1   0.766710 0.000433 0.266664 -0.040285
C152  C     C_1   0.733289 0.500432 0.733332 -0.040350
C153  C     C_3   0.040748 0.003881 0.815067 -0.387458
C154  C     C_1   0.266711 0.500433 0.266663 -0.040307
C155  C     C_R   0.173819 0.965318 0.674094 0.134207
C156  C     C_R   0.826180 0.965319 0.325847 0.134210
C157  C     C_R   0.673819 0.465319 0.674103 0.134215
C158  C     C_R   0.326180 0.465320 0.325825 0.134209
C159  C     C_R   0.134417 0.965652 0.634515 -0.236492
C160  C     C_R   0.865582 0.965653 0.365430 -0.236489
C161  C     C_R   0.634417 0.465652 0.634524 -0.236645
C162  C     C_R   0.365582 0.465653 0.365409 -0.236540
C163  C     C_R   0.114689 0.999923 0.614741 -0.063058
C164  C     C_3   0.459589 0.506417 0.185268 -0.387837
C165  C     C_R   0.885311 0.999923 0.385256 -0.063058
C166  C     C_R   0.614689 0.499923 0.614741 -0.063053
C167  C     C_R   0.385311 0.499923 0.385255 -0.063071
C168  C     C_R   0.134606 0.034024 0.634690 -0.200177
C169  C     C_R   0.865395 0.034024 0.365356 -0.200192
C170  C     C_R   0.634605 0.534024 0.634681 -0.200186
C171  C     C_R   0.365395 0.534024 0.365375 -0.200158
C172  C     C_R   0.173719 0.033894 0.673853 -0.209560
C173  C     C_R   0.826281 0.033895 0.326193 -0.209521
C174  C     C_R   0.673719 0.533895 0.673844 -0.209561
C175  C     C_3   0.539535 0.510465 0.813867 -0.388760
C176  C     C_R   0.326281 0.533895 0.326211 -0.209512
C177  C     C_R   0.193225 0.999770 0.693418 0.139437
C178  C     C_R   0.806775 0.999771 0.306576 0.139414
C179  C     C_R   0.693225 0.499770 0.693417 0.139414
C180  C     C_R   0.306775 0.499771 0.306575 0.139414
C181  C     C_R   1.000000 0.073370 1.000000 0.860491
C182  C     C_R   0.500000 0.573370 1.000000 0.860228
C183  C     C_3   0.021868 0.034413 0.296106 -0.390098
C184  C     C_3   0.976111 0.033065 0.701885 -0.390223
C185  C     C_3   0.525928 0.531477 0.300169 -0.390349
C186  C     C_3   0.959080 0.001500 0.233363 -0.395162
C187  C     C_3   0.471017 0.528716 0.696783 -0.390604
C188  C     C_R   0.000017 0.999849 0.081180 0.917321
C189  C     C_R   0.999982 0.999849 0.918820 0.917333
C190  C     C_R   0.500017 0.499849 0.081180 0.916567
C191  C     C_R   0.499982 0.499848 0.918820 0.919651
C192  C     C_R   0.000000 0.926691 0.000000 0.892955
C193  C     C_R   0.500000 0.426692 0.999991 0.898836
C194  C     C_R   0.500000 0.926707 0.999997 0.885986
C195  C     C_R   0.000000 0.426707 0.999997 0.885974
C196  C     C_R   0.426525 0.000119 0.926521 0.876494
H1    H     H_    0.051401 0.033754 0.265375 0.170083
H2    H     H_    0.987664 0.060166 0.773755 0.168694
H3    H     H_    0.292269 0.428002 0.262859 0.181950
H4    H     H_    0.980742 0.789667 0.061184 0.205951
H5    H     H_    0.941023 0.789330 0.991924 0.196475
H6    H     H_    0.019281 0.789623 0.938893 0.205976
H7    H     H_    0.058999 0.789311 0.008154 0.196479
H8    H     H_    0.441560 0.289387 0.993422 0.194220
H9    H     H_    0.481509 0.289854 0.062513 0.204004
H10   H     H_    0.566349 0.313058 0.002295 0.193073
H11   H     H_    0.526281 0.312755 0.933245 0.195891
H12   H     H_    0.516106 0.559255 0.230040 0.168689
H13   H     H_    0.477980 0.557338 0.764066 0.168615
H14   H     H_    0.942759 0.976797 0.156804 0.174780
H15   H     H_    0.058506 0.980260 0.844459 0.174529
H16   H     H_    0.440382 0.483960 0.154417 0.174293
H17   H     H_    0.560906 0.490057 0.846877 0.173299
H18   H     H_    0.311220 0.002502 0.878798 0.134589
H19   H     H_    0.688779 0.002451 0.121199 0.134545
H20   H     H_    0.811220 0.502479 0.878798 0.134495
H21   H     H_    0.946665 0.030643 0.732698 0.170183
H22   H     H_    0.188778 0.502499 0.121199 0.134590
H23   H     H_    0.380142 0.002143 0.948035 0.158548
H24   H     H_    0.619858 0.002091 0.051963 0.158503
H25   H     H_    0.880141 0.502120 0.948035 0.158506
H26   H     H_    0.119857 0.502139 0.051964 0.158552
H27   H     H_    0.380159 0.998334 0.812226 0.162645
H28   H     H_    0.619842 0.998388 0.187775 0.162709
H29   H     H_    0.880159 0.498358 0.812225 0.162692
H30   H     H_    0.119842 0.498340 0.187774 0.162689
H31   H     H_    0.311229 0.998738 0.743567 0.138245
H32   H     H_    0.555169 0.527212 0.269152 0.170240
H33   H     H_    0.688771 0.998793 0.256434 0.138295
H34   H     H_    0.811230 0.498762 0.743565 0.138277
H35   H     H_    0.188771 0.498744 0.256432 0.138261
H36   H     H_    0.119246 0.939199 0.619340 0.155922
H37   H     H_    0.880753 0.939199 0.380563 0.155916
H38   H     H_    0.619246 0.439199 0.619357 0.155861
H39   H     H_    0.380753 0.439199 0.380527 0.155882
H40   H     H_    0.120005 0.060790 0.620050 0.163662
H41   H     H_    0.879996 0.060790 0.380039 0.163664
H42   H     H_    0.620005 0.560790 0.620034 0.163678
H43   H     H_    0.442345 0.521521 0.728360 0.170329
H44   H     H_    0.379996 0.560790 0.380073 0.163683
H45   H     H_    0.051400 0.033850 0.337315 0.168965
H46   H     H_    0.946667 0.030743 0.660759 0.168985
H47   H     H_    0.555167 0.527309 0.341092 0.168983
H48   H     H_    0.442349 0.521622 0.656423 0.168979
H49   H     H_    0.188790 0.060428 0.688880 0.145697
H50   H     H_    0.811211 0.060429 0.311206 0.145746
H51   H     H_    0.688789 0.560428 0.688864 0.145736
H52   H     H_    0.311211 0.560429 0.311240 0.145743
H53   H     H_    0.454300 0.810775 0.910138 0.141540
H54   H     H_    0.008713 0.060877 0.294586 0.169641
H55   H     H_    0.545705 0.810780 0.089832 0.141546
H56   H     H_    0.954300 0.310775 0.910138 0.141534
H57   H     H_    0.045706 0.310780 0.089831 0.141526
H58   H     H_    0.939339 0.188787 0.939013 0.135120
H59   H     H_    0.060663 0.188786 0.060959 0.135142
H60   H     H_    0.439338 0.688787 0.939100 0.135162
H61   H     H_    0.560663 0.688786 0.060874 0.135137
H62   H     H_    0.939072 0.119857 0.938759 0.158374
H63   H     H_    0.060928 0.119856 0.061231 0.158384
H64   H     H_    0.439072 0.619857 0.938845 0.158399
H65   H     H_    0.987668 0.060266 0.701818 0.169686
H66   H     H_    0.560928 0.619856 0.061145 0.158343
H67   H     H_    0.496077 0.119356 0.063726 0.165901
H68   H     H_    0.504037 0.119528 0.936521 0.165280
H69   H     H_    0.996329 0.619433 0.063943 0.166202
H70   H     H_    0.003678 0.619433 0.936086 0.166215
H71   H     H_    0.003709 0.938305 0.289760 0.171318
H72   H     H_    0.999965 0.938211 0.713889 0.171294
H73   H     H_    0.496158 0.438309 0.282208 0.171253
H74   H     H_    0.510025 0.439022 0.723953 0.170530
H75   H     H_    0.048457 0.961761 0.334470 0.169676
H76   H     H_    0.516103 0.559350 0.301977 0.169706
H77   H     H_    0.953899 0.958959 0.667864 0.169792
H78   H     H_    0.543438 0.456120 0.329459 0.169899
H79   H     H_    0.461192 0.451978 0.675144 0.169963
H80   H     H_    0.048451 0.961661 0.262514 0.170188
H81   H     H_    0.953903 0.958855 0.739818 0.170229
H82   H     H_    0.543433 0.456022 0.257503 0.170234
H83   H     H_    0.461193 0.451877 0.747096 0.170120
H84   H     H_    0.003699 0.938211 0.217796 0.174468
H85   H     H_    0.999971 0.938112 0.785850 0.174771
H86   H     H_    0.496152 0.438215 0.210246 0.175199
H87   H     H_    0.477985 0.557438 0.692131 0.169662
H88   H     H_    0.510026 0.438924 0.795911 0.174309
H89   H     H_    0.944815 0.027382 0.230733 0.169032
H90   H     H_    0.053448 0.030638 0.767548 0.169127
H91   H     H_    0.448591 0.533915 0.234499 0.169209
H92   H     H_    0.547717 0.538936 0.761834 0.169292
H93   H     H_    0.942756 0.976898 0.228751 0.169910
H94   H     H_    0.058511 0.980366 0.772513 0.169767
H95   H     H_    0.440379 0.484061 0.226363 0.169609
H96   H     H_    0.560911 0.490163 0.774933 0.169022
H97   H     H_    0.944813 0.027282 0.158783 0.169017
H98   H     H_    0.008715 0.060782 0.222647 0.168688
H99   H     H_    0.053449 0.030533 0.839496 0.168921
H100  H     H_    0.448589 0.533815 0.162550 0.168802
H101  H     H_    0.547717 0.538831 0.833780 0.168581
H102  H     H_    0.175660 0.907590 0.673698 0.177549
H103  H     H_    0.207729 0.927956 0.736978 0.181964
H104  H     H_    0.824338 0.907589 0.326150 0.177544
H105  H     H_    0.792269 0.927988 0.262903 0.181926
H106  H     H_    0.675661 0.407590 0.673724 0.177443
H107  H     H_    0.707730 0.427963 0.736998 0.181789
H108  H     H_    0.324337 0.407588 0.326093 0.177488
N1    N     N_3   0.194223 0.930355 0.694432 -0.455439
N2    N     N_1   0.506873 0.208961 0.897314 -0.200626
N3    N     N_1   0.993868 0.708726 0.103782 -0.212906
N4    N     N_1   0.006154 0.708725 0.896292 -0.212886
N5    N     N_3   0.961334 0.806689 0.026012 -0.448943
N6    N     N_3   0.038685 0.806659 0.974055 -0.448923
N7    N     N_3   0.461949 0.306813 0.027338 -0.448426
N8    N     N_3   0.537931 0.305394 0.973897 -0.442296
N9    N     N_1   0.946766 0.901881 0.039145 -0.208184
N10   N     N_1   0.053230 0.901836 0.960857 -0.208170
N11   N     N_1   0.447451 0.402084 0.040332 -0.208358
N12   N     N_3   0.805775 0.930357 0.305453 -0.455437
N13   N     N_1   0.552455 0.401884 0.959692 -0.210667
N14   N     N_3   0.694223 0.430356 0.694451 -0.455486
N15   N     N_3   0.305775 0.430357 0.305410 -0.455489
N16   N     N_1   0.423744 0.899942 0.853148 -0.202831
N17   N     N_1   0.576260 0.899950 0.146840 -0.202775
N18   N     N_1   0.923743 0.399942 0.853148 -0.202820
N19   N     N_1   0.076261 0.399950 0.146839 -0.202850
N20   N     N_1   0.493548 0.208581 0.103648 -0.212730
O1    O     O_R   0.055450 0.031330 0.555450 -0.625574
O2    O     O_R   0.555420 0.000140 0.020740 -0.625986
O3    O     O_R   0.944580 0.500140 0.979260 -0.625979
O4    O     O_R   0.055420 0.500140 0.020740 -0.625953
O5    O     O_R   0.499990 0.055580 0.965290 -0.624922
O6    O     O_R   0.500010 0.055580 0.034710 -0.625222
O7    O     O_R   0.999990 0.555580 0.965290 -0.625077
O8    O     O_R   0.000010 0.555580 0.034710 -0.625088
O9    O     O_R   0.055480 0.968710 0.555480 -0.625562
O10   O     O_R   0.944520 0.968710 0.444520 -0.625560
O11   O     O_R   0.555480 0.468710 0.555480 -0.625617
O12   O     O_R   0.944550 0.031330 0.444550 -0.625576
O13   O     O_R   0.444520 0.468710 0.444520 -0.625589
O14   O     O_R   1.000000 0.031330 0.438570 -0.616686
O15   O     O_R   0.000000 0.031330 0.561430 -0.616677
O16   O     O_R   0.500000 0.531330 0.438570 -0.616646
O17   O     O_R   0.500000 0.531330 0.561430 -0.616634
O18   O     O_R   0.000030 0.968710 0.438600 -0.616353
O19   O     O_R   0.999970 0.968710 0.561400 -0.616341
O20   O     O_R   0.500030 0.468710 0.438600 -0.616365
O21   O     O_R   0.499970 0.468710 0.561400 -0.616491
O22   O     O_R   0.031310 0.055360 0.031310 -0.626717
O23   O     O_R   0.555450 0.531330 0.555450 -0.625554
O24   O     O_R   0.968690 0.055360 0.968690 -0.626724
O25   O     O_R   0.531310 0.555360 0.031310 -0.626996
O26   O     O_R   0.468690 0.555360 0.968690 -0.626774
O27   O     O_R   0.031320 0.999900 0.092750 -0.619758
O28   O     O_R   0.968680 0.999900 0.907250 -0.619755
O29   O     O_R   0.531320 0.499900 0.092750 -0.620332
O30   O     O_R   0.468680 0.499900 0.907250 -0.620069
O31   O     O_R   0.968720 0.999920 0.030150 -0.610814
O32   O     O_R   0.031280 0.999920 0.969850 -0.610801
O33   O     O_R   0.468720 0.499920 0.030150 -0.610923
O34   O     O_R   0.444550 0.531330 0.444550 -0.625550
O35   O     O_R   0.531280 0.499920 0.969850 -0.610013
O36   O     O_R   0.031330 0.944430 0.031330 -0.612722
O37   O     O_R   0.968670 0.944430 0.968670 -0.612726
O38   O     O_R   0.531330 0.444430 0.031330 -0.610115
O39   O     O_R   0.468670 0.444430 0.968670 -0.615123
O40   O     O_R   0.500050 0.944650 0.965390 -0.609477
O41   O     O_R   0.499950 0.944650 0.034610 -0.609433
O42   O     O_R   0.000050 0.444650 0.965390 -0.609444
O43   O     O_R   0.999950 0.444650 0.034610 -0.609478
O44   O     O_R   0.444580 0.000120 0.909900 -0.618757
O45   O     O_R   0.555420 0.000120 0.090100 -0.618644
O46   O     O_R   0.944580 0.500120 0.909900 -0.618700
O47   O     O_R   0.055420 0.500120 0.090100 -0.618709
O48   O     O_R   0.444580 0.000140 0.979260 -0.625954
Zn1   Zn    Zn3+2 0.000000 0.041840 0.500000 0.950308
Zn2   Zn    Zn3+2 0.499980 0.000110 0.046290 0.965620
Zn3   Zn    Zn3+2 0.000020 0.500110 0.953710 0.965562
Zn4   Zn    Zn3+2 0.999980 0.500110 0.046290 0.965473
Zn5   Zn    Zn3+2 0.500000 0.541840 0.500000 0.950373
Zn6   Zn    Zn3+2 1.000000 0.958210 0.500000 0.950902
Zn7   Zn    Zn3+2 0.500000 0.458210 0.500000 0.950595
Zn8   Zn    Zn3+2 0.041820 0.999900 0.041820 0.967009
Zn9   Zn    Zn3+2 0.958180 0.999900 0.958180 0.966985
Zn10  Zn    Zn3+2 0.541820 0.499900 0.041820 0.967740
Zn11  Zn    Zn3+2 0.458180 0.499900 0.958180 0.966794
Zn12  Zn    Zn3+2 0.500020 0.000110 0.953710 0.965315

loop_
_geom_bond_atom_site_label_1
_geom_bond_atom_site_label_2
_ccdc_geom_bond_type
C172  C177  A    
C115  C141  A    
C157  C161  A    
C139  O16   A    
C101  C113  T    
C64   C77   S    
C120  C166  S    
O31   Zn9   S    
C153  H99   S    
O3    Zn4   S    
C86   C110  S    
C38   H66   S    
C29   C42   S    
C63   C76   S    
C188  O27   A    
H5    N5    S    
C88   H21   S    
C157  C179  A    
C36   H63   S    
C89   C94   S    
C158  C180  A    
C134  C143  A    
C146  C150  T    
C156  C178  A    
C9    C19   A    
C10   C20   A    
O18   Zn6   S    
C7    O8    A    
C25   C60   S    
C60   C93   S    
C170  H42   S    
C189  O28   A    
C86   C187  S    
C61   H82   S    
C62   C95   S    
C73   C75   A    
O20   Zn7   S    
C165  C169  A    
C11   C20   A    
C50   C53   A    
C116  C121  A    
C112  C138  S    
C187  H87   S    
C61   C94   S    
C73   C108  S    
C167  C171  A    
O21   Zn7   S    
C21   C29   T    
C131  O13   A    
C27   C86   S    
C196  O48   A    
C71   C74   A    
C26   H73   S    
C43   C54   A    
C156  C160  A    
C66   C76   A    
C83   C183  S    
C162  H39   S    
C4    O46   A    
C60   H81   S    
C156  N12   S    
C121  H24   S    
C7    C53   S    
C69   N8    S    
C111  C137  S    
C27   H79   S    
C170  C174  A    
C47   C104  S    
C9    H55   S    
C133  H31   S    
C187  H48   S    
H108  N15   S    
C70   C105  S    
C190  O29   A    
C35   C78   T    
C33   C38   A    
C93   C153  S    
C65   N5    S    
C159  H36   S    
C45   C50   A    
C164  H16   S    
O4    Zn3   S    
C23   H71   S    
C175  H101  S    
O28   Zn9   S    
C6    O6    A    
C10   H56   S    
C189  O32   A    
O45   Zn2   S    
C125  C129  A    
C48   C52   A    
O47   Zn4   S    
C3    O45   A    
C71   C106  S    
C13   C85   S    
C184  H46   S    
C60   H85   S    
C6    C52   S    
C173  H50   S    
C15   C18   A    
C38   C40   A    
H105  N12   S    
C82   C191  S    
C69   C77   A    
C67   C77   A    
C96   N16   T    
C176  H52   S    
H11   N8    S    
C23   C59   S    
H106  N14   S    
C33   C42   A    
C172  H49   S    
C19   C21   S    
H104  N12   S    
C37   C40   A    
C107  N11   T    
C87   C183  S    
C88   C184  S    
C65   C70   A    
C67   C72   A    
C95   C175  S    
C185  H76   S    
C13   H91   S    
C155  N1    S    
C135  H34   S    
C56   C64   T    
C30   C41   A    
H6    N6    S    
C114  C140  S    
C110  C114  T    
C8    C12   A    
C59   C92   S    
C50   H69   S    
C131  C167  S    
C14   C17   A    
C17   C194  S    
C84   C90   S    
C72   C75   A    
C49   H68   S    
C85   C185  S    
C136  H35   S    
C108  N13   T    
C8    C19   A    
C30   C34   A    
C155  C159  A    
C34   C39   A    
C138  O15   A    
C84   C184  S    
C117  C144  A    
O7    Zn3   S    
C196  O44   A    
C9    C14   A    
H103  N1    S    
C182  O25   A    
C79   C111  T    
O43   Zn4   S    
C51   C53   A    
C147  C151  T    
C117  C122  A    
C70   C74   A    
C27   C62   S    
C132  H30   S    
C1    O9    A    
C123  C127  A    
C132  C136  A    
C59   H80   S    
C124  C196  S    
C32   C37   A    
O17   Zn5   S    
C150  C177  S    
O30   Zn11  S    
C166  C170  A    
C115  C119  A    
C57   C94   S    
C120  O23   A    
C62   H83   S    
C89   H32   S    
C33   H61   S    
C191  O35   A    
O2    Zn12  S    
C91   C187  S    
O12   Zn1   S    
C31   C41   A    
C31   C36   A    
C89   C185  S    
C118  C145  A    
C148  C152  T    
O29   Zn10  S    
O19   Zn6   S    
C2    C153  S    
O5    Zn12  S    
C171  C176  A    
C48   H67   S    
C153  H15   S    
O37   Zn9   S    
C68   C82   T    
O15   Zn1   S    
C163  C168  A    
C183  H54   S    
O39   Zn11  S    
C46   C80   T    
H7    N6    S    
C173  C178  A    
C26   C85   S    
O1    Zn1   S    
O48   Zn2   S    
C159  C163  A    
O10   Zn6   S    
H102  N1    S    
C91   C95   S    
C99   N19   T    
C176  C180  A    
C45   C55   A    
C192  O36   A    
C169  C173  A    
C169  H41   S    
C183  H45   S    
H3    N15   S    
C59   H84   S    
C24   C86   S    
O27   Zn8   S    
C24   H92   S    
C154  C180  S    
C80   C189  S    
C2    C84   S    
C130  C135  A    
C91   H13   S    
H107  N14   S    
C66   N6    S    
C23   H75   S    
C65   C76   A    
C23   C83   S    
O13   Zn7   S    
C26   C61   S    
C62   H88   S    
H4    N5    S    
C116  H19   S    
C109  O10   A    
C171  H44   S    
C126  C130  A    
C28   C41   S    
C34   H62   S    
C88   H2    S    
C181  O22   A    
O35   Zn10  S    
C25   H77   S    
O9    Zn6   S    
C193  O39   A    
C12   C17   A    
O41   Zn2   S    
C30   H58   S    
C83   C186  S    
C69   C73   A    
C118  H22   S    
O46   Zn3   S    
C124  C128  A    
C188  O31   A    
C35   C92   S    
C22   C28   T    
C87   C92   S    
C140  O17   A    
C129  H28   S    
O6    Zn2   S    
C128  H27   S    
C174  H51   S    
C40   C182  S    
C36   C39   A    
C102  N2    T    
C87   H98   S    
C31   H59   S    
C68   C95   S    
C43   C100  S    
C105  N9    T    
C44   C102  S    
C47   C51   A    
O26   Zn11  S    
O32   Zn8   S    
C149  C154  T    
C11   C16   A    
C66   C71   A    
C137  O14   A    
C49   C52   A    
C32   H60   S    
C184  H65   S    
C104  N4    T    
C160  C165  A    
O40   Zn12  S    
C24   H96   S    
C109  C165  S    
C141  C146  S    
C20   C22   S    
C160  H37   S    
C100  N20   T    
C138  O19   A    
C87   H1    S    
C15   C98   S    
C94   C164  S    
C140  O21   A    
C164  H100  S    
C25   H72   S    
C13   C164  S    
C195  O42   A    
C18   C195  S    
C186  H89   S    
C109  O12   A    
O36   Zn8   S    
C4    C126  S    
C133  C141  A    
C139  O20   A    
C61   H86   S    
C181  O24   A    
C79   C83   S    
C2    H94   S    
O11   Zn7   S    
C131  O34   A    
C195  O43   A    
C11   H57   S    
C118  C123  A    
C81   C190  S    
C129  C134  A    
C168  C172  A    
C3    O2    A    
C1    C163  S    
O23   Zn5   S    
C55   C58   S    
C32   C42   A    
C157  N14   S    
C12   C96   S    
C24   C175  S    
C145  C149  S    
C155  C177  A    
C194  O40   A    
C44   C49   A    
C37   H64   S    
C90   C112  T    
C144  C148  S    
O24   Zn9   S    
C185  H47   S    
C119  C124  A    
C142  H97   S    
C143  C147  S    
O8    Zn4   S    
C175  H17   S    
C10   C15   A    
C194  O41   A    
C182  O26   A    
C89   H12   S    
C51   H70   S    
C6    O5    A    
C127  C132  A    
C45   C103  S    
C121  C125  A    
O25   Zn10  S    
C161  H38   S    
C130  H29   S    
C122  H25   S    
C25   C84   S    
H8    N7    S    
C92   C142  S    
C43   C48   A    
C161  C166  A    
C168  H40   S    
C192  O37   A    
C119  H23   S    
C5    C127  S    
C152  C179  S    
H9    N7    S    
C191  O30   A    
H10   N8    S    
C142  C186  S    
C123  H26   S    
C54   C56   S    
C8    H53   S    
C97   N17   T    
C26   H78   S    
C151  C178  S    
O16   Zn5   S    
C120  O11   A    
C4    O3    A    
C115  H18   S    
C122  C126  A    
C117  H20   S    
C44   C54   A    
C116  C143  A    
C72   C107  S    
C190  O33   A    
C113  C139  S    
C158  N15   S    
C39   C181  S    
C74   C192  S    
C75   C193  S    
C135  C144  A    
C134  H33   S    
C13   H95   S    
C5    O4    A    
C103  N3    T    
C57   C81   T    
C78   C188  S    
C142  H14   S    
O34   Zn5   S    
C85   C101  S    
C106  N10   T    
C14   C97   S    
C47   C55   A    
C58   C63   T    
C88   C93   S    
O22   Zn8   S    
C136  C145  A    
O42   Zn3   S    
C7    O7    A    
C3    C125  S    
C16   C99   S    
C137  O18   A    
O38   Zn10  S    
C2    H90   S    
C128  C133  A    
C5    O47   A    
C46   C93   S    
C67   N7    S    
O33   Zn11  S    
O44   Zn12  S    
C158  C162  A    
C162  C167  A    
C193  O38   A    
C27   H74   S    
C98   N18   T    
C16   C18   A    
C91   H43   S    
O14   Zn1   S    
C186  H93   S    
C174  C179  A    
C1    O1    A    
