data_mof_unit_32721.cif
_audit_creation_date              2013-03-05T15:55:42-0500
_audit_creation_method            fapswitch 2.2
_symmetry_space_group_name_H-M    P1
_symmetry_Int_Tables_number       1
_space_group_crystal_system       triclinic
_cell_length_a                    6.92985
_cell_length_b                    17.586152
_cell_length_c                    19.438388
_cell_angle_alpha                 108.511221
_cell_angle_beta                  89.455662
_cell_angle_gamma                 90.616404
_cell_volume                      2246.20269456

loop_
_atom_site_label
_atom_site_type_symbol
_atom_site_description
_atom_site_fract_x
_atom_site_fract_y
_atom_site_fract_z
_atom_type_partial_charge
O1    O     O_R   0.494330 0.415710 0.413720 -0.598592
O2    O     O_R   0.819360 0.430070 0.560210 -0.595854
O3    O     O_R   0.994320 0.584290 0.586280 -0.596003
C1    C     C_R   0.650006 0.415135 0.581974 0.952448
O4    O     O_R   0.823740 0.406290 0.412670 -0.606265
O5    O     O_R   0.998730 0.560340 0.437690 -0.598140
C2    C     C_R   0.654714 0.383011 0.384762 0.910048
O6    O     O_R   0.489920 0.439660 0.562310 -0.591419
O7    O     O_3   0.662330 0.550570 0.508380 -0.272099
V1    V     V_3+5 0.935370 0.490620 0.498440 1.143735
O8    O     O_R   0.328720 0.569930 0.439790 -0.594382
C3    C     C_R   0.161445 0.581487 0.415431 0.950432
O9    O     O_R   0.324340 0.593710 0.587330 -0.599182
C4    C     C_R   0.155112 0.616985 0.615248 0.926329
V2    V     V_3+5 0.435940 0.509380 0.501560 1.147804
O10   O     O_3   0.159110 0.449430 0.491620 -0.276903
C5    C     C_R   0.312209 0.724324 0.718120 -0.138796
H1    H     H_    0.453106 0.705325 0.694845 0.121009
C6    C     C_R   0.301029 0.788170 0.783074 -0.126763
H2    H     H_    0.433872 0.816516 0.807725 0.126519
C7    C     C_R   0.121234 0.814994 0.815647 -0.126050
C8    C     C_R   0.952900 0.776409 0.781289 -0.107194
H3    H     H_    0.812001 0.795428 0.804553 0.126921
C9    C     C_R   0.964074 0.712572 0.716336 -0.139680
H4    H     H_    0.831211 0.684262 0.691675 0.124984
C10   C     C_R   0.143898 0.685567 0.683872 -0.129959
C11   C     C_R   0.031563 0.600153 0.299779 0.077883
C12   C     C_R   0.154554 0.625131 0.361420 -0.197641
C13   C     C_R   0.275948 0.692140 0.371240 -0.285741
C14   C     C_R   0.270994 0.737249 0.323487 0.153896
C15   C     C_R   0.133237 0.718862 0.267497 0.024503
C16   C     C_R   0.008799 0.651774 0.256815 0.119157
C17   C     C_R   0.400747 0.801232 0.331442 -0.207154
C18   C     C_R   0.395391 0.846558 0.284066 -0.186730
C19   C     C_R   0.257111 0.830041 0.228913 0.162731
C20   C     C_R   0.123355 0.766756 0.221019 0.009141
C21   C     C_R   0.981909 0.750614 0.166193 -0.014492
C22   C     C_R   0.853982 0.685887 0.158198 -0.122001
C23   C     C_R   0.867217 0.637468 0.202466 -0.245504
C24   C     C_R   0.251027 0.875899 0.181686 -0.215150
C25   C     C_R   0.110134 0.861235 0.127408 -0.303436
C26   C     C_R   0.973917 0.798366 0.119719 0.292942
H5    H     H_    0.375544 0.709124 0.416400 0.144235
H6    H     H_    0.507880 0.815807 0.374013 0.132015
H7    H     H_    0.498853 0.895012 0.290908 0.129034
H8    H     H_    0.354243 0.924433 0.188106 0.145677
H9    H     H_    0.744043 0.671023 0.116796 0.178791
H10   H     H_    0.763861 0.588913 0.193451 0.142218
C27   C     C_R   0.765092 0.192014 0.874842 -0.258758
C28   C     C_R   0.623252 0.132620 0.867615 -0.125001
C29   C     C_R   0.487306 0.118256 0.811624 -0.272512
C30   C     C_R   0.490543 0.162540 0.762367 0.109676
C31   C     C_R   0.629562 0.224697 0.772240 -0.007458
C32   C     C_R   0.768478 0.238519 0.827943 0.162660
C33   C     C_R   0.361538 0.145838 0.702797 0.129547
C34   C     C_R   0.361255 0.196218 0.659150 -0.279671
C35   C     C_R   0.495089 0.259135 0.670003 0.139556
C36   C     C_R   0.633672 0.271864 0.725257 0.014330
C37   C     C_R   0.777996 0.331281 0.733059 0.159628
C38   C     C_R   0.916543 0.343315 0.787730 -0.195625
C39   C     C_R   0.911257 0.297651 0.834932 -0.222604
C40   C     C_R   0.497024 0.307669 0.624636 -0.234861
C41   C     C_R   0.641375 0.366400 0.631753 -0.148995
C42   C     C_R   0.782421 0.377236 0.685686 -0.235561
H11   H     H_    0.871337 0.202605 0.917531 0.131283
H12   H     H_    0.380977 0.071435 0.806748 0.138245
H13   H     H_    0.259711 0.184561 0.614814 0.138323
H14   H     H_    0.390217 0.298060 0.582247 0.131930
H15   H     H_    0.894325 0.422370 0.691372 0.133766
H16   H     H_    0.029012 0.388271 0.794112 0.142599
H17   H     H_    0.019946 0.308243 0.876716 0.140523
C43   C     C_R   0.805363 0.267029 0.288449 -0.161688
H18   H     H_    0.941690 0.279358 0.316811 0.123592
C44   C     C_R   0.794664 0.203501 0.223225 -0.135123
H19   H     H_    0.923243 0.168687 0.203370 0.122486
C45   C     C_R   0.620490 0.184939 0.184472 -0.116715
C46   C     C_R   0.457186 0.231597 0.212810 -0.154247
H20   H     H_    0.320660 0.219156 0.184585 0.125952
C47   C     C_R   0.468366 0.295532 0.277748 -0.142438
H21   H     H_    0.340085 0.330605 0.297483 0.122279
C48   C     C_R   0.642887 0.314319 0.316289 -0.110744
O11   O     O_R   0.774940 0.060470 0.937800 -0.600385
O12   O     O_R   0.440880 0.093730 0.087350 -0.605828
O13   O     O_R   0.266130 0.939630 0.062280 -0.580868
C49   C     C_R   0.609655 0.116856 0.115475 0.907670
O14   O     O_R   0.445480 0.069960 0.939820 -0.602267
O15   O     O_R   0.270770 0.915690 0.913690 -0.602334
C50   C     C_R   0.614832 0.084849 0.918089 0.934674
O16   O     O_R   0.770300 0.084410 0.086380 -0.604670
O17   O     O_3   0.602600 0.949510 0.991670 -0.236997
V3    V     V_3+5 0.329470 0.009370 0.001550 1.171971
O18   O     O_R   0.940760 0.906160 0.912560 -0.586148
C51   C     C_R   0.110006 0.883189 0.884519 0.950267
O19   O     O_R   0.936150 0.929930 0.060100 -0.563918
C52   C     C_R   0.103959 0.913503 0.080554 1.023781
V4    V     V_3+5 0.828930 0.990450 0.998310 1.206901
O20   O     O_3   0.105670 0.050490 0.008320 -0.292409
N1    N     N_R   0.832610 0.781179 0.063189 0.231921
O21   O     O_R   0.886899 0.758819 0.995486 -0.406295
O22   O     O_R   0.650235 0.792101 0.079439 -0.407428
C53   C     C_3   0.235401 0.071162 0.680065 -0.448325
C54   C     C_3   0.043379 0.084113 0.721466 -0.210785
C55   C     C_3   0.927901 0.005971 0.704200 -0.932182
H22   H     H_    0.898110 0.981872 0.645141 0.261346
H23   H     H_    0.008838 0.960793 0.721199 0.256466
H24   H     H_    0.788307 0.016968 0.733892 0.255410
H25   H     H_    0.068846 0.107366 0.780823 0.204191
H26   H     H_    0.957937 0.128867 0.705561 0.205625
H27   H     H_    0.204664 0.053864 0.620983 0.188794
H28   H     H_    0.314164 0.019608 0.687424 0.187501
C56   C     C_3   0.947765 0.515013 0.274092 -0.426423
C57   C     C_3   0.045903 0.464867 0.202981 -0.271270
C58   C     C_3   0.985070 0.376904 0.181484 -0.913503
H29   H     H_    0.040659 0.349725 0.221557 0.255825
H30   H     H_    0.825310 0.370947 0.178588 0.272918
H31   H     H_    0.047226 0.343874 0.127513 0.248812
H32   H     H_    0.009393 0.488025 0.157910 0.211310
H33   H     H_    0.205320 0.468670 0.209764 0.200507
H34   H     H_    0.970499 0.482780 0.313711 0.204991
H35   H     H_    0.789007 0.516355 0.267522 0.179453

loop_
_geom_bond_atom_site_label_1
_geom_bond_atom_site_label_2
_geom_bond_distance
_ccdc_geom_bond_type
C33   C34   1.407904 A    
C53   C54   1.529724 S    
O15   V3    2.002143 S    
C25   C26   1.418135 A    
C19   C20   1.411874 A    
C1    O6    1.298408 A    
O17   V3    2.152943 S    
C35   C40   1.408492 A    
C25   C52   1.486392 S    
C46   H20   1.083141 S    
C24   H8    1.084717 S    
C1    C41   1.482855 S    
C37   C42   1.404825 A    
C13   C14   1.400331 A    
C44   C45   1.408380 A    
C3    C12   1.485626 S    
C5    C10   1.406303 A    
C20   C21   1.413828 A    
C6    C7    1.408482 A    
C21   C22   1.405112 A    
C9    C10   1.408588 A    
O14   V3    1.999159 S    
C26   N1    1.435582 S    
O5    C3    1.296481 A    
C14   C15   1.410674 A    
O14   C50   1.295568 A    
C53   H27   1.112772 S    
C27   C32   1.404686 A    
O18   V4    2.001875 S    
C34   C35   1.400844 A    
C56   H34   1.104840 S    
C18   C19   1.402774 A    
C16   C23   1.409833 A    
C21   C26   1.417063 A    
O8    V2    1.993365 S    
C56   C57   1.540105 S    
C54   H26   1.110679 S    
O1    V2    2.001988 S    
O13   V3    1.997084 S    
O7    V1    2.153050 S    
C15   C20   1.419864 A    
C43   C48   1.405353 A    
C30   C33   1.422811 A    
C28   C50   1.480892 S    
C58   H31   1.110597 S    
C39   H17   1.083622 S    
C11   C56   1.529870 S    
C37   C38   1.402908 A    
O9    C4    1.301739 A    
C13   H5    1.084778 S    
C54   C55   1.526464 S    
C57   C58   1.524527 S    
C17   C18   1.397233 A    
C45   C46   1.406595 A    
C46   C47   1.400835 A    
O11   V4    1.994427 S    
C44   H19   1.083006 S    
C29   C30   1.412968 A    
C9    H4    1.082755 S    
C43   C44   1.400603 A    
C47   C48   1.408730 A    
C49   O16   1.296745 A    
C28   C29   1.405583 A    
C53   H28   1.111247 S    
C31   C32   1.416282 A    
C4    C10   1.489483 S    
C41   C42   1.406898 A    
C38   C39   1.398113 A    
O13   C52   1.298160 A    
O2    C1    1.296064 A    
C40   C41   1.405785 A    
C15   C16   1.415858 A    
C38   H16   1.083606 S    
C31   C36   1.415263 A    
V4    O20   2.159543 S    
C5    H1    1.082735 S    
C54   H25   1.110109 S    
C55   H23   1.111228 S    
C18   H7    1.083765 S    
C42   H15   1.084564 S    
V3    O20   1.704516 S    
O19   V4    1.993282 S    
C22   H9    1.081779 S    
O3    C4    1.296849 A    
C27   H11   1.084366 S    
C24   C25   1.405124 A    
O12   C49   1.301132 A    
N1    O21   1.301267 A    
O6    V2    1.993839 S    
N1    O22   1.301174 A    
O9    V2    2.001826 S    
C8    C9    1.400151 A    
O2    V1    1.999251 S    
C11   C12   1.425550 A    
C30   C31   1.416843 A    
O4    C2    1.301780 A    
C58   H29   1.108928 S    
C12   C13   1.404169 A    
C14   C17   1.403191 A    
C2    C48   1.488814 S    
C11   C16   1.426017 A    
O1    C2    1.295824 A    
C17   H6    1.083769 S    
C43   H18   1.083071 S    
O5    V1    1.997134 S    
O8    C3    1.298403 A    
O17   V4    1.707498 S    
C32   C39   1.403404 A    
C34   H13   1.084501 S    
O12   V3    2.001828 S    
C33   C53   1.515963 S    
C40   H14   1.084337 S    
C57   H32   1.109236 S    
C6    H2    1.082783 S    
C19   C24   1.402321 A    
C36   C37   1.412411 A    
O4    V1    2.001819 S    
O3    V1    2.002168 S    
V1    O10   1.704575 S    
C57   H33   1.112596 S    
C35   C36   1.410067 A    
C22   C23   1.393688 A    
C7    C51   1.489013 S    
O16   V4    2.007790 S    
O11   C50   1.297801 A    
O15   C51   1.296870 A    
O18   C51   1.301572 A    
C5    C6    1.400244 A    
C55   H24   1.108536 S    
O7    V2    1.709415 S    
O19   C52   1.297231 A    
C47   H21   1.083032 S    
C27   C28   1.401515 A    
C55   H22   1.110771 S    
C8    H3    1.082747 S    
C56   H35   1.110122 S    
C7    C8    1.406165 A    
C45   C49   1.489403 S    
C29   H12   1.081031 S    
V2    O10   2.159458 S    
C23   H10   1.080307 S    
C58   H30   1.111213 S    
