data_mof_unit_17991.cif
_audit_creation_date              2012-12-11T14:19:36-0500
_audit_creation_method            fapswitch 2.2
_symmetry_space_group_name_H-M    P1
_symmetry_Int_Tables_number       1
_space_group_crystal_system       triclinic
_cell_length_a                    19.425589
_cell_length_b                    7.243921
_cell_length_c                    17.716351
_cell_angle_alpha                 89.916437
_cell_angle_beta                  107.785314
_cell_angle_gamma                 90.093837
_cell_volume                      2373.8488995

loop_
_atom_site_label
_atom_site_type_symbol
_atom_type_description
_atom_site_fract_x
_atom_site_fract_y
_atom_site_fract_z
_atom_type_partial_charge
O1    O     O_R   0.414820 0.494320 0.416790 -0.545596
O2    O     O_R   0.585180 0.994320 0.583210 -0.545167
O3    O     O_R   0.560270 0.819500 0.430140 -0.550251
O4    O     O_R   0.439730 0.319500 0.569860 -0.553226
C1    C     C_R   0.581201 0.655604 0.414737 0.738709
C2    C     C_R   0.418516 0.155376 0.584905 0.736650
O5    O     O_R   0.413840 0.823740 0.407440 -0.521091
O6    O     O_R   0.586160 0.323740 0.592560 -0.521156
O7    O     O_R   0.437710 0.998590 0.560350 -0.525427
O8    O     O_R   0.562290 0.498590 0.439650 -0.530888
C3    C     C_R   0.386387 0.655914 0.386679 0.772023
C4    C     C_R   0.613607 0.155972 0.613331 0.769781
O9    O     O_3   0.508000 0.662290 0.550200 -0.384524
O10   O     O_3   0.492000 0.162290 0.449800 -0.385471
V1    V     V_3+5 0.498520 0.935380 0.490690 1.459196
V2    V     V_3+5 0.501480 0.435380 0.509310 1.453561
C5    C     C_2   0.793693 0.270033 0.778198 -0.207480
C6    C     C_2   0.206093 0.769764 0.222218 -0.212603
C7    C     C_2   0.822764 0.111950 0.814095 -0.291785
C8    C     C_2   0.177215 0.611897 0.185950 -0.289742
H1    H     H_    0.819121 0.400134 0.801854 0.140399
H2    H     H_    0.180512 0.899854 0.198863 0.139390
H3    H     H_    0.801029 0.980023 0.788739 0.132531
H4    H     H_    0.199084 0.479888 0.211064 0.133317
C9    C     C_2   0.732737 0.278847 0.702491 0.015301
C10   C     C_2   0.267028 0.778012 0.297973 0.015534
C11   C     C_2   0.680659 0.145718 0.681862 -0.313680
C12   C     C_2   0.319326 0.645688 0.318168 -0.314026
H5    H     H_    0.685321 0.024616 0.719155 0.110005
H6    H     H_    0.314855 0.525526 0.280515 0.110223
C13   C     C_R   0.323385 0.299490 0.634450 -0.203782
C14   C     C_R   0.673654 0.490874 0.367079 -0.177859
C15   C     C_R   0.368382 0.147876 0.633449 -0.065445
C16   C     C_R   0.630655 0.647973 0.365384 -0.082602
C17   C     C_R   0.364787 0.990033 0.678540 -0.209449
C18   C     C_R   0.636198 0.799196 0.317458 -0.231154
C19   C     C_R   0.317786 0.984312 0.725112 0.093962
C20   C     C_R   0.683624 0.793929 0.271513 0.097400
C21   C     C_R   0.272537 0.136617 0.725289 0.090507
C22   C     C_R   0.727111 0.636681 0.274328 0.090639
C23   C     C_R   0.275090 0.294116 0.679324 0.090980
C24   C     C_R   0.722230 0.485043 0.322548 0.082266
C25   C     C_R   0.315376 0.829250 0.771793 -0.202234
C26   C     C_R   0.688391 0.943275 0.222802 -0.203294
C27   C     C_R   0.268224 0.824336 0.817749 -0.158045
C28   C     C_R   0.736171 0.937570 0.177630 -0.154998
C29   C     C_R   0.222450 0.974161 0.817707 0.091615
C30   C     C_R   0.780110 0.782475 0.180407 0.093970
C31   C     C_R   0.224693 0.131461 0.771521 -0.021460
C32   C     C_R   0.775558 0.631082 0.228873 -0.023964
C33   C     C_R   0.179250 0.283578 0.771477 -0.026163
C34   C     C_R   0.819304 0.474131 0.232001 -0.025978
C35   C     C_R   0.181711 0.438391 0.724438 -0.126048
C36   C     C_R   0.814491 0.325100 0.281087 -0.121349
C37   C     C_R   0.229166 0.443554 0.678902 -0.204094
C38   C     C_R   0.766343 0.330426 0.325745 -0.204160
C39   C     C_R   0.174779 0.969397 0.863322 -0.280229
C40   C     C_R   0.828032 0.775917 0.135095 -0.273729
C41   C     C_R   0.129653 0.120744 0.864553 -0.188211
C42   C     C_R   0.871295 0.619190 0.136685 -0.191272
C43   C     C_R   0.132217 0.278009 0.818228 0.560839
C44   C     C_R   0.866881 0.468714 0.186024 0.561680
H7    H     H_    0.325173 0.421079 0.599316 0.135980
H8    H     H_    0.670288 0.374073 0.404133 0.157129
H9    H     H_    0.399367 0.872794 0.678373 0.124775
H10   H     H_    0.603181 0.920755 0.315365 0.128663
H11   H     H_    0.349879 0.711368 0.772643 0.129948
H12   H     H_    0.655251 0.064909 0.219763 0.130655
H13   H     H_    0.267378 0.702756 0.853167 0.132733
H14   H     H_    0.738907 0.054955 0.140656 0.133326
H15   H     H_    0.173639 0.848243 0.898940 0.169664
H16   H     H_    0.830647 0.892148 0.097439 0.168753
H17   H     H_    0.147263 0.556607 0.723042 0.190690
H18   H     H_    0.847601 0.203242 0.284755 0.191605
H19   H     H_    0.230136 0.565137 0.643525 0.148480
H20   H     H_    0.763479 0.213045 0.362673 0.145199
O11   O     O_R   0.937810 0.773680 0.060480 -0.543877
O12   O     O_R   0.062190 0.273680 0.939520 -0.503738
O13   O     O_R   0.086190 0.439740 0.092580 -0.544773
O14   O     O_R   0.913810 0.939740 0.907420 -0.549028
C45   C     C_R   0.112086 0.608057 0.115301 0.736236
C46   C     C_R   0.887907 0.108033 0.884720 0.734807
O15   O     O_R   0.939760 0.444210 0.069890 -0.503197
O16   O     O_R   0.060240 0.944210 0.930110 -0.542463
O17   O     O_R   0.914790 0.269640 0.916760 -0.536977
O18   O     O_R   0.085210 0.769640 0.083240 -0.541704
C47   C     C_R   0.919726 0.612237 0.085764 0.740549
C48   C     C_R   0.080559 0.112744 0.914626 0.744473
O19   O     O_3   0.992050 0.601530 0.949880 -0.365756
O20   O     O_3   0.007950 0.101530 0.050120 -0.373206
V3    V     V_3+5 0.001480 0.328340 0.009300 1.535197
V4    V     V_3+5 0.998520 0.828340 0.990700 1.469734
F1    F     F_    0.088028 0.424016 0.817187 -0.688334
F2    F     F_    0.909436 0.317719 0.190430 -0.688700
C49   C     C_2   0.733725 0.441766 0.651719 0.419842
H21   H     H_    0.757693 0.570247 0.678928 0.020434
O21   O     O_2   0.712504 0.431320 0.579498 -0.533766
C50   C     C_2   0.265757 0.939319 0.349315 0.420035
H22   H     H_    0.241097 0.067502 0.322590 0.020028
O22   O     O_2   0.287547 0.927720 0.421497 -0.526263

loop_
_geom_bond_atom_site_label_1
_geom_bond_atom_site_label_2
_ccdc_geom_bond_type
O15   C47   A    
O11   V4    S    
O4    V2    S    
C38   H20   S    
C11   H5    S    
C49   H21   S    
O1    C3    A    
O2    C4    A    
C2    O7    A    
O17   V3    S    
C29   C31   A    
O5    C3    A    
C17   C19   A    
C43   F1    S    
C39   C41   A    
C17   H9    S    
C40   C42   A    
C42   C44   A    
C27   C29   A    
C41   C48   S    
C23   C37   A    
C24   C38   A    
C36   H18   S    
O14   V4    S    
C8    H4    S    
C34   C36   A    
C31   C33   A    
C6    C10   S    
C32   C34   A    
C13   C15   A    
C7    C46   S    
O13   V3    S    
C45   O18   A    
C37   H19   S    
C30   C32   A    
O6    V2    S    
C8    C45   S    
C42   C47   S    
C26   C28   A    
C28   C30   A    
C35   C37   A    
C36   C38   A    
C41   C43   A    
C4    C11   S    
C27   H13   S    
C13   H7    S    
C14   H8    S    
O4    C2    A    
O13   C45   A    
C5    C7    D    
O5    V1    S    
C5    H1    S    
C33   C35   A    
C14   C16   A    
C19   C25   A    
C7    H3    S    
C20   C26   A    
C29   C39   A    
C18   H10   S    
O6    C4    A    
C1    C16   S    
O1    V2    S    
C39   H15   S    
O19   V4    S    
O2    V1    S    
C25   C27   A    
O11   C47   A    
C10   C50   S    
O14   C46   A    
C21   C31   A    
C9    C49   S    
C50   O22   D    
C44   F2    S    
C26   H12   S    
C18   C20   A    
O18   V4    S    
O3    V1    S    
O12   C48   A    
C13   C23   A    
C6    H2    S    
C35   H17   S    
O16   C48   A    
O3    C1    A    
C49   O21   D    
C30   C40   A    
O12   V3    S    
C9    C11   D    
C46   O17   A    
O15   V3    S    
C10   C12   D    
C2    C15   S    
C5    C9    S    
C12   H6    S    
O7    V1    S    
C1    O8    A    
C19   C21   A    
C34   C44   A    
C20   C22   A    
C33   C43   A    
C40   H16   S    
O20   V3    S    
C3    C12   S    
C22   C32   A    
C22   C24   A    
C15   C17   A    
C16   C18   A    
C6    C8    D    
C28   H14   S    
C21   C23   A    
C25   H11   S    
C50   H22   S    
O9    V2    S    
C14   C24   A    
O10   V1    S    
O8    V2    S    
O16   V4    S    
