data_mof_unit_14792.cif
_audit_creation_date              2012-12-10T17:44:38-0500
_audit_creation_method            fapswitch 2.2
_symmetry_space_group_name_H-M    P1
_symmetry_Int_Tables_number       1
_space_group_crystal_system       triclinic
_cell_length_a                    9.937514
_cell_length_b                    10.62753
_cell_length_c                    15.428566
_cell_angle_alpha                 91.32631
_cell_angle_beta                  67.772504
_cell_angle_gamma                 89.890285
_cell_volume                      1507.84114381

loop_
_atom_site_label
_atom_site_type_symbol
_atom_type_description
_atom_site_fract_x
_atom_site_fract_y
_atom_site_fract_z
_atom_type_partial_charge
C1    C     C_R   0.501205 0.739199 0.497687 0.889647
C2    C     C_R   0.744539 0.474049 0.026985 0.072367
C3    C     C_R   0.600056 0.439262 0.081704 0.090797
C4    C     C_R   0.408883 0.498444 0.676036 0.885710
C5    C     C_R   0.841390 0.507056 0.070212 -0.166063
C6    C     C_R   0.793853 0.512345 0.167539 -0.191349
C7    C     C_R   0.554751 0.446310 0.179077 -0.246425
C8    C     C_R   0.476077 0.864088 0.339017 -0.146975
C9    C     C_R   0.462846 0.927629 0.264487 -0.127220
C10   C     C_R   0.463374 0.058578 0.264553 -0.132818
C11   C     C_R   0.477113 0.126400 0.339165 -0.151755
C12   C     C_R   0.431994 0.435182 0.904514 0.130446
C13   C     C_R   0.488992 0.063415 0.415901 0.024879
C14   C     C_R   0.488529 0.931513 0.415778 0.101735
C15   C     C_R   0.504654 0.871305 0.491845 -0.183789
C16   C     C_R   0.501374 0.260655 0.497914 0.955090
C17   C     C_R   0.525704 0.937319 0.564435 -0.280175
C18   C     C_R   0.525735 0.065929 0.564883 0.643482
C19   C     C_R   0.505186 0.128092 0.492227 -0.264556
C20   C     C_R   0.789705 0.666238 0.622350 -0.222875
C21   C     C_R   0.824069 0.744605 0.684310 -0.253384
C22   C     C_R   0.962386 0.741329 0.685889 0.667215
C23   C     C_R   0.295022 0.381110 0.954258 0.168626
C24   C     C_R   0.067585 0.660447 0.624825 -0.253409
C25   C     C_R   0.036624 0.579738 0.561221 0.095197
C26   C     C_R   0.892599 0.581050 0.560559 0.226589
C27   C     C_R   0.962997 0.423066 0.441698 -0.097451
C28   C     C_R   0.591282 0.497515 0.323939 0.820634
C29   C     C_R   0.106047 0.423371 0.441514 -0.081896
C30   C     C_R   0.355108 0.475559 0.776207 -0.073981
C31   C     C_R   0.648990 0.485289 0.221988 -0.057076
C32   C     C_R   0.191197 0.371423 0.912958 -0.212385
C33   C     C_R   0.222800 0.415640 0.822894 -0.156933
C34   C     C_R   0.541727 0.435484 0.942123 -0.075922
C35   C     C_R   0.452753 0.492875 0.820395 -0.164843
C36   C     C_R   0.501584 0.409002 0.037963 0.000474
C37   C     C_R   0.364086 0.354738 0.086710 -0.191172
C38   C     C_R   0.264039 0.338142 0.044286 -0.221815
C39   C     C_R   0.690192 0.459196 0.887484 0.601519
C40   C     C_R   0.789584 0.477608 0.930025 -0.296755
F1    F     F_    0.541705 0.130319 0.637515 -0.637298
F2    F     F_    0.995429 0.817687 0.746509 -0.655043
F3    F     F_    0.743838 0.454894 0.792435 -0.668024
H1    H     H_    0.539076 0.888827 0.621826 0.164617
H2    H     H_    0.453528 0.875050 0.206112 0.145154
H3    H     H_    0.681580 0.675829 0.625270 0.206384
H4    H     H_    0.742522 0.808367 0.731344 0.183626
H5    H     H_    0.171911 0.663523 0.629199 0.219734
H6    H     H_    0.187778 0.360624 0.393663 0.133156
H7    H     H_    0.868636 0.541283 0.200001 0.156943
H8    H     H_    0.901380 0.498426 0.886957 0.178210
H9    H     H_    0.087765 0.326700 0.949161 0.154265
H10   H     H_    0.146554 0.399829 0.788976 0.177705
H11   H     H_    0.333032 0.320170 0.156753 0.131293
H12   H     H_    0.478437 0.762402 0.335114 0.145761
H13   H     H_    0.454485 0.107792 0.206245 0.138823
H14   H     H_    0.480318 0.227837 0.335309 0.130084
H15   H     H_    0.937584 0.360122 0.394037 0.136947
H16   H     H_    0.443405 0.428182 0.223076 0.148294
H17   H     H_    0.546346 0.550891 0.787094 0.197976
H18   H     H_    0.160417 0.295251 0.083172 0.147372
H19   H     H_    0.952218 0.532965 0.028896 0.149984
N1    N     N_R   0.856800 0.501200 0.500850 -0.105251
N2    N     N_R   0.142390 0.501280 0.500880 -0.103478
O1    O     O_R   0.385310 0.683220 0.500000 -0.629959
O2    O     O_R   0.614640 0.683250 0.500010 -0.638567
O3    O     O_R   0.319840 0.499980 0.632240 -0.629754
O4    O     O_R   0.549160 0.500000 0.632250 -0.592851
O5    O     O_R   0.385360 0.316750 0.499990 -0.614727
O6    O     O_R   0.614690 0.316780 0.500000 -0.570750
O7    O     O_R   0.450840 0.500000 0.367750 -0.631459
O8    O     O_R   0.680160 0.500020 0.367760 -0.620040
Zn1   Zn    Zn3+2 0.346880 0.499980 0.499990 0.946920
Zn2   Zn    Zn3+2 0.653120 0.500020 0.500010 0.980570

loop_
_geom_bond_atom_site_label_1
_geom_bond_atom_site_label_2
_ccdc_geom_bond_type
C9    H2    S    
C27   C29   A    
C29   H6    S    
C12   C23   A    
C30   C35   A    
C21   C22   A    
C36   C37   A    
C3    C7    A    
C5    C6    A    
O4    Zn2   S    
O2    Zn2   S    
O1    Zn1   S    
C18   C19   A    
C32   H9    S    
C8    C9    A    
O6    Zn2   S    
C1    O1    A    
N2    Zn1   S    
O5    Zn1   S    
C1    C15   S    
C10   H13   S    
C9    C10   A    
C38   H18   S    
C6    C31   A    
C29   N2    A    
C13   C14   A    
C28   O8    A    
C8    H12   S    
C7    H16   S    
C1    O2    A    
C33   H10   S    
C7    C31   A    
C13   C19   A    
C34   C39   A    
C24   H5    S    
C16   O6    A    
C24   C25   A    
O8    Zn2   S    
C18   F1    S    
C39   C40   A    
C4    O4    A    
C39   F3    S    
C25   C26   A    
C35   H17   S    
C25   N2    A    
C26   N1    A    
C37   C38   A    
C17   C18   A    
C6    H7    S    
C12   C35   A    
C27   N1    A    
O3    Zn1   S    
C37   H11   S    
C22   C24   A    
C28   O7    A    
C12   C34   A    
C40   H8    S    
O7    Zn1   S    
C15   C17   A    
C8    C14   A    
C30   C33   A    
C28   C31   S    
C16   O5    A    
C27   H15   S    
C4    O3    A    
N1    Zn2   S    
C23   C38   A    
C23   C32   A    
C2    C3    A    
C17   H1    S    
C32   C33   A    
C11   C13   A    
C22   F2    S    
C20   C26   A    
C3    C36   A    
C16   C19   S    
C5    H19   S    
C34   C36   A    
C20   H3    S    
C10   C11   A    
C2    C5    A    
C2    C40   A    
C20   C21   A    
C14   C15   A    
C11   H14   S    
C4    C30   S    
C21   H4    S    
