data_mof_unit_21571.cif
_audit_creation_date              2013-03-05T16:08:09-0500
_audit_creation_method            fapswitch 2.2
_symmetry_space_group_name_H-M    P1
_symmetry_Int_Tables_number       1
_space_group_crystal_system       triclinic
_cell_length_a                    23.404323
_cell_length_b                    11.595215
_cell_length_c                    10.757748
_cell_angle_alpha                 90.001249
_cell_angle_beta                  89.998647
_cell_angle_gamma                 89.70255
_cell_volume                      2919.37848419

loop_
_atom_site_label
_atom_site_type_symbol
_atom_site_description
_atom_site_fract_x
_atom_site_fract_y
_atom_site_fract_z
_atom_type_partial_charge
O1    O     O_R   0.500000 0.334450 0.602530 -0.612227
O2    O     O_R   0.500000 0.665550 0.397470 -0.605260
O3    O     O_R   0.500000 0.665550 0.602530 -0.612186
O4    O     O_R   0.500000 0.334450 0.397470 -0.605273
C1    C     C_R   0.499899 0.281079 0.500002 0.877438
C2    C     C_R   0.500101 0.718921 0.500004 0.877444
O5    O     O_R   0.416150 0.500000 0.602560 -0.600941
O6    O     O_R   0.583850 0.500000 0.397440 -0.602187
O7    O     O_R   0.583850 0.500000 0.602560 -0.600943
O8    O     O_R   0.416150 0.500000 0.397440 -0.602191
C3    C     C_R   0.389237 0.501139 0.499809 0.980905
C4    C     C_R   0.610763 0.498875 0.499809 0.980987
Zn1   Zn    Zn3+2 0.500000 0.500000 0.636920 0.994316
Zn2   Zn    Zn3+2 0.500000 0.500000 0.363080 0.998237
C5    C     C_R   0.879347 0.597072 0.431232 0.582201
C6    C     C_R   0.120659 0.403172 0.430907 0.582500
C7    C     C_R   0.882475 0.393883 0.468413 0.573725
C8    C     C_R   0.117565 0.606405 0.467825 0.573811
N1    N     N_R   0.852126 0.494768 0.454587 -0.310144
N2    N     N_R   0.147900 0.505487 0.454095 -0.309987
C9    C     C_R   0.941635 0.392896 0.452011 -0.047457
C10   C     C_R   0.058393 0.607379 0.451616 -0.047488
C11   C     C_R   0.938853 0.602506 0.435539 -0.049034
C12   C     C_R   0.061159 0.397749 0.435417 -0.049286
C13   C     C_R   0.970075 0.498893 0.442306 -0.020670
C14   C     C_R   0.029944 0.501371 0.442175 -0.020699
C15   C     C_R   0.973060 0.289419 0.448645 -0.162000
C16   C     C_R   0.026966 0.710851 0.448238 -0.161913
C17   C     C_R   0.967694 0.708404 0.435761 -0.166204
C18   C     C_R   0.032319 0.291851 0.435909 -0.166353
O9    O     O_2   0.848947 0.693249 0.405020 -0.556747
O10   O     O_2   0.151042 0.306965 0.404714 -0.556780
O11   O     O_2   0.855780 0.295417 0.500623 -0.551977
O12   O     O_2   0.144284 0.704912 0.499794 -0.551914
H1    H     H_    0.951948 0.206658 0.454014 0.187743
H2    H     H_    0.048082 0.793619 0.453409 0.187721
H3    H     H_    0.944465 0.789359 0.431748 0.188950
H4    H     H_    0.055546 0.210891 0.431916 0.189043
C19   C     C_R   0.242515 0.583151 0.399588 0.383657
C20   C     C_R   0.757563 0.416943 0.399950 0.383587
C21   C     C_R   0.235398 0.429303 0.553598 0.365759
C22   C     C_R   0.764551 0.570956 0.553819 0.365754
C23   C     C_R   0.300590 0.592866 0.426906 0.292666
C24   C     C_R   0.699468 0.407226 0.427070 0.292704
C25   C     C_R   0.294894 0.419858 0.555600 0.317128
C26   C     C_R   0.705054 0.580331 0.555644 0.317328
C27   C     C_R   0.327467 0.505733 0.497060 -0.427801
C28   C     C_R   0.672534 0.494380 0.497091 -0.427855
C29   C     C_R   0.208926 0.505969 0.468886 -0.068139
C30   C     C_R   0.791094 0.494223 0.469270 -0.068225
C31   C     C_1   0.499833 0.160961 0.500016 -0.210957
C32   C     C_1   0.500167 0.839039 0.500021 -0.211014
C33   C     C_1   0.499914 0.059142 0.500026 -0.012146
C34   C     C_1   0.500086 0.940858 0.500028 -0.012164
N3    N     N_1   0.500000 0.500000 0.180630 -0.075620
N4    N     N_1   0.500000 0.500000 0.819370 -0.075758
C35   C     C_1   0.500000 0.500000 0.069705 0.045071
C36   C     C_1   0.500000 0.500000 0.930295 0.046987
O13   O     O_3   0.217324 0.658173 0.315684 -0.575851
C37   C     C_3   0.229933 0.620739 0.193798 0.108424
H5    H     H_    0.211318 0.533818 0.176900 0.123979
H6    H     H_    0.276961 0.617042 0.177821 0.174762
C38   C     C_3   0.203804 0.706153 0.101424 -0.298120
H7    H     H_    0.156493 0.705225 0.110612 0.225372
H8    H     H_    0.219074 0.794544 0.123061 0.241024
C39   C     C_3   0.220140 0.676552 0.967753 -0.984828
H9    H     H_    0.267212 0.680853 0.955544 0.271802
H10   H     H_    0.199780 0.739167 0.903198 0.278769
H11   H     H_    0.205313 0.588719 0.943670 0.261226
O14   O     O_3   0.782832 0.341805 0.316269 -0.575965
C40   C     C_3   0.770356 0.379074 0.194265 0.108329
H12   H     H_    0.788955 0.466013 0.177350 0.123949
H13   H     H_    0.723346 0.382656 0.178024 0.174800
C41   C     C_3   0.796642 0.293592 0.102165 -0.298316
H14   H     H_    0.843939 0.294601 0.111656 0.225423
H15   H     H_    0.781371 0.205201 0.123834 0.240961
C42   C     C_3   0.780485 0.322986 0.968347 -0.984331
H16   H     H_    0.733424 0.318751 0.955871 0.271663
H17   H     H_    0.800893 0.260205 0.904035 0.278785
H18   H     H_    0.795396 0.410740 0.944143 0.261266
O15   O     O_3   0.203258 0.353612 0.623531 -0.576838
C43   C     C_3   0.188400 0.407911 0.736409 0.091385
H19   H     H_    0.167139 0.492904 0.719768 0.131685
H20   H     H_    0.227337 0.420758 0.794295 0.159942
C44   C     C_3   0.146749 0.330616 0.806724 -0.308082
H21   H     H_    0.107575 0.318657 0.749761 0.228431
H22   H     H_    0.166784 0.244672 0.822237 0.239054
C45   C     C_3   0.130119 0.382512 0.932079 -0.964646
H23   H     H_    0.168375 0.390867 0.992454 0.264785
H24   H     H_    0.098977 0.325309 0.979171 0.277629
H25   H     H_    0.110040 0.468694 0.919042 0.268281
O16   O     O_3   0.796605 0.646827 0.623717 -0.576801
C46   C     C_3   0.811562 0.592610 0.736571 0.091890
H26   H     H_    0.833557 0.508418 0.719735 0.131983
H27   H     H_    0.772592 0.578196 0.793935 0.159051
C47   C     C_3   0.852354 0.671037 0.807808 -0.307673
H28   H     H_    0.891528 0.684804 0.751318 0.228679
H29   H     H_    0.831504 0.756143 0.823692 0.238854
C48   C     C_3   0.869196 0.619071 0.932982 -0.964622
H30   H     H_    0.830897 0.608881 0.992906 0.264536
H31   H     H_    0.899681 0.677200 0.980796 0.277745
H32   H     H_    0.890114 0.533742 0.919572 0.268175
O17   O     O_3   0.330319 0.686975 0.381174 -0.606517
C49   C     C_3   0.345358 0.761901 0.480265 0.104862
H33   H     H_    0.374673 0.827942 0.441994 0.159629
H34   H     H_    0.369679 0.716704 0.554573 0.125651
C50   C     C_3   0.293266 0.824323 0.536663 -0.325216
H35   H     H_    0.272124 0.877756 0.464273 0.256174
H36   H     H_    0.261750 0.760913 0.571728 0.242428
C51   C     C_3   0.310888 0.900323 0.645884 -0.955468
H37   H     H_    0.328407 0.846252 0.722291 0.269154
H38   H     H_    0.273026 0.948046 0.681448 0.278259
H39   H     H_    0.343819 0.963382 0.616957 0.264669
O18   O     O_3   0.669774 0.313096 0.381277 -0.606581
C52   C     C_3   0.654708 0.238161 0.480336 0.104764
H40   H     H_    0.625370 0.172172 0.442038 0.159621
H41   H     H_    0.630401 0.283361 0.554671 0.125618
C53   C     C_3   0.706780 0.175655 0.536694 -0.325074
H42   H     H_    0.727906 0.122226 0.464275 0.256106
H43   H     H_    0.738313 0.239018 0.571786 0.242643
C54   C     C_3   0.689134 0.099631 0.645876 -0.955506
H44   H     H_    0.671626 0.153689 0.722311 0.269131
H45   H     H_    0.726983 0.051854 0.681418 0.278243
H46   H     H_    0.656189 0.036617 0.616914 0.264684
O19   O     O_3   0.319931 0.327848 0.617954 -0.595726
C55   C     C_3   0.342293 0.246808 0.531381 0.104790
H47   H     H_    0.370022 0.185748 0.583638 0.160323
H48   H     H_    0.370248 0.287429 0.460605 0.117433
C56   C     C_3   0.295286 0.177087 0.466329 -0.324224
H49   H     H_    0.271621 0.125429 0.536138 0.253030
H50   H     H_    0.264540 0.235713 0.419347 0.258288
C57   C     C_3   0.320744 0.097587 0.367404 -0.951714
H51   H     H_    0.341299 0.149357 0.293078 0.269946
H52   H     H_    0.286361 0.045151 0.324810 0.279888
H53   H     H_    0.353206 0.039035 0.408751 0.262955
O20   O     O_3   0.679955 0.672350 0.617873 -0.595603
C58   C     C_3   0.657617 0.753309 0.531192 0.104714
H54   H     H_    0.629865 0.814401 0.583357 0.160345
H55   H     H_    0.629689 0.712614 0.460414 0.117478
C59   C     C_3   0.704638 0.822991 0.466143 -0.324193
H56   H     H_    0.728315 0.874624 0.535954 0.253135
H57   H     H_    0.735371 0.764336 0.419151 0.258160
C60   C     C_3   0.679198 0.902522 0.367233 -0.951760
H58   H     H_    0.658624 0.850777 0.292910 0.269971
H59   H     H_    0.713592 0.954922 0.324631 0.279837
H60   H     H_    0.646754 0.961109 0.408597 0.262965

loop_
_geom_bond_atom_site_label_1
_geom_bond_atom_site_label_2
_geom_bond_distance
_ccdc_geom_bond_type
C60   H60   1.109371 S    
C39   H10   1.110368 S    
C38   H8    1.111828 S    
C46   H26   1.116049 S    
C6    C12   1.395159 A    
C3    C27   1.446695 S    
C59   C60   1.526930 S    
C4    C28   1.446674 S    
O3    C2    1.264719 A    
C53   H43   1.110225 S    
C49   H34   1.111136 S    
O15   C43   1.410526 S    
C33   C34   1.371504 S    
C5    N1    1.372598 A    
C58   H55   1.110332 S    
C55   H47   1.110749 S    
C20   O14   1.383414 S    
C37   C38   1.528441 S    
O1    C1    1.264716 A    
C11   C17   1.404281 A    
C16   C17   1.394129 A    
C59   H57   1.109221 S    
C42   H18   1.108436 S    
C39   H11   1.108344 S    
C60   H58   1.110909 S    
C47   C48   1.526220 S    
C18   H4    1.083187 S    
C37   H6    1.114604 S    
C22   C26   1.396299 A    
O7    Zn1   1.996952 S    
C51   H37   1.110953 S    
C54   H46   1.109649 S    
C53   H42   1.109964 S    
C25   O19   1.387477 S    
C57   H51   1.110913 S    
C52   H41   1.111152 S    
C41   C42   1.526519 S    
C47   H29   1.111809 S    
O6    Zn2   1.996969 S    
C50   H35   1.109954 S    
O14   C40   1.411861 S    
C22   O16   1.381674 S    
O3    Zn1   1.954922 S    
C42   H16   1.110921 S    
Zn1   N4    1.962750 S    
C5    C11   1.395217 A    
C39   H9    1.110864 S    
C9    C15   1.404512 A    
C38   C39   1.526574 S    
C19   O13   1.383401 S    
O13   C37   1.411885 S    
C46   H27   1.114516 S    
C10   C16   1.404518 A    
C15   C18   1.394110 A    
C50   H36   1.110231 S    
O2    C2    1.264770 A    
C7    O11   1.349586 S    
C21   C29   1.413839 A    
C49   H33   1.109995 S    
C32   C34   1.180610 T    
O18   C52   1.420607 S    
C12   C18   1.404272 A    
C25   C27   1.406126 A    
C58   C59   1.537168 S    
C26   C28   1.406125 A    
C41   H14   1.111773 S    
C44   H22   1.111735 S    
C59   H56   1.110391 S    
O8    Zn2   1.996954 S    
C40   H13   1.114591 S    
O20   C58   1.420939 S    
C19   C23   1.395730 A    
C55   C56   1.537167 S    
C15   H1    1.083191 S    
C13   C14   1.401657 A    
C44   H21   1.112064 S    
C7    C9    1.395785 A    
C37   H5    1.115001 S    
C31   C33   1.180610 T    
C53   C54   1.526760 S    
O5    C3    1.272280 A    
N2    C29   1.437149 S    
C48   H30   1.110876 S    
C45   H25   1.110962 S    
C20   C24   1.395735 A    
O6    C4    1.268711 A    
C52   C53   1.539161 S    
C21   O15   1.381656 S    
C47   H28   1.112159 S    
C42   H17   1.110438 S    
C24   O18   1.387375 S    
C6    N2    1.372597 A    
C8    O12   1.349587 S    
C51   H39   1.109647 S    
C54   H44   1.110957 S    
C41   H15   1.111905 S    
C22   C30   1.413863 A    
C48   H31   1.110372 S    
C45   H24   1.110327 S    
C46   C47   1.527992 S    
C43   H20   1.114377 S    
N3    C35   1.193299 T    
O19   C55   1.420953 S    
C50   C51   1.526756 S    
O1    Zn1   1.954907 S    
C56   H49   1.110395 S    
C44   C45   1.526330 S    
C60   H59   1.110074 S    
C9    C13   1.404642 A    
C55   H48   1.110334 S    
C19   C29   1.407828 A    
C8    C10   1.395803 A    
C12   C14   1.404819 A    
O4    C1    1.264774 A    
C23   O17   1.387376 S    
C40   C41   1.528465 S    
C5    O9    1.349498 S    
C6    O10   1.349519 S    
C43   C44   1.527997 S    
C58   H54   1.110747 S    
C56   C57   1.526939 S    
C40   H12   1.115055 S    
N1    C30   1.437159 S    
C35   C36   1.499740 S    
C57   H53   1.109363 S    
C20   C30   1.407926 A    
O16   C46   1.410488 S    
C7    N1    1.373475 A    
N4    C36   1.193306 T    
Zn2   N3    1.962751 S    
C8    N2    1.373501 A    
C11   C13   1.404827 A    
O4    Zn2   1.954923 S    
O2    Zn2   1.954906 S    
O7    C4    1.272257 A    
C51   H38   1.110270 S    
C54   H45   1.110271 S    
O8    C3    1.268683 A    
C26   O20   1.387479 S    
C38   H7    1.111799 S    
C24   C28   1.406906 A    
O5    Zn1   1.996971 S    
C48   H32   1.111043 S    
C45   H23   1.110771 S    
C16   H2    1.083189 S    
C57   H52   1.110071 S    
C43   H19   1.116154 S    
C10   C14   1.404642 A    
C17   H3    1.083185 S    
O17   C49   1.420618 S    
C21   C25   1.396348 A    
C1    C31   1.392805 S    
C2    C32   1.392806 S    
C23   C27   1.406945 A    
C49   C50   1.539201 S    
C52   H40   1.109998 S    
C56   H50   1.109200 S    
