data_mof_unit_56554.cif
_audit_creation_date              2012-12-10T18:04:00-0500
_audit_creation_method            fapswitch 2.2
_symmetry_space_group_name_H-M    P1
_symmetry_Int_Tables_number       1
_space_group_crystal_system       triclinic
_cell_length_a                    10.831229
_cell_length_b                    9.626393
_cell_length_c                    10.804411
_cell_angle_alpha                 91.070416
_cell_angle_beta                  87.179109
_cell_angle_gamma                 89.762915
_cell_volume                      1124.95328161

loop_
_atom_site_label
_atom_site_type_symbol
_atom_type_description
_atom_site_fract_x
_atom_site_fract_y
_atom_site_fract_z
_atom_type_partial_charge
C1    C     C_R   0.262651 0.500620 0.492837 0.854071
C2    C     C_R   0.737023 0.500186 0.508011 0.888188
C3    C     C_R   0.561673 0.074957 0.409133 -0.090780
C4    C     C_R   0.437378 0.079519 0.589792 -0.066747
C5    C     C_R   0.563621 0.927747 0.406773 0.448964
C6    C     C_R   0.436216 0.932836 0.592229 0.482561
C7    C     C_R   0.500583 0.498351 0.262826 0.862089
C8    C     C_R   0.497729 0.500155 0.737707 0.826964
C9    C     C_R   0.549260 0.386159 0.058845 0.001168
C10   C     C_R   0.548273 0.387947 0.931838 0.043797
C11   C     C_R   0.492156 0.492666 0.130430 -0.040204
C12   C     C_R   0.490197 0.495544 0.871841 -0.081748
C13   C     C_R   0.414237 0.585179 0.072717 -0.109575
C14   C     C_R   0.410990 0.583958 0.943892 -0.081113
C15   C     C_3   0.674216 0.325113 0.914804 0.062658
C16   C     C_3   0.675160 0.320848 0.056141 0.053936
C17   C     C_R   0.064342 0.376670 0.492779 -0.182345
C18   C     C_R   0.936553 0.376141 0.498513 -0.157007
C19   C     C_R   0.871072 0.501373 0.515276 -0.211299
C20   C     C_R   0.128093 0.503014 0.487466 -0.209662
C21   C     C_R   0.936090 0.627452 0.527453 0.325056
C22   C     C_R   0.060736 0.629588 0.488289 0.354921
Cu1   Cu    Cu3+1 0.500000 0.640660 0.500000 1.165888
Cu2   Cu    Cu3+1 0.500000 0.359340 0.500000 0.996152
H1    H     H_    0.357762 0.659492 0.126470 0.215172
H2    H     H_    0.346937 0.652017 0.902909 0.217405
H3    H     H_    0.742459 0.397037 0.870465 0.171233
H4    H     H_    0.672671 0.214332 0.094080 0.208853
H5    H     H_    0.112884 0.277940 0.488650 0.201090
H6    H     H_    0.889381 0.277384 0.492665 0.211383
H7    H     H_    0.608863 0.133438 0.336863 0.196526
H8    H     H_    0.389911 0.141518 0.661784 0.209928
N1    N     N_R   0.500000 0.852070 0.500000 -0.271091
N2    N     N_R   0.500000 0.147940 0.500000 -0.239386
O1    O     O_R   0.319640 0.618740 0.499990 -0.487256
O2    O     O_R   0.680360 0.618740 0.500010 -0.486746
O3    O     O_R   0.319620 0.381170 0.499990 -0.604749
O4    O     O_R   0.680380 0.381170 0.500010 -0.589982
O5    O     O_R   0.499990 0.618810 0.319660 -0.507618
O6    O     O_R   0.500010 0.618810 0.680340 -0.492047
O7    O     O_R   0.499960 0.381240 0.319650 -0.604258
O8    O     O_R   0.500040 0.381240 0.680350 -0.586353
Br1   Br    Br    0.669404 0.141787 0.837124 -0.356086
Br2   Br    Br    0.801815 0.438577 0.123167 -0.429896
S1    S     S_3+6 0.873663 0.772349 0.615292 0.095070
O9    O     O_2   0.776673 0.724772 0.709309 -0.266883
O10   O     O_2   0.974687 0.843203 0.682630 -0.212535
O11   O     O_3   0.810826 0.886831 0.521068 -0.468791
H9    H     H_    0.781868 0.964958 0.576158 0.373079
S2    S     S_3+6 0.116647 0.780305 0.410425 0.078772
O12   O     O_2   0.215630 0.741873 0.313430 -0.314158
O13   O     O_2   0.012161 0.848486 0.347596 -0.218492
O14   O     O_3   0.173300 0.894464 0.511962 -0.464569
H10   H     H_    0.192622 0.978425 0.463182 0.355100
S3    S     S_3+6 0.646931 0.859344 0.271523 0.097621
O15   O     O_2   0.556828 0.834233 0.172323 -0.241145
O16   O     O_2   0.737453 0.966661 0.224355 -0.277840
O17   O     O_3   0.727859 0.713441 0.291719 -0.469279
H11   H     H_    0.808400 0.726244 0.246077 0.410730
S4    S     S_3+6 0.360468 0.871294 0.729594 0.068316
O18   O     O_2   0.458625 0.847818 0.820531 -0.233515
O19   O     O_2   0.273721 0.981171 0.784528 -0.275836
O20   O     O_3   0.276709 0.727180 0.708602 -0.533318
H12   H     H_    0.198481 0.741457 0.758680 0.385619

loop_
_geom_bond_atom_site_label_1
_geom_bond_atom_site_label_2
_ccdc_geom_bond_type
C17   C18   A    
C16   H4    S    
S2    O13   D    
Cu1   Cu2   S    
C18   H6    S    
C7    C11   S    
C1    O3    A    
C17   H5    S    
C9    C10   A    
C2    O4    A    
Cu2   O4    S    
C6    N1    A    
C22   S2    S    
C8    C12   S    
C21   C22   A    
S3    O15   D    
S1    O10   D    
Cu2   O3    S    
O17   H11   S    
C15   Br1   S    
C13   C14   A    
C14   H2    S    
C3    H7    S    
Cu2   O7    S    
C11   C13   A    
C13   H1    S    
C4    H8    S    
C10   C12   A    
S4    O20   S    
Cu1   O5    S    
C9    C11   A    
C4    C6    A    
O11   H9    S    
C19   C21   A    
C9    C16   S    
C8    O8    A    
S2    O12   D    
C21   S1    S    
C10   C15   S    
S3    O16   D    
Cu1   O1    S    
C4    N2    A    
S3    O17   S    
S1    O9    D    
S2    O14   S    
C15   C16   S    
Cu1   O6    S    
C6    S4    S    
C12   C14   A    
C17   C20   A    
Cu2   O8    S    
C1    O1    A    
S4    O19   D    
Cu1   O2    S    
S1    O11   S    
C2    O2    A    
C16   Br2   S    
C18   C19   A    
C1    C20   S    
C7    O5    A    
C8    O6    A    
C3    N2    A    
Cu1   N1    S    
C2    C19   S    
O14   H10   S    
C15   H3    S    
C5    S3    S    
Cu2   N2    S    
O20   H12   S    
C7    O7    A    
C20   C22   A    
S4    O18   D    
C3    C5    A    
C5    N1    A    
