data_mof_unit_60345.cif
_audit_creation_date              2012-12-10T16:52:44-0500
_audit_creation_method            fapswitch 2.2
_symmetry_space_group_name_H-M    P1
_symmetry_Int_Tables_number       1
_space_group_crystal_system       triclinic
_cell_length_a                    26.28875
_cell_length_b                    26.233328
_cell_length_c                    22.202785
_cell_angle_alpha                 90.050059
_cell_angle_beta                  54.117369
_cell_angle_gamma                 90.038089
_cell_volume                      12406.0412817

loop_
_atom_site_label
_atom_site_type_symbol
_atom_type_description
_atom_site_fract_x
_atom_site_fract_y
_atom_site_fract_z
_atom_type_partial_charge
C1    C     C_R   0.650381 0.249964 0.699456 0.819028
C2    C     C_1   0.889207 0.750224 0.221176 -0.054977
C3    C     C_2   0.248295 0.943877 0.499371 -0.270370
C4    C     C_3   0.522589 0.796946 0.975347 -0.126192
C5    C     C_3   0.522957 0.203307 0.975224 -0.123712
C6    C     C_3   0.023394 0.296763 0.975358 -0.126054
C7    C     C_3   0.020148 0.702762 0.975182 -0.123857
C8    C     C_1   0.389136 0.749797 0.221154 -0.058084
C9    C     C_1   0.389220 0.250229 0.221176 -0.054975
C10   C     C_1   0.610852 0.750089 0.778915 -0.102206
C11   C     C_1   0.610862 0.250028 0.778919 -0.107243
C12   C     C_1   0.110854 0.250088 0.778915 -0.102099
C13   C     C_1   0.110865 0.750030 0.778919 -0.107248
C14   C     C_3   0.033415 0.263644 0.025445 -0.206454
C15   C     C_3   0.032406 0.733275 0.025385 -0.181122
C16   C     C_3   0.533162 0.764433 0.025444 -0.206799
C17   C     C_R   0.650384 0.750060 0.699465 0.811402
C18   C     C_3   0.533361 0.236000 0.025392 -0.180749
C19   C     C_3   0.963209 0.249809 0.073216 0.048240
C20   C     C_3   0.963276 0.750304 0.073242 0.072911
C21   C     C_3   0.463196 0.749810 0.073216 0.048292
C22   C     C_3   0.463305 0.250309 0.073243 0.072951
C23   C     C_3   0.548049 0.717125 0.975546 -0.204097
C24   C     C_3   0.547933 0.283278 0.975646 -0.248556
C25   C     C_3   0.047503 0.216516 0.975535 -0.203817
C26   C     C_3   0.049790 0.781093 0.975683 -0.248451
C27   C     C_3   0.536661 0.749666 0.926863 0.102289
C28   C     C_R   0.150382 0.749964 0.699456 0.819037
C29   C     C_3   0.536716 0.250554 0.926887 0.113758
C30   C     C_3   0.036667 0.249665 0.926864 0.102204
C31   C     C_3   0.036718 0.750555 0.926887 0.113706
C32   C     C_3   0.977006 0.203508 0.024049 0.493515
C33   C     C_3   0.980300 0.797293 0.024289 0.420067
C34   C     C_3   0.477778 0.703331 0.024060 0.493738
C35   C     C_3   0.477567 0.296761 0.024248 0.420286
C36   C     C_3   0.466719 0.734966 0.974323 -0.200140
C37   C     C_3   0.466679 0.264942 0.974433 -0.197785
C38   C     C_3   0.966484 0.235755 0.974323 -0.200344
C39   C     C_R   0.150384 0.250060 0.699465 0.811419
C40   C     C_3   0.967611 0.767671 0.974438 -0.197793
C41   C     C_1   0.922525 0.249805 0.154363 0.043105
C42   C     C_1   0.922602 0.750251 0.154387 0.036309
C43   C     C_1   0.422516 0.749806 0.154363 0.043071
C44   C     C_1   0.422628 0.250258 0.154387 0.036256
C45   C     C_R   0.849629 0.249931 0.300560 0.835086
C46   C     C_R   0.849649 0.750074 0.300578 0.846334
C47   C     C_R   0.349629 0.749931 0.300560 0.835163
C48   C     C_R   0.349650 0.250075 0.300578 0.845961
C49   C     C_1   0.577411 0.749923 0.845732 -0.003359
C50   C     C_3   0.952611 0.282831 0.024238 -0.213307
C51   C     C_1   0.577441 0.250267 0.845743 -0.017551
C52   C     C_1   0.077415 0.249922 0.845732 -0.003231
C53   C     C_1   0.077445 0.750269 0.845743 -0.017558
C54   C     C_2   0.490898 0.223464 0.462028 -0.279689
C55   C     C_2   0.489913 0.777521 0.463893 -0.265764
C56   C     C_2   0.990904 0.723470 0.462018 -0.279646
C57   C     C_2   0.989922 0.277514 0.463875 -0.265724
C58   C     C_2   0.449219 0.261614 0.485865 0.329148
C59   C     C_2   0.449248 0.738754 0.485770 0.308340
C60   C     C_2   0.949220 0.761617 0.485863 0.329190
C61   C     C_3   0.950448 0.719890 0.024145 -0.206215
C62   C     C_2   0.949249 0.238750 0.485766 0.308349
C63   C     C_2   0.551872 0.229808 0.448700 0.338543
C64   C     C_2   0.551134 0.771710 0.450042 0.322187
C65   C     C_2   0.051877 0.729819 0.448693 0.338612
C66   C     C_2   0.051142 0.271701 0.450029 0.321581
C67   C     C_2   0.553694 0.244134 0.505900 0.414475
C68   C     C_2   0.553494 0.755892 0.506300 0.407569
C69   C     C_2   0.053695 0.744135 0.505898 0.414391
C70   C     C_2   0.053497 0.255890 0.506293 0.407652
C71   C     C_2   0.758436 0.972806 0.445434 0.359904
C72   C     C_3   0.452047 0.782226 0.024227 -0.213033
C73   C     C_2   0.738666 0.026312 0.459581 0.378929
C74   C     C_2   0.258344 0.472812 0.445486 0.359968
C75   C     C_2   0.238573 0.526316 0.459671 0.378894
C76   C     C_2   0.745525 0.943798 0.502895 -0.478625
C77   C     C_2   0.756915 0.056084 0.493369 -0.466561
C78   C     C_2   0.245511 0.443798 0.502909 -0.478639
C79   C     C_2   0.256896 0.556085 0.493383 -0.466557
C80   C     C_R   0.889296 0.248578 0.498384 0.763145
C81   C     C_R   0.889311 0.751470 0.498404 0.776541
C82   C     C_R   0.389295 0.748578 0.498385 0.763181
C83   C     C_3   0.452327 0.217713 0.024180 -0.207010
C84   C     C_R   0.389311 0.251470 0.498405 0.776496
C85   C     C_R   0.611628 0.249805 0.499550 0.815507
C86   C     C_R   0.611583 0.750223 0.499633 0.803583
C87   C     C_R   0.111628 0.749805 0.499550 0.815582
C88   C     C_R   0.111583 0.250222 0.499632 0.803479
C89   C     C_R   0.749359 0.111232 0.500309 0.943787
C90   C     C_R   0.751144 0.888653 0.498901 0.958843
C91   C     C_R   0.249354 0.611233 0.500314 0.943870
C92   C     C_R   0.251143 0.388654 0.498902 0.958698
C93   C     C_R   0.749925 0.388582 0.499858 0.856338
C94   C     C_1   0.889141 0.249796 0.221154 -0.058036
C95   C     C_R   0.749990 0.611418 0.500251 0.857294
C96   C     C_R   0.249925 0.888582 0.499858 0.856390
C97   C     C_R   0.249990 0.111418 0.500251 0.857365
C98   C     C_2   0.800480 0.528065 0.456972 -0.145393
C99   C     C_2   0.800754 0.471940 0.458567 -0.147320
C100  C     C_2   0.300480 0.028065 0.456972 -0.145392
C101  C     C_2   0.300754 0.971940 0.458567 -0.147337
C102  C     C_2   0.748911 0.556122 0.502994 -0.269168
C103  C     C_2   0.748295 0.443877 0.499371 -0.270502
C104  C     C_2   0.248911 0.056122 0.502994 -0.269078
F1    F     F_    0.499260 0.250740 0.574897 -0.624722
F2    F     F_    0.499280 0.747499 0.574896 -0.625723
F3    F     F_    0.999259 0.750729 0.574897 -0.624875
F4    F     F_    0.999281 0.247504 0.574890 -0.625714
H1    H     H_    0.844936 0.546693 0.416594 0.186878
H2    H     H_    0.702058 0.460775 0.533188 0.165839
H3    H     H_    0.204103 0.039219 0.545169 0.163723
H4    H     H_    0.202058 0.960775 0.533188 0.165848
H5    H     H_    0.913358 0.310126 0.045093 0.178779
H6    H     H_    0.909365 0.694683 0.044902 0.176971
H7    H     H_    0.412337 0.809023 0.045074 0.178984
H8    H     H_    0.412784 0.190721 0.044966 0.176577
H9    H     H_    0.541691 0.835730 0.954107 0.160993
H10   H     H_    0.542296 0.164589 0.953861 0.158669
H11   H     H_    0.043151 0.335397 0.954126 0.161173
H12   H     H_    0.846192 0.453317 0.423924 0.187518
H13   H     H_    0.037189 0.663597 0.953785 0.158447
H14   H     H_    0.439901 0.722368 0.952715 0.185706
H15   H     H_    0.439764 0.277332 0.952891 0.185365
H16   H     H_    0.939456 0.223804 0.952714 0.185536
H17   H     H_    0.941502 0.782294 0.952901 0.185461
H18   H     H_    0.587435 0.690013 0.954936 0.182615
H19   H     H_    0.587157 0.310576 0.955101 0.167931
H20   H     H_    0.086428 0.188912 0.954917 0.182870
H21   H     H_    0.090570 0.806619 0.955168 0.168064
H22   H     H_    0.060370 0.275227 0.047295 0.181070
H23   H     H_    0.344936 0.046693 0.416594 0.186852
H24   H     H_    0.058472 0.719024 0.047164 0.175357
H25   H     H_    0.559914 0.776661 0.047294 0.180757
H26   H     H_    0.560209 0.223983 0.047176 0.175520
H27   H     H_    0.480132 0.185905 0.451543 0.167461
H28   H     H_    0.478123 0.815241 0.455292 0.165204
H29   H     H_    0.980143 0.685912 0.451526 0.167437
H30   H     H_    0.978139 0.315232 0.455262 0.165238
H31   H     H_    0.435696 0.399849 0.480632 0.394877
H32   H     H_    0.392791 0.623317 0.512763 0.376385
H33   H     H_    0.935690 0.899854 0.480648 0.394908
H34   H     H_    0.346192 0.953317 0.423924 0.187471
H35   H     H_    0.892782 0.123313 0.512784 0.376377
H36   H     H_    0.636309 0.212283 0.248718 0.393690
H37   H     H_    0.634344 0.796114 0.251673 0.395526
H38   H     H_    0.136317 0.712343 0.248702 0.393686
H39   H     H_    0.134370 0.296069 0.251648 0.396194
H40   H     H_    0.854082 0.985478 0.243312 0.415220
H41   H     H_    0.708274 0.076965 0.332374 0.408636
H42   H     H_    0.353630 0.485527 0.243392 0.414990
H43   H     H_    0.207997 0.576885 0.332606 0.408634
H44   H     H_    0.954715 0.068491 0.006092 0.409775
H45   H     H_    0.724516 0.960858 0.557310 0.138198
H46   H     H_    0.027877 0.896413 0.955532 0.347659
H47   H     H_    0.457710 0.567811 0.006137 0.409266
H48   H     H_    0.519389 0.396557 0.955548 0.347641
H49   H     H_    0.783494 0.039452 0.511824 0.151015
H50   H     H_    0.224557 0.460855 0.557314 0.138257
H51   H     H_    0.283524 0.539452 0.511769 0.150996
H52   H     H_    0.704103 0.539219 0.545169 0.163692
O1    O     O_3   0.750010 0.250010 0.500000 -0.530845
O2    O     O_R   0.613890 0.719960 0.543100 -0.588816
O3    O     O_3   0.473019 0.398507 0.985234 -0.496368
O4    O     O_R   0.113890 0.780040 0.543100 -0.592554
O5    O     O_R   0.113890 0.219960 0.543100 -0.588797
O6    O     O_R   0.697860 0.219970 0.664410 -0.635063
O7    O     O_R   0.697860 0.780030 0.664410 -0.638438
O8    O     O_R   0.197860 0.719970 0.664410 -0.635017
O9    O     O_R   0.197860 0.280030 0.664410 -0.638385
O10   O     O_R   0.802170 0.219970 0.335590 -0.579402
O11   O     O_R   0.802170 0.780030 0.335590 -0.568571
O12   O     O_R   0.302170 0.719970 0.335590 -0.579523
O13   O     O_3   0.750010 0.749990 0.500000 -0.535113
O14   O     O_R   0.302170 0.280030 0.335590 -0.568049
O15   O     O_R   0.637780 0.280050 0.664410 -0.623957
O16   O     O_R   0.637780 0.719950 0.664410 -0.623218
O17   O     O_R   0.137780 0.780050 0.664410 -0.623997
O18   O     O_R   0.137780 0.219950 0.664410 -0.623180
O19   O     O_R   0.862250 0.280060 0.335590 -0.639886
O20   O     O_R   0.862250 0.719940 0.335590 -0.642589
O21   O     O_R   0.362250 0.780060 0.335590 -0.639889
O22   O     O_R   0.362250 0.219940 0.335590 -0.642828
O23   O     O_R   0.843040 0.219980 0.543100 -0.615603
O24   O     O_3   0.250010 0.750010 0.500000 -0.530838
O25   O     O_R   0.843040 0.780020 0.543100 -0.578393
O26   O     O_R   0.343040 0.719980 0.543100 -0.615595
O27   O     O_R   0.343040 0.280020 0.543100 -0.578324
O28   O     O_R   0.656980 0.219970 0.456900 -0.599352
O29   O     O_R   0.656980 0.780030 0.456900 -0.614817
O30   O     O_R   0.156980 0.719970 0.456900 -0.599325
O31   O     O_R   0.156980 0.280030 0.456900 -0.614841
O32   O     O_R   0.758500 0.135440 0.543100 -0.657264
O33   O     O_R   0.758500 0.864560 0.543100 -0.631924
O34   O     O_R   0.258500 0.635440 0.543100 -0.657258
O35   O     O_3   0.250010 0.249990 0.500000 -0.535150
O36   O     O_R   0.258500 0.364560 0.543100 -0.631942
O37   O     O_R   0.698440 0.364590 0.543100 -0.630498
O38   O     O_R   0.698440 0.635410 0.543100 -0.628659
O39   O     O_R   0.198440 0.864590 0.543100 -0.630468
O40   O     O_R   0.198440 0.135410 0.543100 -0.628625
O41   O     O_R   0.741510 0.135430 0.456900 -0.548289
O42   O     O_R   0.741510 0.864570 0.456900 -0.575267
O43   O     O_R   0.241510 0.635430 0.456900 -0.548282
O44   O     O_R   0.241510 0.364570 0.456900 -0.575232
O45   O     O_R   0.801610 0.364600 0.456900 -0.642456
O46   O     O_R   0.886150 0.280070 0.456900 -0.643725
O47   O     O_R   0.801610 0.635400 0.456900 -0.644028
O48   O     O_R   0.301610 0.864600 0.456900 -0.642490
O49   O     O_R   0.301610 0.135400 0.456900 -0.643991
O50   O     O_2   0.444477 0.337384 0.570589 -0.208054
O51   O     O_2   0.535397 0.337352 0.439510 -0.269067
O52   O     O_3   0.427438 0.364852 0.471565 -0.530971
O53   O     O_2   0.537373 0.664253 0.435812 -0.233397
O54   O     O_2   0.446706 0.660889 0.566367 -0.220956
O55   O     O_3   0.430881 0.635565 0.465220 -0.523521
O56   O     O_2   0.944473 0.837379 0.570601 -0.208379
O57   O     O_R   0.886150 0.719930 0.456900 -0.652187
O58   O     O_2   0.035388 0.837361 0.439519 -0.268809
O59   O     O_3   0.927423 0.864857 0.471590 -0.530604
O60   O     O_2   0.037364 0.164243 0.435834 -0.233324
O61   O     O_2   0.946691 0.160895 0.566387 -0.221015
O62   O     O_3   0.930872 0.135559 0.465239 -0.523459
O63   O     O_2   0.665550 0.262053 0.333293 -0.287378
O64   O     O_2   0.648501 0.169633 0.351724 -0.251833
O65   O     O_3   0.597016 0.218547 0.298680 -0.518006
O66   O     O_2   0.646123 0.834713 0.357239 -0.224881
O67   O     O_2   0.665381 0.742932 0.331897 -0.283659
O68   O     O_R   0.386150 0.780070 0.456900 -0.643732
O69   O     O_3   0.595312 0.788475 0.301270 -0.518402
O70   O     O_2   0.165547 0.762093 0.333306 -0.287445
O71   O     O_2   0.148521 0.669669 0.351682 -0.252004
O72   O     O_3   0.097024 0.718602 0.298666 -0.517604
O73   O     O_2   0.146137 0.334697 0.357216 -0.223992
O74   O     O_2   0.165391 0.242914 0.331896 -0.282946
O75   O     O_3   0.095332 0.288448 0.301248 -0.518133
O76   O     O_2   0.853083 0.915404 0.336289 -0.274494
O77   O     O_2   0.758150 0.922524 0.340133 -0.180516
O78   O     O_3   0.833111 0.000461 0.293551 -0.475090
O79   O     O_R   0.386150 0.219930 0.456900 -0.652290
O80   O     O_2   0.660015 0.001468 0.424083 -0.249267
O81   O     O_2   0.637163 0.080207 0.494856 -0.290304
O82   O     O_3   0.731403 0.080134 0.354836 -0.432821
O83   O     O_2   0.352933 0.415428 0.336228 -0.275545
O84   O     O_2   0.257895 0.422544 0.340292 -0.179762
O85   O     O_3   0.332852 0.500489 0.293613 -0.475338
O86   O     O_2   0.159747 0.501483 0.424433 -0.249315
O87   O     O_2   0.137038 0.580244 0.495119 -0.290433
O88   O     O_3   0.231144 0.580118 0.355038 -0.432794
O89   O     O_2   0.965609 0.122006 0.104078 -0.256079
O90   O     O_R   0.613890 0.280040 0.543100 -0.592467
O91   O     O_2   0.875387 0.143416 0.102621 -0.252292
O92   O     O_3   0.973326 0.102207 0.983984 -0.530695
O93   O     O_2   0.882868 0.861196 0.104591 -0.207255
O94   O     O_2   0.975127 0.877223 0.103769 -0.251043
O95   O     O_3   0.981676 0.900281 0.985360 -0.496722
O96   O     O_2   0.467771 0.622324 0.104084 -0.257260
O97   O     O_2   0.377178 0.642193 0.102673 -0.251545
O98   O     O_3   0.475782 0.601644 0.984021 -0.531443
O99   O     O_2   0.376476 0.357158 0.104375 -0.206568
O100  O     O_2   0.467522 0.378575 0.103787 -0.251692
S1    S     S_3+6 0.466303 0.326405 0.492390 0.097418
S2    S     S_3+6 0.688796 0.046969 0.434730 0.116232
S3    S     S_3+6 0.301243 0.450599 0.352149 0.133850
S4    S     S_3+6 0.188609 0.546980 0.434962 0.116181
S5    S     S_3+6 0.945808 0.141275 0.056999 0.059746
S6    S     S_3+6 0.953366 0.860393 0.057621 0.073780
S7    S     S_3+6 0.447629 0.640858 0.057025 0.059312
S8    S     S_3+6 0.446935 0.359138 0.057529 0.074131
S9    S     S_3+6 0.468001 0.673866 0.488887 0.107409
S10   S     S_3+6 0.966296 0.826408 0.492401 0.097575
S11   S     S_3+6 0.967993 0.173863 0.488902 0.107438
S12   S     S_3+6 0.618852 0.219800 0.356313 0.071791
S13   S     S_3+6 0.617599 0.784724 0.358339 0.075500
S14   S     S_3+6 0.118859 0.719836 0.356300 0.071771
S15   S     S_3+6 0.117612 0.284706 0.358325 0.076430
S16   S     S_3+6 0.801433 0.950579 0.352096 0.134039
Zn1   Zn    Zn3+2 0.823730 0.292940 0.438410 1.009019
Zn2   Zn    Zn3+2 0.737880 0.792910 0.438410 1.128909
Zn3   Zn    Zn3+2 0.237880 0.707090 0.438410 1.133825
Zn4   Zn    Zn3+2 0.237880 0.292910 0.438410 1.129145
Zn5   Zn    Zn3+2 0.676310 0.292930 0.561590 1.040107
Zn6   Zn    Zn3+2 0.676310 0.707070 0.561590 1.035932
Zn7   Zn    Zn3+2 0.176310 0.792930 0.561590 1.040063
Zn8   Zn    Zn3+2 0.176310 0.207070 0.561590 1.036039
Zn9   Zn    Zn3+2 0.823730 0.707060 0.438410 1.011702
Zn10  Zn    Zn3+2 0.323730 0.792940 0.438410 1.009009
Zn11  Zn    Zn3+2 0.323730 0.207060 0.438410 1.011461
Zn12  Zn    Zn3+2 0.762140 0.207100 0.561590 1.013781
Zn13  Zn    Zn3+2 0.762140 0.792900 0.561590 1.044803
Zn14  Zn    Zn3+2 0.262140 0.707100 0.561590 1.013856
Zn15  Zn    Zn3+2 0.262140 0.292900 0.561590 1.044779
Zn16  Zn    Zn3+2 0.737880 0.207090 0.438410 1.133836

loop_
_geom_bond_atom_site_label_1
_geom_bond_atom_site_label_2
_ccdc_geom_bond_type
H42   O85   S    
C99   C103  D    
O8    Zn14  S    
C55   C59   D    
C96   O39   A    
C45   O10   A    
O24   Zn3   S    
C77   C89   S    
H40   O78   S    
C96   O48   A    
C54   C63   S    
C45   C94   S    
C76   H45   S    
C100  C104  D    
C59   S9    S    
C80   O23   A    
C81   O25   A    
O17   Zn7   S    
C15   H24   S    
O18   Zn8   S    
C24   H19   S    
O61   S11   D    
C95   C102  S    
C74   S3    S    
C85   O28   A    
C7    C15   S    
C98   H1    S    
C97   O40   A    
C66   S15   S    
C19   C32   S    
O28   Zn16  S    
H46   O95   S    
C15   C20   S    
C67   C85   S    
C21   C72   S    
O1    Zn16  S    
O25   Zn13  S    
O33   Zn13  S    
H43   O88   S    
C71   C73   S    
H47   O98   S    
C67   F1    S    
C5    C18   S    
C98   C102  D    
C82   O68   A    
O46   Zn1   S    
O76   S16   D    
O64   S12   D    
C41   C94   T    
C3    H4    S    
O84   S3    D    
O55   S9    S    
O21   Zn10  S    
C20   C33   S    
O23   Zn12  S    
C6    C30   S    
C58   S1    S    
C16   H25   S    
O77   S16   D    
C39   O18   A    
O13   Zn2   S    
C14   H22   S    
O79   Zn11  S    
O94   S6    D    
C14   C19   S    
O80   S2    D    
C92   O36   A    
C20   C42   S    
O57   Zn9   S    
O95   S6    S    
C64   S13   S    
C33   S6    S    
O67   S13   D    
C8    C47   S    
C39   O9    A    
C66   C70   D    
C90   O33   A    
O1    Zn5   S    
O31   Zn4   S    
C40   C61   S    
O54   S9    D    
C9    C48   S    
C98   C99   S    
O45   Zn1   S    
C73   C77   D    
C37   C83   S    
C84   O27   A    
C10   C49   T    
C75   C79   D    
O37   Zn5   S    
C90   O42   A    
C88   O31   A    
C80   O46   A    
C16   C21   S    
O40   Zn8   S    
O3    S8    S    
O97   S7    D    
C59   C82   S    
C57   C66   S    
C47   O21   A    
C93   C103  S    
C69   F3    S    
C72   H7    S    
C30   C38   S    
C97   O49   A    
C103  H2    S    
C18   C24   S    
C64   C68   D    
C62   C80   S    
C25   H20   S    
O24   Zn7   S    
C60   C81   S    
O89   S5    D    
C20   C61   S    
O16   Zn6   S    
O99   S8    D    
O22   Zn11  S    
C37   H15   S    
C78   H50   S    
O66   S13   D    
O100  S8    D    
O91   S5    D    
C79   C91   S    
C3    C101  D    
C87   O4    A    
O5    Zn8   S    
O83   S3    D    
C7    H13   S    
C48   O14   A    
O52   S1    S    
C33   C40   S    
O72   S14   S    
C34   S7    S    
C28   O8    A    
C78   C92   S    
O74   S15   D    
O35   Zn8   S    
C4    C16   S    
C93   O37   A    
O65   S12   S    
C6    C14   S    
C101  H34   S    
C26   C33   S    
O48   Zn10  S    
C23   C34   S    
C81   O57   A    
O82   S2    S    
C32   S5    S    
C6    C50   S    
C87   O30   A    
O62   S11   S    
C16   C23   S    
C23   H18   S    
O90   Zn5   S    
H36   O65   S    
C84   O79   A    
O85   S3    S    
C6    H11   S    
H44   O92   S    
C4    C27   S    
O86   S4    D    
O34   Zn14  S    
C29   C51   S    
H37   O69   S    
C1    O15   A    
C18   C22   S    
C69   C87   S    
H31   O52   S    
O29   Zn2   S    
C5    H10   S    
C22   C83   S    
O6    Zn12  S    
O1    Zn1   S    
C56   H29   S    
C1    O6    A    
C2    C42   T    
C54   H27   S    
C100  C101  S    
C89   O32   A    
C18   H26   S    
C34   C36   S    
C4    H9    S    
O12   Zn3   S    
C88   O5    A    
C61   H6    S    
O35   Zn11  S    
O88   S4    S    
C38   H16   S    
C36   C72   S    
O26   Zn14  S    
O75   S15   S    
O14   Zn4   S    
C8    C43   T    
O32   Zn12  S    
H35   O62   S    
O69   S13   S    
O58   S10   D    
C82   O26   A    
O9    Zn15  S    
C79   H51   S    
C71   C76   D    
O10   Zn16  S    
C55   H28   S    
C31   C40   S    
C24   C29   S    
C7    C61   S    
C30   C52   S    
H32   O55   S    
O38   Zn6   S    
H48   O3    S    
O43   Zn3   S    
H41   O82   S    
C86   O29   A    
C13   C28   S    
C28   O17   A    
C92   O44   A    
O1    Zn12  S    
C62   S11   S    
O50   S1    D    
C70   C88   S    
O70   S14   D    
O78   S16   S    
C12   C52   T    
C13   C53   T    
C95   O47   A    
O30   Zn3   S    
C46   O20   A    
C21   C34   S    
C56   C60   D    
O71   S14   D    
O39   Zn7   S    
C71   S16   S    
C26   H21   S    
O96   S7    D    
O41   Zn16  S    
O81   S2    D    
O93   S6    D    
C102  H52   S    
C4    C72   S    
C25   C30   S    
O13   Zn13  S    
C75   S4    S    
O24   Zn10  S    
O35   Zn4   S    
O47   Zn9   S    
C27   C36   S    
O7    Zn13  S    
C50   H5    S    
C12   C39   S    
O63   S12   D    
H33   O59   S    
C19   C50   S    
C95   O38   A    
C65   C69   D    
C14   C25   S    
C97   C104  S    
O27   Zn15  S    
O35   Zn15  S    
C74   C78   D    
C29   C37   S    
O44   Zn4   S    
C70   F4    S    
C60   S10   S    
C91   O43   A    
C19   C41   S    
C76   C90   S    
H39   O75   S    
C89   O41   A    
O49   Zn11  S    
C68   C86   S    
C1    C11   S    
C93   O45   A    
C47   O12   A    
C100  H23   S    
C57   C62   D    
H38   O72   S    
C2    C46   S    
C22   C35   S    
C35   C37   S    
C5    C83   S    
C40   H17   S    
C10   C17   S    
C56   C65   S    
O73   S15   D    
O20   Zn9   S    
C46   O11   A    
O60   S11   D    
C99   H12   S    
C21   C43   S    
C22   C44   S    
C3    C96   S    
C86   O2    A    
C32   C38   S    
C35   S8    S    
O87   S4    D    
C17   O16   A    
C25   C32   S    
C85   O90   A    
C68   F2    S    
O98   S7    S    
O56   S10   D    
C5    C29   S    
O2    Zn6   S    
C63   C67   D    
O51   S1    D    
C24   C35   S    
C7    C31   S    
C74   C75   S    
C27   C49   S    
C17   O7    A    
C91   O34   A    
O42   Zn2   S    
C15   C26   S    
O13   Zn6   S    
O4    Zn7   S    
C36   H14   S    
C63   S12   S    
C58   C84   S    
C55   C64   S    
C31   C53   S    
O11   Zn2   S    
C23   C27   S    
O24   Zn14  S    
C73   S2    S    
C54   C58   D    
O36   Zn15  S    
C9    C44   T    
C65   S14   S    
C83   H8    S    
C104  H3    S    
C38   C50   S    
O59   S10   S    
C48   O22   A    
C57   H30   S    
C11   C51   T    
C45   O19   A    
O68   Zn10  S    
O92   S5    S    
C26   C31   S    
O13   Zn9   S    
O19   Zn1   S    
O53   S9    D    
O15   Zn5   S    
C77   H49   S    
