data_mof_unit_30752.cif
_audit_creation_date              2012-12-10T20:42:40-0500
_audit_creation_method            fapswitch 2.2
_symmetry_space_group_name_H-M    P1
_symmetry_Int_Tables_number       1
_space_group_crystal_system       triclinic
_cell_length_a                    8.900365
_cell_length_b                    10.59877
_cell_length_c                    9.988716
_cell_angle_alpha                 89.941344
_cell_angle_beta                  89.955661
_cell_angle_gamma                 90.371149
_cell_volume                      942.244212694

loop_
_atom_site_label
_atom_site_type_symbol
_atom_type_description
_atom_site_fract_x
_atom_site_fract_y
_atom_site_fract_z
_atom_type_partial_charge
C1    C     C_R   0.499492 0.260880 0.500132 0.926515
C2    C     C_R   0.645229 0.935597 0.483223 0.257034
C3    C     C_R   0.508697 0.871097 0.503508 -0.154297
C4    C     C_R   0.381216 0.934363 0.544824 0.020736
C5    C     C_3   0.223452 0.922623 0.496071 -0.378702
C6    C     C_3   0.221618 0.065917 0.489981 0.140353
C7    C     C_R   0.382884 0.447998 0.071201 0.048977
C8    C     C_R   0.609746 0.560416 0.071086 0.282871
C9    C     C_R   0.609320 0.561025 0.928093 0.282393
C10   C     C_R   0.382932 0.447918 0.929060 0.013787
C11   C     C_3   0.222908 0.491672 0.923931 0.083053
C12   C     C_R   0.219134 0.499822 0.500011 0.917562
C13   C     C_3   0.222919 0.491752 0.076542 0.085050
C14   C     C_R   0.502033 0.739096 0.500263 0.945084
C15   C     C_R   0.780886 0.500193 0.499994 0.980248
C16   C     C_1   0.065531 0.500047 0.500032 -0.094674
C17   C     C_1   0.934535 0.500215 0.499976 -0.053128
C18   C     C_R   0.379369 0.062861 0.541926 -0.031266
C19   C     C_R   0.506479 0.128924 0.501865 -0.139519
C20   C     C_R   0.643745 0.067359 0.481291 0.219850
H1    H     H_    0.147430 0.418091 0.881248 0.124226
H2    H     H_    0.147472 0.418219 0.119642 0.149703
H3    H     H_    0.142536 0.109236 0.562479 0.169077
N1    N     N_R   0.499010 0.499140 0.142800 -0.131322
N2    N     N_R   0.499010 0.499180 0.857150 -0.128723
O1    O     O_R   0.500020 0.316790 0.614690 -0.621080
O2    O     O_R   0.500000 0.316760 0.385350 -0.574798
O3    O     O_R   0.285350 0.500020 0.614650 -0.603686
O4    O     O_R   0.285340 0.499980 0.385310 -0.590083
O5    O     O_R   0.500000 0.683240 0.614650 -0.565156
O6    O     O_R   0.499980 0.683210 0.385310 -0.567981
O7    O     O_R   0.714660 0.500020 0.614690 -0.592577
O8    O     O_R   0.714650 0.499980 0.385350 -0.576954
Zn1   Zn    Zn3+2 0.500010 0.500020 0.653130 1.044740
Zn2   Zn    Zn3+2 0.499990 0.499980 0.346870 1.072693
Br1   Br    Br    0.824341 0.162443 0.445968 -0.444324
Br2   Br    Br    0.197270 0.657820 0.160326 -0.308306
Br3   Br    Br    0.829972 0.845270 0.458353 -0.389362
H4    H     H_    0.215498 0.875049 0.397134 0.259718
H5    H     H_    0.148136 0.883102 0.574603 0.233824
Br4   Br    Br    0.206498 0.129327 0.307227 -0.392285
Br5   Br    Br    0.755654 0.663362 0.161396 -0.278962
Br6   Br    Br    0.751781 0.667301 0.836021 -0.312795
Br7   Br    Br    0.197045 0.657628 0.839554 -0.327513

loop_
_geom_bond_atom_site_label_1
_geom_bond_atom_site_label_2
_ccdc_geom_bond_type
C7    C10   A    
C12   O4    A    
O2    Zn2   S    
O4    Zn2   S    
C13   Br2   S    
C19   C20   A    
C7    C13   S    
N2    Zn1   S    
C4    C18   A    
C2    C3    A    
O3    Zn1   S    
C15   O7    A    
O1    Zn1   S    
C11   C13   S    
C5    C6    S    
C3    C14   S    
C12   O3    A    
C6    H3    S    
C10   N2    A    
C8    N1    A    
C11   H1    S    
C13   H2    S    
C5    H4    S    
C1    O1    A    
C6    C18   S    
O6    Zn2   S    
C9    Br6   S    
N1    Zn2   S    
C1    C19   S    
C10   C11   S    
O5    Zn1   S    
C9    N2    A    
C7    N1    A    
C20   Br1   S    
C12   C16   S    
C11   Br7   S    
C15   C17   S    
C18   C19   A    
C5    H5    S    
C1    O2    A    
C14   O6    A    
C2    Br3   S    
C8    C9    A    
O8    Zn2   S    
C14   O5    A    
C2    C20   A    
C15   O8    A    
C3    C4    A    
C16   C17   T    
C8    Br5   S    
C4    C5    S    
C6    Br4   S    
O7    Zn1   S    
