data_mof_unit_24489.cif
_audit_creation_date              2012-12-11T18:11:19-0500
_audit_creation_method            fapswitch 2.2
_symmetry_space_group_name_H-M    P1
_symmetry_Int_Tables_number       1
_space_group_crystal_system       triclinic
_cell_length_a                    8.18427
_cell_length_b                    12.708227
_cell_length_c                    18.735799
_cell_angle_alpha                 99.44251
_cell_angle_beta                  91.031583
_cell_angle_gamma                 98.590247
_cell_volume                      1898.89158919

loop_
_atom_site_label
_atom_site_type_symbol
_atom_type_description
_atom_site_fract_x
_atom_site_fract_y
_atom_site_fract_z
_atom_type_partial_charge
Ba1   Ba    Ba6+2 0.852780 0.548340 0.465070 1.655472
Ba2   Ba    Ba6+2 0.337060 0.451750 0.534940 1.645532
C1    C     C_3   0.585271 0.900723 0.254766 -0.412219
C2    C     C_3   0.634691 0.818729 0.298406 0.345951
C3    C     C_3   0.461598 0.276284 0.314365 0.310685
C4    C     C_3   0.443477 0.241404 0.232628 -0.397016
C5    C     C_3   0.073515 0.243812 0.735597 0.367989
C6    C     C_3   0.094453 0.220665 0.812119 -0.374533
C7    C     C_3   0.580705 0.186719 0.714203 0.348164
C8    C     C_3   0.648009 0.130293 0.771284 -0.429188
C9    C     C_R   0.992101 0.445640 0.048330 0.011523
C10   C     C_R   0.899173 0.387400 0.096103 -0.091730
C11   C     C_R   0.762953 0.412244 0.954427 -0.105861
C12   C     C_3   0.130715 0.761288 0.265893 0.360397
C13   C     C_R   0.929058 0.452149 0.977762 0.018138
C14   C     C_R   0.705304 0.413713 0.884373 -0.103394
C15   C     C_R   0.810119 0.455106 0.833941 -0.035393
C16   C     C_R   0.973693 0.503537 0.856914 0.005798
C17   C     C_R   0.033473 0.502531 0.929227 0.021018
C18   C     C_R   0.756681 0.448894 0.760996 -0.008455
C19   C     C_R   0.865448 0.488686 0.711709 -0.286899
C20   C     C_R   0.022098 0.545158 0.733853 0.009284
C21   C     C_R   0.077505 0.552850 0.807627 -0.042653
C22   C     C_R   0.155606 0.495458 0.071381 0.023273
C23   C     C_3   0.111946 0.785675 0.189628 -0.366295
C24   C     C_R   0.215460 0.495030 0.143658 -0.001308
C25   C     C_R   0.112448 0.444818 0.192708 -0.036890
C26   C     C_R   0.958873 0.386005 0.166001 -0.024929
C27   C     C_R   0.233669 0.607237 0.833884 -0.031454
C28   C     C_R   0.292453 0.606533 0.903731 -0.083242
C29   C     C_R   0.197489 0.551225 0.952126 0.008613
C30   C     C_R   0.259963 0.545827 0.022869 0.017478
C31   C     C_R   0.425665 0.586935 0.046403 -0.105523
C32   C     C_R   0.378924 0.544255 0.166689 -0.036705
C33   C     C_R   0.483121 0.586380 0.116457 -0.094820
C34   C     C_3   0.310429 0.805177 0.708608 0.494617
C35   C     C_R   0.433582 0.549824 0.239337 -0.005138
C36   C     C_R   0.325386 0.508994 0.288480 -0.300658
C37   C     C_R   0.167183 0.454590 0.266537 0.039197
C38   C     C_R   0.763652 0.182323 0.528841 -0.272681
C39   C     C_R   0.425737 0.808520 0.472589 -0.253682
C40   C     C_R   0.402998 0.983947 0.444059 -0.117466
C41   C     C_R   0.336755 0.876250 0.441814 -0.014328
C42   C     C_R   0.577286 0.848666 0.509991 0.079711
C43   C     C_R   0.643219 0.960308 0.516387 -0.060869
C44   C     C_R   0.554903 0.028033 0.481812 -0.065823
C45   C     C_3   0.258669 0.864296 0.780757 -0.418082
C46   C     C_R   0.617793 0.139052 0.488269 0.047876
C47   C     C_R   0.855598 0.116581 0.559616 -0.012024
C48   C     C_R   0.793750 0.006791 0.555723 -0.096345
C49   C     C_3   0.961826 0.212954 0.381122 0.279072
C50   C     C_3   0.949386 0.090956 0.365036 -0.350455
C51   C     C_3   0.732474 0.707135 0.682460 0.299700
C52   C     C_3   0.768505 0.748044 0.763120 -0.424998
H1    H     H_    0.727719 0.860352 0.341672 0.076511
H2    H     H_    0.187403 0.806494 0.811182 0.076960
H3    H     H_    0.369932 0.906087 0.814371 0.074964
H4    H     H_    0.178614 0.924587 0.772062 0.129135
H5    H     H_    0.841549 0.234931 0.397791 0.000673
H6    H     H_    0.056171 0.244075 0.425679 0.082413
H7    H     H_    0.855327 0.057554 0.320773 0.114251
H8    H     H_    0.912939 0.055742 0.413641 0.087057
H9    H     H_    0.070781 0.068485 0.348354 0.141611
H10   H     H_    0.843120 0.678196 0.658466 0.039101
H11   H     H_    0.627220 0.639800 0.675362 0.056225
H12   H     H_    0.535455 0.965601 0.290977 0.102529
H13   H     H_    0.879716 0.811148 0.771304 0.127894
H14   H     H_    0.790531 0.681268 0.791499 0.064412
H15   H     H_    0.662096 0.783234 0.787574 0.105945
H16   H     H_    0.522688 0.785222 0.324737 -0.056607
H17   H     H_    0.488930 0.860341 0.212667 0.114059
H18   H     H_    0.341971 0.297218 0.334406 0.016647
H19   H     H_    0.558927 0.348442 0.326404 0.060475
H20   H     H_    0.344300 0.170591 0.218735 0.127168
H21   H     H_    0.410922 0.308286 0.206585 0.056918
H22   H     H_    0.561837 0.219405 0.211324 0.118285
H23   H     H_    0.693905 0.936817 0.227549 0.129647
H24   H     H_    0.149908 0.720020 0.149812 0.072745
H25   H     H_    0.161608 0.316787 0.729959 0.109223
H26   H     H_    0.946030 0.260102 0.727551 -0.068716
H27   H     H_    0.223909 0.209746 0.823263 0.153164
H28   H     H_    0.064035 0.288850 0.851969 0.074362
H29   H     H_    0.011041 0.145907 0.818746 0.108578
H30   H     H_    0.685458 0.222298 0.684474 -0.054037
H31   H     H_    0.502742 0.126230 0.673855 0.053441
H32   H     H_    0.722902 0.190680 0.813406 0.118002
H33   H     H_    0.727080 0.072007 0.745800 0.087587
H34   H     H_    0.047044 0.685263 0.269439 0.094108
H35   H     H_    0.544353 0.086435 0.797381 0.122132
H36   H     H_    0.824244 0.480282 0.655588 0.066522
H37   H     H_    0.577049 0.381015 0.870413 0.110034
H38   H     H_    0.881211 0.338659 0.198830 0.095569
H39   H     H_    0.316043 0.649682 0.800723 0.065381
H40   H     H_    0.611163 0.619679 0.130348 0.111436
H41   H     H_    0.367467 0.515912 0.344370 0.073985
H42   H     H_    0.672510 0.380402 0.989562 0.072629
H43   H     H_    0.779697 0.339893 0.080685 0.057048
H44   H     H_    0.413963 0.651559 0.918052 0.056526
H45   H     H_    0.260521 0.749933 0.275457 -0.071907
H46   H     H_    0.516424 0.619289 0.011665 0.071524
H47   H     H_    0.330848 0.032672 0.418221 0.103013
H48   H     H_    0.866122 0.959386 0.582602 0.106633
H49   H     H_    0.811579 0.267276 0.532643 0.060739
H50   H     H_    0.372791 0.724685 0.470226 0.079057
H51   H     H_    0.981106 0.792125 0.177058 0.150225
H52   H     H_    0.190863 0.862981 0.184753 0.110332
H53   H     H_    0.403256 0.755230 0.720668 0.032653
O1    O     O_2   0.873090 0.425890 0.325140 -0.466501
O2    O     O_3   0.693767 0.792495 0.650294 -0.638169
O3    O     O_3   0.088878 0.847341 0.315762 -0.602084
O4    O     O_2   0.316610 0.574140 0.674900 -0.492598
O5    O     O_3   0.067290 0.565720 0.585630 -0.456180
O6    O     O_3   0.530210 0.372990 0.631200 -0.461282
O7    O     O_3   0.169268 0.745825 0.669024 -0.625428
O8    O     O_3   0.611340 0.366290 0.463630 -0.479561
O9    O     O_3   0.108550 0.314140 0.595200 -0.485010
O10   O     O_2   0.195220 0.122498 0.552550 -0.485273
O11   O     O_3   0.105103 0.154470 0.685952 -0.611908
O12   O     O_3   0.122420 0.434370 0.414380 -0.495314
O13   O     O_3   0.578370 0.633800 0.536380 -0.486651
O14   O     O_2   0.341510 0.231850 0.465510 -0.467312
O15   O     O_3   0.505088 0.190916 0.345734 -0.650191
O16   O     O_2   0.416726 0.456150 0.756364 -0.500139
O17   O     O_3   0.481221 0.260349 0.747434 -0.595595
O18   O     O_3   0.659500 0.627100 0.368810 -0.478695
O19   O     O_2   0.775535 0.545866 0.243743 -0.494780
O20   O     O_3   0.003436 0.253617 0.317918 -0.640969
O21   O     O_3   0.705647 0.740681 0.252056 -0.599329
O22   O     O_2   0.848200 0.768190 0.534530 -0.455653
O23   O     O_3   0.081160 0.685950 0.404810 -0.480579
O24   O     O_2   0.998201 0.878574 0.449224 -0.487410
P1    P     P_3+3 0.041040 0.394770 0.336330 0.970159
P2    P     P_3+3 0.672880 0.754030 0.556100 1.000889
P3    P     P_3+3 0.126887 0.823652 0.403561 0.958463
P4    P     P_3+3 0.148670 0.605320 0.663680 0.980353
P5    P     P_3+3 0.064654 0.175977 0.597838 0.943091
P6    P     P_3+3 0.643322 0.613168 0.275021 0.947237
P7    P     P_3+3 0.522355 0.230357 0.439890 0.934679
P8    P     P_3+3 0.546922 0.387514 0.725053 0.949072
N1    N     N_2   0.390320 0.882393 0.666228 -0.444508
H54   H     H_    0.492186 0.932668 0.691869 0.175658
C53   C     C_3   0.283522 0.935466 0.626337 -0.164895
H55   H     H_    0.359577 0.990616 0.596039 0.102621
H56   H     H_    0.207578 0.982083 0.663714 0.147681
H57   H     H_    0.201358 0.875866 0.586326 0.139418

loop_
_geom_bond_atom_site_label_1
_geom_bond_atom_site_label_2
_ccdc_geom_bond_type
O19   P6    D    
O13   P2    S    
C32   C35   A    
O17   P8    S    
C53   H57   S    
Ba1   P1    S    
C17   C29   A    
C15   C18   A    
C2    H16   S    
C23   H51   S    
C5    C6    S    
C43   C44   A    
C13   C17   A    
Ba2   O5    S    
C24   C25   A    
C35   C36   A    
C10   C26   A    
C6    H28   S    
C21   C27   A    
C18   P8    S    
C22   C24   A    
C16   C17   A    
C3    H18   S    
Ba1   O22   S    
C50   H7    S    
Ba1   O5    S    
C40   C44   A    
C36   C37   A    
C32   C33   A    
C51   H10   S    
C33   H40   S    
C52   H14   S    
C37   P1    S    
C38   C47   A    
C6    H29   S    
O16   P8    D    
C9    C22   A    
C7    O17   S    
C34   C45   S    
C12   O3    S    
Ba1   Ba2   S    
Ba1   O12   S    
C6    H27   S    
O20   P1    S    
C7    H31   S    
Ba2   O9    S    
C24   C32   A    
C8    H35   S    
C25   C37   A    
C14   C15   A    
C36   H41   S    
O7    P4    S    
O6    P8    S    
C51   H11   S    
C7    C8    S    
O24   P3    D    
C34   O7    S    
C35   P6    S    
C19   C20   A    
C34   H53   S    
C39   C41   A    
C5    O11   S    
O23   P3    S    
C9    C13   A    
Ba1   P2    S    
C23   H52   S    
C4    H20   S    
C19   H36   S    
Ba2   O4    S    
C44   C46   A    
C8    H33   S    
C2    O21   S    
C11   H42   S    
O2    P2    S    
C23   H24   S    
C4    H21   S    
N1    H54   S    
O15   P7    S    
Ba1   O23   S    
Ba2   O13   S    
C52   H13   S    
C7    H30   S    
O18   P6    S    
C51   C52   S    
C3    O15   S    
C16   C21   A    
Ba1   O13   S    
O14   P7    D    
C41   P3    S    
C1    H17   S    
O21   P6    S    
C22   C30   A    
C27   C28   A    
C45   H3    S    
Ba2   O8    S    
C29   C30   A    
O8    P7    S    
C28   C29   A    
Ba2   O12   S    
C15   C16   A    
C26   H38   S    
C34   N1    S    
C10   H43   S    
O22   P2    D    
C47   P5    S    
C48   H48   S    
C11   C13   A    
C2    H1    S    
C39   C42   A    
C53   H56   S    
O3    P3    S    
C1    H12   S    
C49   H5    S    
C40   C41   A    
O5    P4    S    
C1    C2    S    
C1    H23   S    
C40   H47   S    
O11   P5    S    
C42   C43   A    
C5    H25   S    
Ba2   O14   S    
C51   O2    S    
C42   P2    S    
C38   C46   A    
C8    H32   S    
C53   H55   S    
N1    C53   S    
C50   H9    S    
O12   P1    S    
C9    C10   A    
C4    H22   S    
O9    P5    S    
C28   H44   S    
Ba2   P4    S    
C39   H50   S    
C46   P7    S    
C20   P4    S    
Ba1   O18   S    
C31   H46   S    
C49   O20   S    
C30   C31   A    
C12   H34   S    
C49   C50   S    
C50   H8    S    
C38   H49   S    
C27   H39   S    
C31   C33   A    
C12   H45   S    
C3    C4    S    
C52   H15   S    
C43   C48   A    
Ba2   O6    S    
C12   C23   S    
C3    H19   S    
O4    P4    D    
O1    P1    D    
Ba1   O1    S    
C18   C19   A    
C14   H37   S    
C47   C48   A    
C11   C14   A    
C25   C26   A    
C20   C21   A    
C45   H2    S    
C49   H6    S    
Ba1   O8    S    
O10   P5    D    
C5    H26   S    
C45   H4    S    
