data_mof_unit_16575.cif
_audit_creation_date              2012-10-26T19:00:10-0400
_audit_creation_method            fapswitch 2.2
_symmetry_space_group_name_H-M    P1
_symmetry_Int_Tables_number       1
_space_group_crystal_system       triclinic
_cell_length_a                    10.799237
_cell_length_b                    10.820951
_cell_length_c                    9.573385
_cell_angle_alpha                 90.314859
_cell_angle_beta                  90.893921
_cell_angle_gamma                 90.379941
_cell_volume                      1118.54847553

loop_
_atom_site_label
_atom_site_type_symbol
_atom_type_description
_atom_site_fract_x
_atom_site_fract_y
_atom_site_fract_z
_atom_type_partial_charge
C1    C     C_R   0.497499 0.262557 0.499349 0.534598
C2    C     C_R   0.777879 0.194313 0.830264 -0.200285
C3    C     C_R   0.772250 0.085941 0.750473 -0.117154
C4    C     C_R   0.262277 0.500937 0.498858 0.553167
C5    C     C_R   0.819853 0.083921 0.615629 0.421563
C6    C     C_R   0.871976 0.191710 0.558688 0.310922
C7    C     C_R   0.878527 0.300762 0.640084 -0.021163
C8    C     C_R   0.428449 0.063746 0.599807 0.033510
C9    C     C_R   0.487231 0.129549 0.494779 -0.032060
C10   C     C_R   0.527801 0.064273 0.376871 -0.123118
C11   C     C_R   0.529590 0.935456 0.377966 -0.053374
C12   C     C_R   0.235947 0.671788 0.024931 0.007287
C13   C     C_R   0.489555 0.870791 0.496284 -0.013675
C14   C     C_R   0.429787 0.936844 0.600591 0.017841
C15   C     C_3   0.433658 0.931822 0.756087 0.339925
C16   C     C_R   0.498462 0.737582 0.499930 0.575983
C17   C     C_3   0.431202 0.072563 0.755235 0.304305
C18   C     C_R   0.540639 0.601132 0.074940 0.101609
C19   C     C_R   0.450567 0.404444 0.072811 -0.017006
C20   C     C_R   0.450434 0.404612 0.924320 0.009725
C21   C     C_R   0.540220 0.601482 0.927845 0.167624
C22   C     C_3   0.665400 0.661195 0.925798 0.237331
C23   C     C_R   0.932239 0.583103 0.416961 0.376860
C24   C     C_3   0.666263 0.658483 0.084086 -0.164084
C25   C     C_R   0.737339 0.498737 0.501145 0.590951
C26   C     C_R   0.250238 0.751181 0.140323 0.378522
C27   C     C_R   0.190495 0.724687 0.265377 -0.024846
C28   C     C_R   0.113825 0.620230 0.273148 -0.004996
C29   C     C_R   0.096456 0.543692 0.155947 -0.077103
C30   C     C_R   0.161806 0.565519 0.032127 0.245156
C31   C     C_3   0.836306 0.186436 0.323632 -0.092797
C32   C     C_3   0.136503 0.363063 0.951341 -0.094118
C33   C     C_R   0.871015 0.499878 0.503803 0.036003
C34   C     C_R   0.938119 0.412764 0.582695 -0.025535
C35   C     C_R   0.066668 0.419372 0.584066 -0.074148
C36   C     C_R   0.127959 0.502162 0.497259 -0.036706
C37   C     C_R   0.060116 0.578123 0.405157 0.000615
C38   C     C_R   0.831709 0.301010 0.775780 -0.122100
Cu1   Cu    Cu3+1 0.499990 0.499980 0.640670 1.052427
Cu2   Cu    Cu3+1 0.500010 0.500020 0.359330 0.968304
F1    F     F_    0.818332 0.976432 0.542000 -0.600936
F2    F     F_    0.325871 0.880988 0.807134 -0.550775
F3    F     F_    0.321232 0.119130 0.805117 -0.597152
F4    F     F_    0.325264 0.851741 0.132088 -0.604335
F5    F     F_    0.755182 0.585880 0.870873 -0.625325
F6    F     F_    0.867014 0.663258 0.335992 -0.620653
H1    H     H_    0.285734 0.690187 0.930320 0.208968
H2    H     H_    0.736420 0.594559 0.128555 0.228624
H3    H     H_    0.665236 0.752099 0.131850 0.122519
H4    H     H_    0.205756 0.783346 0.356143 0.159269
H5    H     H_    0.035291 0.464505 0.164580 0.116965
H6    H     H_    0.119438 0.351692 0.642008 0.163631
H7    H     H_    0.838831 0.382902 0.840189 0.221773
H8    H     H_    0.741912 0.195193 0.935187 0.122912
H9    H     H_    0.764327 0.258097 0.339952 0.097175
H10   H     H_    0.793144 0.093295 0.314458 0.181675
H11   H     H_    0.880891 0.206742 0.222607 0.136407
H12   H     H_    0.732401 0.002882 0.794002 0.122003
H13   H     H_    0.167866 0.303645 0.864671 0.197415
H14   H     H_    0.036679 0.343665 0.966749 0.125377
H15   H     H_    0.191540 0.335569 0.045260 0.119815
H16   H     H_    0.564616 0.112191 0.287440 0.121934
H17   H     H_    0.568065 0.887396 0.289541 0.167511
H18   H     H_    0.519907 0.892049 0.800270 0.035868
H19   H     H_    0.515546 0.117880 0.799700 0.050958
H20   H     H_    0.412022 0.325999 0.126840 0.139261
H21   H     H_    0.411192 0.326946 0.868006 0.176816
H22   H     H_    0.665407 0.755671 0.881567 0.114028
N1    N     N_R   0.500790 0.500930 0.147930 -0.250953
N2    N     N_R   0.500790 0.500890 0.852020 -0.218635
O1    O     O_R   0.500000 0.319640 0.618810 -0.515539
O2    O     O_3   0.154921 0.488398 0.915187 -0.556960
O3    O     O_R   0.500010 0.319680 0.381230 -0.526578
O4    O     O_R   0.319640 0.499990 0.618790 -0.467671
O5    O     O_R   0.319650 0.500030 0.381210 -0.517503
O6    O     O_R   0.499990 0.680320 0.618770 -0.493265
O7    O     O_R   0.500000 0.680360 0.381190 -0.491844
O8    O     O_R   0.680350 0.499970 0.618790 -0.437350
O9    O     O_R   0.680360 0.500010 0.381210 -0.491989
O10   O     O_3   0.928220 0.188469 0.429796 -0.533398

loop_
_geom_bond_atom_site_label_1
_geom_bond_atom_site_label_2
_ccdc_geom_bond_type
C4    C36   S    
C18   C21   A    
C20   H21   S    
C35   C36   A    
C26   F4    S    
C31   O10   S    
C32   O2    S    
C26   C27   A    
C1    O1    A    
C18   C24   S    
C36   C37   A    
C32   H15   S    
C16   O7    A    
C11   H17   S    
C5    C6    A    
Cu2   O3    S    
C19   H20   S    
C34   C35   A    
Cu1   O4    S    
C4    O5    A    
C7    C38   A    
C19   C20   A    
C8    C9    A    
C23   C33   A    
C15   H18   S    
C31   H10   S    
C9    C10   A    
C4    O4    A    
C27   H4    S    
C18   N1    A    
C23   F6    S    
C16   O6    A    
C13   C14   A    
C20   N2    A    
C10   H16   S    
C12   H1    S    
Cu2   N1    S    
C25   O8    A    
C24   H2    S    
Cu1   O8    S    
C1    C9    S    
C2    H8    S    
Cu1   Cu2   S    
C23   C37   A    
C12   C26   A    
C17   F3    S    
C29   C30   A    
C2    C38   A    
C6    O10   S    
C33   C34   A    
Cu2   O9    S    
Cu1   O6    S    
C22   H22   S    
C7    C34   S    
C22   C24   S    
C19   N1    A    
C32   H14   S    
C35   H6    S    
C29   H5    S    
C24   H3    S    
C15   C17   S    
C5    F1    S    
C28   C29   A    
C8    C14   A    
C12   C30   A    
C25   O9    A    
C15   F2    S    
C3    C5    A    
C30   O2    S    
C6    C7    A    
C17   H19   S    
C8    C17   S    
Cu2   O5    S    
C21   N2    A    
C1    O3    A    
C31   H11   S    
C2    C3    A    
C11   C13   A    
C38   H7    S    
C28   C37   S    
Cu1   N2    S    
Cu2   O7    S    
C10   C11   A    
C3    H12   S    
C22   F5    S    
C13   C16   S    
C27   C28   A    
Cu1   O1    S    
C14   C15   S    
C32   H13   S    
C31   H9    S    
C21   C22   S    
C25   C33   S    
