data_mof_unit_41473.cif
_audit_creation_date              2012-12-10T16:54:56-0500
_audit_creation_method            fapswitch 2.2
_symmetry_space_group_name_H-M    P1
_symmetry_Int_Tables_number       1
_space_group_crystal_system       triclinic
_cell_length_a                    7.783567
_cell_length_b                    8.59588
_cell_length_c                    15.740958
_cell_angle_alpha                 91.171561
_cell_angle_beta                  85.797798
_cell_angle_gamma                 93.487859
_cell_volume                      1048.26204926

loop_
_atom_site_label
_atom_site_type_symbol
_atom_type_description
_atom_site_fract_x
_atom_site_fract_y
_atom_site_fract_z
_atom_type_partial_charge
C1    C     C_R   0.545077 0.794617 0.497781 0.960753
C2    C     C_3   0.345601 0.624236 0.056349 0.742268
C3    C     C_3   0.489355 0.516426 0.083623 -0.017263
C4    C     C_3   0.454301 0.345385 0.047561 -0.149738
C5    C     C_3   0.444084 0.350094 0.949871 0.384103
C6    C     C_1   0.490680 0.509240 0.175159 0.069710
C7    C     C_1   0.504695 0.511958 0.825257 0.155211
C8    C     C_1   0.506342 0.506065 0.749996 -0.109974
C9    C     C_2   0.567091 0.957985 0.496561 -0.513687
C10   C     C_2   0.428071 0.043411 0.503136 0.464104
C11   C     C_R   0.502008 0.500723 0.661466 0.865421
C12   C     C_R   0.454255 0.205784 0.502063 0.833058
C13   C     C_R   0.497965 0.499735 0.338545 0.874062
C14   C     C_3   0.359647 0.637424 0.954916 0.010636
C15   C     C_3   0.681841 0.563727 0.946079 1.116686
C16   C     C_3   0.675717 0.571266 0.045230 -0.285167
C17   C     C_1   0.493697 0.503948 0.250130 -0.152526
C18   C     C_3   0.496938 0.517987 0.917189 -0.136380
H1    H     H_    0.567992 0.278519 0.060050 0.217233
H2    H     H_    0.698897 0.008465 0.490323 0.195515
H3    H     H_    0.986657 0.618217 0.563541 0.162442
H4    H     H_    0.763739 0.483026 0.064997 0.227318
H5    H     H_    0.312690 0.313205 0.931816 0.135556
N1    N     N_2   0.950340 0.457950 0.477370 0.210437
N2    N     N_2   0.049660 0.542050 0.522630 -0.069212
O1    O     O_R   0.389240 0.738570 0.505550 -0.543660
O2    O     O_R   0.678400 0.711630 0.491050 -0.642640
O3    O     O_R   0.355360 0.513470 0.630110 -0.626043
O4    O     O_R   0.644510 0.486530 0.615610 -0.624063
O5    O     O_R   0.321600 0.288370 0.508950 -0.522984
O6    O     O_R   0.610760 0.261430 0.494450 -0.640442
O7    O     O_R   0.355490 0.513470 0.384390 -0.558432
O8    O     O_R   0.644640 0.486530 0.369890 -0.594136
Zn1   Zn    Zn3+2 0.306930 0.517990 0.509680 1.108729
Zn2   Zn    Zn3+2 0.693070 0.482010 0.490320 1.066007
C19   C     C_3   0.340576 0.782866 0.105106 -0.815187
H6    H     H_    0.227768 0.844897 0.087318 0.235149
H7    H     H_    0.321529 0.765153 0.174883 0.252263
H8    H     H_    0.456571 0.861000 0.093161 0.199695
C20   C     C_3   0.178899 0.598688 0.920117 -0.610681
H9    H     H_    0.121690 0.482622 0.939234 0.268979
H10   H     H_    0.086430 0.684764 0.945179 0.280717
H11   H     H_    0.184772 0.603715 0.849517 0.229793
F1    F     F_    0.187276 0.551753 0.083071 -0.682110
F2    F     F_    0.261372 0.983238 0.510880 -0.615872
F3    F     F_    0.029881 0.358417 0.423878 -0.513099
C21   C     C_3   0.410814 0.806738 0.923855 -0.717289
H12   H     H_    0.434755 0.809433 0.853475 0.261741
H13   H     H_    0.305789 0.886240 0.940768 0.235826
H14   H     H_    0.526607 0.859535 0.951851 0.278586
F4    F     F_    0.793887 0.451386 0.917123 -0.630950
F5    F     F_    0.748484 0.702036 0.909543 -0.679079
C22   C     C_3   0.756684 0.725600 0.081075 -0.781480
H15   H     H_    0.723060 0.739877 0.150352 0.243178
H16   H     H_    0.899428 0.725012 0.072258 0.284601
H17   H     H_    0.720673 0.829516 0.048032 0.260932
F6    F     F_    0.550163 0.241018 0.911110 -0.609721
C23   C     C_3   0.298920 0.247270 0.089617 -0.764586
H18   H     H_    0.173249 0.283832 0.070822 0.293554
H19   H     H_    0.307975 0.124036 0.068259 0.220692
H20   H     H_    0.299238 0.249823 0.160069 0.261448

loop_
_geom_bond_atom_site_label_1
_geom_bond_atom_site_label_2
_ccdc_geom_bond_type
C15   C18   S    
C2    F1    S    
C13   O8    A    
C14   C21   S    
C15   F4    S    
C9    C10   D    
O4    Zn2   S    
C9    H2    S    
C21   H12   S    
C5    H5    S    
C13   C17   S    
N2    Zn1   S    
C3    C6    S    
N1    F3    S    
C20   H11   S    
C7    C18   S    
C23   H20   S    
C20   H10   S    
C2    C3    S    
O3    Zn1   S    
C7    C8    T    
C21   H13   S    
C15   F5    S    
C10   C12   S    
C11   O3    A    
C10   F2    S    
C8    C11   S    
C12   O5    A    
C19   H7    S    
C20   H9    S    
O8    Zn2   S    
C21   H14   S    
C2    C19   S    
C22   H16   S    
C12   O6    A    
C1    O1    A    
C2    C14   S    
O6    Zn2   S    
N1    Zn2   S    
O5    Zn1   S    
C23   H19   S    
C3    C4    S    
C1    C9    S    
N1    N2    D    
C11   O4    A    
C22   H17   S    
C4    C23   S    
C1    O2    A    
C6    C17   T    
H3    N2    S    
C16   C22   S    
C19   H6    S    
C16   H4    S    
C5    C18   S    
C13   O7    A    
O2    Zn2   S    
C23   H18   S    
C22   H15   S    
C4    H1    S    
C14   C20   S    
C14   C18   S    
O1    Zn1   S    
C19   H8    S    
C3    C16   S    
C15   C16   S    
C5    F6    S    
C4    C5    S    
O7    Zn1   S    
