data_mof_unit_65531.cif
_audit_creation_date              2012-10-26T21:01:54-0400
_audit_creation_method            fapswitch 2.2
_symmetry_space_group_name_H-M    P1
_symmetry_Int_Tables_number       1
_space_group_crystal_system       triclinic
_cell_length_a                    9.704288
_cell_length_b                    10.952796
_cell_length_c                    13.88184
_cell_angle_alpha                 90.327516
_cell_angle_beta                  84.631698
_cell_angle_gamma                 90.506921
_cell_volume                      1468.94121981

loop_
_atom_site_label
_atom_site_type_symbol
_atom_type_description
_atom_site_fract_x
_atom_site_fract_y
_atom_site_fract_z
_atom_type_partial_charge
C1    C     C_R   0.501204 0.734762 0.498907 0.557007
C2    C     C_R   0.499523 0.265448 0.498030 0.557025
C3    C     C_R   0.522615 0.500035 0.317007 0.549888
C4    C     C_1   0.536474 0.500103 0.213731 -0.003709
C5    C     C_2   0.557202 0.500112 0.023070 -0.115893
C6    C     C_2   0.442706 0.501223 0.976902 -0.114225
C7    C     C_1   0.452946 0.500888 0.873170 -0.036461
C8    C     C_1   0.546974 0.500133 0.126804 -0.038797
C9    C     C_1   0.748094 0.884597 0.439136 0.238950
C10   C     C_1   0.126889 0.652900 0.623833 0.271533
C11   C     C_1   0.463488 0.500538 0.786247 0.000980
C12   C     C_2   0.614189 0.069519 0.487380 -0.161230
C13   C     C_2   0.497236 0.133742 0.490051 -0.127423
C14   C     C_2   0.616859 0.936331 0.476831 -0.045251
C15   C     C_2   0.502976 0.867371 0.502266 -0.118577
C16   C     C_2   0.070458 0.571746 0.555236 0.081559
C17   C     C_2   0.915734 0.576487 0.550507 -0.003256
C18   C     C_R   0.477382 0.500135 0.682983 0.555267
Cu1   Cu    Cu3+1 0.361370 0.499980 0.499980 0.981763
Cu2   Cu    Cu3+1 0.638630 0.500020 0.500020 0.969626
H1    H     H_    0.340825 0.502256 0.016713 0.142718
H2    H     H_    0.713078 0.116379 0.489921 0.156889
H3    H     H_    0.397833 0.091096 0.481833 0.110205
H4    H     H_    0.406275 0.908354 0.530532 0.107409
H5    H     H_    0.112334 0.448416 0.449256 0.200042
H6    H     H_    0.898361 0.431238 0.464509 0.204374
H7    H     H_    0.659079 0.499042 0.983254 0.141031
H8    H     H_    0.858468 0.646155 0.592919 0.147876
N1    N     N_2   0.152970 0.501340 0.501040 -0.356146
N2    N     N_2   0.846830 0.501370 0.501060 -0.349236
N3    N     N_1   0.853042 0.843636 0.408984 -0.286862
N4    N     N_1   0.171453 0.718367 0.679092 -0.304682
O1    O     O_R   0.382960 0.678040 0.499980 -0.482835
O2    O     O_R   0.617100 0.678080 0.500020 -0.481752
O3    O     O_R   0.366380 0.499950 0.637830 -0.478826
O4    O     O_R   0.600520 0.499990 0.637860 -0.495022
O5    O     O_R   0.382900 0.321920 0.499980 -0.496315
O6    O     O_R   0.617040 0.321960 0.500020 -0.499607
O7    O     O_R   0.399480 0.500010 0.362140 -0.494619
O8    O     O_R   0.633620 0.500050 0.362170 -0.483418

loop_
_geom_bond_atom_site_label_1
_geom_bond_atom_site_label_2
_ccdc_geom_bond_type
C3    O8    A    
C5    C8    S    
C9    C14   S    
C11   C18   S    
C6    C7    S    
C1    C15   S    
C12   H2    S    
Cu2   O6    S    
C18   O3    A    
C2    O6    A    
Cu1   Cu2   S    
C4    C8    T    
Cu2   O2    S    
C3    O7    A    
Cu2   N2    S    
C7    C11   T    
C17   N2    D    
C17   H8    S    
C2    O5    A    
Cu1   O7    S    
C15   H4    S    
C12   C14   S    
C1    O2    A    
H6    N2    S    
H5    N1    S    
C5    C6    D    
Cu2   O8    S    
C9    N3    T    
C1    O1    A    
C3    C4    S    
Cu1   N1    S    
C10   N4    T    
C12   C13   D    
C13   H3    S    
Cu1   O1    S    
Cu1   O3    S    
C2    C13   S    
C14   C15   D    
C10   C16   S    
Cu1   O5    S    
C16   N1    D    
C5    H7    S    
C6    H1    S    
C18   O4    A    
C16   C17   S    
Cu2   O4    S    
