data_mof_unit_66872.cif
_audit_creation_date              2013-03-05T15:57:22-0500
_audit_creation_method            fapswitch 2.2
_symmetry_space_group_name_H-M    P1
_symmetry_Int_Tables_number       1
_space_group_crystal_system       triclinic
_cell_length_a                    17.104909
_cell_length_b                    18.243772
_cell_length_c                    8.381035
_cell_angle_alpha                 90.0
_cell_angle_beta                  101.768203
_cell_angle_gamma                 89.95694
_cell_volume                      2560.39559784

loop_
_atom_site_label
_atom_site_type_symbol
_atom_site_description
_atom_site_fract_x
_atom_site_fract_y
_atom_site_fract_z
_atom_type_partial_charge
P1    P     P_3+3 0.834140 0.419320 0.003900 0.455873
P2    P     P_3+3 0.834140 0.580680 0.503900 0.450240
P3    P     P_3+3 0.334140 0.919320 0.003900 0.455803
P4    P     P_3+3 0.334140 0.080680 0.503900 0.450333
O1    O     O_2   0.841960 0.394640 0.833410 -0.367318
O2    O     O_2   0.841960 0.605360 0.333410 -0.366296
O3    O     O_2   0.341960 0.894640 0.833410 -0.366886
O4    O     O_2   0.341960 0.105360 0.333410 -0.366868
O5    O     O_3   0.907950 0.463080 0.102990 -0.398636
O6    O     O_3   0.907950 0.536920 0.602990 -0.398123
O7    O     O_3   0.407950 0.963080 0.102990 -0.398912
O8    O     O_3   0.407950 0.036920 0.602990 -0.397753
O9    O     O_3   0.972780 0.329600 0.629720 -0.381864
O10   O     O_3   0.972780 0.670400 0.129720 -0.380057
O11   O     O_3   0.472780 0.829600 0.629720 -0.381822
O12   O     O_3   0.472780 0.170400 0.129720 -0.380166
O13   O     O_2   0.837697 0.274348 0.687347 -0.361967
O14   O     O_2   0.838856 0.727402 0.190193 -0.377935
O15   O     O_2   0.337748 0.774284 0.687332 -0.362226
O16   O     O_2   0.338923 0.227508 0.190290 -0.377818
O17   O     O_3   0.750980 0.477365 0.969852 -0.582670
O18   O     O_3   0.750930 0.522805 0.468630 -0.581858
O19   O     O_3   0.250970 0.977348 0.969701 -0.582774
O20   O     O_3   0.250958 0.022768 0.468762 -0.581641
O21   O     O_3   0.941079 0.176779 0.641789 -0.514295
O22   O     O_3   0.942722 0.823198 0.137992 -0.526630
O23   O     O_3   0.441173 0.676736 0.641751 -0.514337
O24   O     O_3   0.442837 0.323235 0.137713 -0.526754
H1    H     H_    0.060089 0.199884 0.728630 0.154030
H2    H     H_    0.063202 0.800725 0.203669 0.135597
H3    H     H_    0.560120 0.699755 0.729830 0.154700
H4    H     H_    0.563307 0.300932 0.204473 0.136000
C1    C     C_3   0.044621 0.095148 0.607172 -1.058204
C2    C     C_3   0.041675 0.905448 0.082832 -1.042177
C3    C     C_3   0.544913 0.595293 0.607087 -1.058581
C4    C     C_3   0.541864 0.405227 0.081706 -1.042216
H5    H     H_    0.608451 0.592061 0.596150 0.246101
H6    H     H_    0.604912 0.409013 0.067026 0.250265
H7    H     H_    0.108176 0.091779 0.596465 0.246178
H8    H     H_    0.104552 0.909362 0.067095 0.250218
H9    H     H_    0.035744 0.064108 0.715855 0.281069
H10   H     H_    0.034311 0.937407 0.191539 0.273877
H11   H     H_    0.536196 0.564060 0.715633 0.280914
H12   H     H_    0.533988 0.437686 0.189426 0.273627
P5    P     P_3+3 0.165830 0.418670 0.685610 0.451329
P6    P     P_3+3 0.165830 0.581330 0.185610 0.455258
P7    P     P_3+3 0.665830 0.918670 0.685610 0.451467
P8    P     P_3+3 0.665830 0.081330 0.185610 0.454969
P9    P     P_3+3 0.098197 0.260322 0.108798 0.462139
P10   P     P_3+3 0.100075 0.738324 0.609699 0.445314
P11   P     P_3+3 0.598210 0.760325 0.108748 0.462129
P12   P     P_3+3 0.600024 0.238368 0.609727 0.444874
O25   O     O_2   0.157990 0.394030 0.856030 -0.365733
O26   O     O_2   0.157990 0.605970 0.356030 -0.374638
O27   O     O_2   0.657990 0.894030 0.856030 -0.366238
O28   O     O_2   0.657990 0.105970 0.356030 -0.374062
O29   O     O_3   0.027110 0.329490 0.059550 -0.344369
O30   O     O_3   0.027110 0.670510 0.559550 -0.381123
O31   O     O_3   0.527110 0.829490 0.059550 -0.344249
O32   O     O_3   0.527110 0.170510 0.559550 -0.381386
O33   O     O_2   0.156257 0.268124 0.990600 -0.386970
O34   O     O_2   0.160997 0.727401 0.498743 -0.376165
O35   O     O_2   0.656310 0.768195 0.990651 -0.386755
O36   O     O_2   0.660922 0.227485 0.498698 -0.376318
O37   O     O_3   0.249727 0.475562 0.722947 -0.579082
O38   O     O_3   0.248991 0.523241 0.219459 -0.575628
O39   O     O_3   0.749729 0.975562 0.722730 -0.578895
O40   O     O_3   0.749006 0.023259 0.219637 -0.575698
O41   O     O_3   0.046913 0.178560 0.050833 -0.497834
O42   O     O_3   0.056859 0.823338 0.549462 -0.525979
O43   O     O_3   0.546945 0.678562 0.050567 -0.497897
O44   O     O_3   0.556787 0.323395 0.549642 -0.526386
C5    C     C_3   0.011760 0.155932 0.180322 0.377618
C6    C     C_3   0.980446 0.826131 0.586740 0.471909
C7    C     C_3   0.512323 0.655423 0.180396 0.375740
C8    C     C_3   0.480267 0.326000 0.586376 0.471476
H13   H     H_    0.983144 0.202447 0.233041 0.063331
H14   H     H_    0.936894 0.797966 0.489498 0.135175
H15   H     H_    0.484686 0.701745 0.235557 0.062863
H16   H     H_    0.437076 0.296948 0.489991 0.135359
C9    C     C_3   0.946454 0.100330 0.119572 -0.918903
C10   C     C_3   0.956201 0.905956 0.594758 -1.012789
C11   C     C_3   0.446103 0.600805 0.119255 -0.919997
C12   C     C_3   0.455150 0.405739 0.591390 -1.009167
H17   H     H_    0.394043 0.630465 0.047693 0.256862
H18   H     H_    0.392525 0.409324 0.608607 0.245549
H19   H     H_    0.893927 0.129194 0.047415 0.255991
H20   H     H_    0.893810 0.909795 0.613256 0.246694
H21   H     H_    0.967966 0.058043 0.043463 0.265746
H22   H     H_    0.961347 0.934566 0.480566 0.271718
H23   H     H_    0.466842 0.558353 0.042537 0.265508
H24   H     H_    0.460502 0.433699 0.476555 0.271909
C13   C     C_3   0.230587 0.456619 0.285729 0.367693
C14   C     C_3   0.229879 0.545174 0.772102 0.344643
C15   C     C_3   0.730334 0.956394 0.284496 0.366932
C16   C     C_3   0.729980 0.045099 0.772453 0.344905
H25   H     H_    0.235826 0.463848 0.418228 0.109577
H26   H     H_    0.228122 0.543309 0.903057 0.113459
H27   H     H_    0.734153 0.963391 0.416676 0.109659
H28   H     H_    0.728543 0.043093 0.903548 0.113082
H29   H     H_    0.170115 0.436160 0.229457 0.121043
H30   H     H_    0.172295 0.566107 0.700548 0.133766
H31   H     H_    0.670352 0.935612 0.225648 0.122093
H32   H     H_    0.672263 0.066047 0.701500 0.133474
C17   C     C_3   0.290767 0.399448 0.256431 -0.864512
C18   C     C_3   0.294675 0.597841 0.746434 -0.835795
C19   C     C_3   0.791474 0.899716 0.257519 -0.862444
C20   C     C_3   0.794629 0.097850 0.746383 -0.835784
H33   H     H_    0.351063 0.423977 0.272296 0.272112
H34   H     H_    0.354418 0.574285 0.796618 0.269710
H35   H     H_    0.851777 0.924525 0.277382 0.270742
H36   H     H_    0.854461 0.074249 0.795629 0.269857
H37   H     H_    0.292816 0.353138 0.342776 0.218678
H38   H     H_    0.288168 0.650962 0.806344 0.230056
H39   H     H_    0.792537 0.852943 0.342378 0.218706
H40   H     H_    0.788331 0.150839 0.806943 0.229698
H41   H     H_    0.273746 0.378371 0.130272 0.273948
H42   H     H_    0.290153 0.606850 0.614379 0.265461
H43   H     H_    0.776192 0.879264 0.130552 0.273465
H44   H     H_    0.789677 0.107139 0.614336 0.265746
Ba1   Ba    Ba6+2 0.000000 0.447380 0.844850 1.548314
Ba2   Ba    Ba6+2 0.000000 0.552620 0.344850 1.537594
Ba3   Ba    Ba6+2 0.500000 0.947380 0.844850 1.548307
Ba4   Ba    Ba6+2 0.500000 0.052620 0.344850 1.537516
C21   C     C_3   0.769873 0.544495 0.906607 0.383489
C22   C     C_3   0.770913 0.454761 0.411354 0.361200
C23   C     C_3   0.269954 0.044570 0.907013 0.382408
C24   C     C_3   0.270858 0.954838 0.410791 0.361488
H45   H     H_    0.766053 0.538096 0.774256 0.110301
H46   H     H_    0.773702 0.460304 0.281544 0.111432
H47   H     H_    0.266386 0.038335 0.774712 0.110462
H48   H     H_    0.273126 0.960546 0.280757 0.111457
H49   H     H_    0.829918 0.565037 0.965951 0.122720
H50   H     H_    0.828274 0.432893 0.481981 0.128931
H51   H     H_    0.329905 0.065124 0.966902 0.123254
H52   H     H_    0.328455 0.933037 0.480490 0.128343
C25   C     C_3   0.708831 0.600999 0.934824 -0.893681
C26   C     C_3   0.705734 0.400450 0.427464 -0.863306
C27   C     C_3   0.208774 0.100949 0.935048 -0.892745
C28   C     C_3   0.205982 0.900322 0.427688 -0.863095
H53   H     H_    0.648486 0.576252 0.915616 0.272292
H54   H     H_    0.646270 0.426175 0.389030 0.269747
H55   H     H_    0.148371 0.076249 0.914148 0.271882
H56   H     H_    0.146414 0.926008 0.390852 0.270126
H57   H     H_    0.707693 0.647889 0.850286 0.221506
H58   H     H_    0.708987 0.351461 0.351066 0.217000
H59   H     H_    0.208128 0.148182 0.851591 0.221980
H60   H     H_    0.208875 0.851554 0.350420 0.216717
H61   H     H_    0.724383 0.621155 0.061887 0.272562
H62   H     H_    0.712664 0.383391 0.556338 0.274221
H63   H     H_    0.223759 0.120557 0.062605 0.272272
H64   H     H_    0.213611 0.882903 0.556453 0.274208
O45   O     O_3   0.092100 0.536880 0.086720 -0.393696
O46   O     O_3   0.092100 0.463120 0.586720 -0.401039
O47   O     O_3   0.592100 0.036880 0.086720 -0.394382
O48   O     O_3   0.592100 0.963120 0.586720 -0.400759
P13   P     P_3+3 0.899637 0.738069 0.078845 0.447526
P14   P     P_3+3 0.899450 0.262136 0.578861 0.464290
P15   P     P_3+3 0.399675 0.238100 0.078841 0.447731
P16   P     P_3+3 0.399504 0.762092 0.578838 0.464313
C29   C     C_3   0.020535 0.174722 0.621163 0.514286
C30   C     C_3   0.019436 0.825755 0.101840 0.480654
C31   C     C_3   0.520759 0.674808 0.621812 0.513355
C32   C     C_3   0.519653 0.325621 0.101978 0.479940
H65   H     H_    0.029229 0.203950 0.509967 -0.014941
H66   H     H_    0.023002 0.796986 0.986577 0.023873
H67   H     H_    0.529742 0.704334 0.511192 -0.013521
H68   H     H_    0.523472 0.296424 0.987332 0.024345
H69   H     H_    0.507176 0.570006 0.497704 0.260774
H70   H     H_    0.502117 0.428768 0.972460 0.260916
H71   H     H_    0.006927 0.069756 0.497928 0.260515
H72   H     H_    0.001536 0.929425 0.974650 0.260976
H73   H     H_    0.426968 0.573851 0.223678 0.227276
H74   H     H_    0.494975 0.434155 0.693518 0.262938
H75   H     H_    0.927622 0.073267 0.224183 0.227083
H76   H     H_    0.996720 0.933508 0.697207 0.263606
C33   C     C_R   0.136533 0.677756 0.922417 -0.527110
C34   C     C_R   0.136113 0.321927 0.422229 -0.498707
C35   C     C_R   0.636548 0.177748 0.922403 -0.527042
C36   C     C_R   0.636169 0.821981 0.422105 -0.499311
C37   C     C_R   0.864013 0.322230 0.265535 -0.501296
C38   C     C_R   0.863947 0.677766 0.765513 -0.522420
C39   C     C_R   0.364077 0.822178 0.265466 -0.500014
C40   C     C_R   0.363947 0.177755 0.765557 -0.523073
C41   C     C_R   0.792527 0.211151 0.298654 -0.180037
C42   C     C_R   0.792023 0.788619 0.799039 -0.194779
C43   C     C_R   0.292535 0.711140 0.298649 -0.180039
C44   C     C_R   0.292064 0.288642 0.799053 -0.194932
C45   C     C_R   0.849125 0.264151 0.362516 0.198747
C46   C     C_R   0.848704 0.735623 0.862824 0.216640
C47   C     C_R   0.349175 0.764111 0.362475 0.199394
C48   C     C_R   0.348724 0.235629 0.862847 0.216971
C49   C     C_R   0.817460 0.332902 0.109809 0.297856
C50   C     C_R   0.817417 0.667094 0.609770 0.275652
C51   C     C_R   0.317474 0.832888 0.109792 0.297394
C52   C     C_R   0.317428 0.167094 0.609799 0.275553
C53   C     C_R   0.756064 0.281387 0.046329 -0.073125
C54   C     C_R   0.756079 0.718665 0.546087 -0.062939
C55   C     C_R   0.256059 0.781388 0.046337 -0.073148
C56   C     C_R   0.256107 0.218680 0.546112 -0.063009
C57   C     C_R   0.244071 0.718986 0.141788 -0.076167
C58   C     C_R   0.243852 0.280933 0.641786 -0.082345
C59   C     C_R   0.744076 0.218986 0.141781 -0.076094
C60   C     C_R   0.743821 0.780918 0.641762 -0.082077
C61   C     C_R   0.182709 0.667436 0.078565 0.281212
C62   C     C_R   0.182424 0.332420 0.578474 0.275794
C63   C     C_R   0.682723 0.167430 0.078554 0.280845
C64   C     C_R   0.682419 0.832426 0.578426 0.276222
C65   C     C_R   0.151171 0.736004 0.825543 0.212390
C66   C     C_R   0.151331 0.264042 0.324522 0.171646
C67   C     C_R   0.651181 0.236000 0.825530 0.212833
C68   C     C_R   0.651327 0.764041 0.324474 0.171762
C69   C     C_R   0.207520 0.789260 0.889466 -0.194841
C70   C     C_R   0.207933 0.210977 0.388794 -0.210826
C71   C     C_R   0.707534 0.289253 0.889448 -0.194639
C72   C     C_R   0.707894 0.710951 0.388777 -0.211829
H77   H     H_    0.286172 0.665086 0.374698 0.177671
H78   H     H_    0.285678 0.334641 0.875554 0.185063
H79   H     H_    0.786184 0.165083 0.374678 0.177778
H80   H     H_    0.785620 0.834607 0.875540 0.184625
H81   H     H_    0.713636 0.335489 0.813379 0.181259
H82   H     H_    0.713958 0.664611 0.313111 0.175010
H83   H     H_    0.213621 0.835497 0.813400 0.181347
H84   H     H_    0.214006 0.164646 0.313131 0.174890
H85   H     H_    0.091615 0.637729 0.871897 0.174398
H86   H     H_    0.090338 0.361381 0.372595 0.169534
H87   H     H_    0.591616 0.137731 0.871900 0.174455
H88   H     H_    0.590499 0.861513 0.372360 0.169549
H89   H     H_    0.909136 0.362077 0.316056 0.167050
H90   H     H_    0.909490 0.638172 0.815632 0.173818
H91   H     H_    0.409241 0.861995 0.315940 0.166890
H92   H     H_    0.409465 0.138141 0.815701 0.173931
H93   H     H_    0.058054 0.129768 0.275728 0.068503
H94   H     H_    0.978555 0.800614 0.706360 0.022850
H95   H     H_    0.558673 0.628273 0.273834 0.070032
H96   H     H_    0.478605 0.301270 0.706886 0.022597

loop_
_geom_bond_atom_site_label_1
_geom_bond_atom_site_label_2
_geom_bond_distance
_ccdc_geom_bond_type
C10   H20   1.111404 S    
P6    C61   1.860719 S    
C67   C71   1.396702 A    
P1    O17   1.748813 S    
P5    C62   1.861746 S    
O10   Ba2   2.782237 S    
C35   C67   1.390855 A    
C20   H44   1.105625 S    
P3    O19   1.748751 S    
O7    Ba4   2.821068 S    
C2    H10   1.110227 S    
P8    O28   1.529093 D    
P4    O4    1.529832 D    
O6    Ba1   2.819697 S    
C54   C72   1.412183 A    
C28   H60   1.107436 S    
C54   C60   1.430043 A    
C2    H72   1.109244 S    
Ba3   Ba4   4.609418 S    
C70   H84   1.074288 S    
Ba3   O47   2.821047 S    
C26   H62   1.106911 S    
C34   C66   1.392862 A    
C1    H7    1.110548 S    
C7    H15   1.113515 S    
O11   Ba3   2.782777 S    
P7    C64   1.861831 S    
C18   H38   1.107406 S    
P1    O1    1.529772 D    
O15   P16   1.543888 D    
O28   Ba4   2.856528 S    
C25   H57   1.108381 S    
C3    H5    1.110661 S    
C23   H51   1.111176 S    
P6    O38   1.749314 S    
P3    O3    1.529772 D    
C24   H52   1.111157 S    
C43   H77   1.073530 S    
P4    O20   1.748924 S    
C15   H27   1.103758 S    
O18   C22   1.398046 S    
P7    O48   1.583390 S    
C14   H26   1.104586 S    
C21   H49   1.111259 S    
O1    Ba1   2.853205 S    
P9    O29   1.741892 S    
P4    Ba4   3.409994 S    
O22   P13   1.747457 S    
C36   C68   1.392920 A    
C33   C65   1.390837 A    
O32   Ba4   2.782049 S    
P13   C46   1.842685 S    
C25   H53   1.108206 S    
P12   O32   1.747376 S    
O23   C31   1.405365 S    
C30   H66   1.111934 S    
P5    O37   1.747467 S    
C37   C45   1.390339 A    
P11   C68   1.851751 S    
C38   H90   1.082015 S    
C14   C18   1.515510 S    
C60   C64   1.427935 A    
P10   C65   1.842052 S    
O21   C29   1.405051 S    
O16   P15   1.544632 D    
P9    C66   1.851833 S    
P2    O18   1.748892 S    
P12   C67   1.842048 S    
C39   C51   1.396927 A    
C12   H24   1.109448 S    
C40   C48   1.390565 A    
O41   C5    1.405806 S    
C38   C50   1.396996 A    
C6    H94   1.111790 S    
C3    H11   1.109052 S    
C28   H64   1.106861 S    
C5    H93   1.111496 S    
C53   C71   1.411752 A    
C52   C56   1.428604 A    
O25   Ba1   2.855145 S    
C9    H21   1.110293 S    
C33   H85   1.082136 S    
C28   H56   1.106364 S    
C16   C20   1.515552 S    
P7    O27   1.529152 D    
P5    O25   1.529152 D    
P9    O41   1.748911 S    
C18   H42   1.105880 S    
O12   P15   1.746746 S    
C35   H87   1.082130 S    
Ba2   O46   2.819677 S    
C17   H41   1.106883 S    
P2    O2    1.529832 D    
P11   O43   1.749084 S    
C6    C10   1.519145 S    
C12   H74   1.108201 S    
C24   H48   1.103316 S    
C22   H50   1.111180 S    
C19   H43   1.107510 S    
C15   H31   1.110769 S    
C51   C55   1.429249 A    
Ba3   O48   2.938602 S    
P2    Ba2   3.409994 S    
O31   Ba3   2.781511 S    
H3    C31   1.109880 S    
C8    C12   1.519537 S    
O30   Ba2   2.782049 S    
O40   C15   1.398919 S    
P9    O33   1.545747 D    
Ba1   O46   2.938602 S    
O10   P13   1.746769 S    
C42   C60   1.412054 A    
P10   O30   1.747363 S    
C68   C72   1.396663 A    
C32   H68   1.112121 S    
P11   O35   1.545753 D    
Ba1   O45   2.821047 S    
C40   H92   1.082021 S    
C8    H96   1.111849 S    
C26   H54   1.106434 S    
P14   C45   1.842090 S    
C37   H89   1.082124 S    
O20   C24   1.398078 S    
C22   H46   1.103318 S    
O4    Ba4   2.851834 S    
P5    Ba1   3.412213 S    
O23   P16   1.748124 S    
C40   C52   1.397002 A    
C42   H80   1.074935 S    
O22   C30   1.406430 S    
O24   P15   1.747574 S    
P3    C51   1.859897 S    
C20   H36   1.109136 S    
C44   C58   1.412061 A    
C3    C31   1.519939 S    
C42   C46   1.395609 A    
C1    C29   1.519802 S    
O42   C6    1.405366 S    
P12   O44   1.747331 S    
H1    C29   1.109780 S    
C27   H63   1.106757 S    
O9    Ba1   2.782777 S    
C19   H35   1.107776 S    
C39   H91   1.082117 S    
P7    Ba3   3.412213 S    
C33   C61   1.396460 A    
C35   C63   1.396465 A    
C31   H67   1.109741 S    
C27   H59   1.108476 S    
P6    O26   1.529093 D    
O5    Ba2   2.821068 S    
P1    O5    1.579500 S    
O44   C8    1.405150 S    
P7    O39   1.747470 S    
P8    O40   1.749309 S    
C7    H95   1.110547 S    
O13   P14   1.543844 D    
C19   H39   1.108610 S    
Ba1   Ba2   4.609418 S    
C9    H19   1.108122 S    
C15   C19   1.519492 S    
C5    C9    1.518460 S    
O38   C13   1.398850 S    
O37   C14   1.397944 S    
C25   H61   1.106631 S    
P8    O47   1.584361 S    
C10   H76   1.108169 S    
C34   C62   1.398585 A    
Ba4   O48   2.819677 S    
P12   O36   1.544494 D    
O39   C16   1.397840 S    
P10   O34   1.544466 D    
Ba2   O45   2.938371 S    
C2    H8    1.112289 S    
C4    H12   1.110569 S    
P4    O8    1.578541 S    
O2    Ba2   2.851834 S    
C13   H29   1.110507 S    
C4    H6    1.112277 S    
C1    H71   1.108259 S    
O27   Ba3   2.855145 S    
C13   H25   1.103637 S    
O9    P14   1.747588 S    
C37   C49   1.396867 A    
O24   C32   1.406635 S    
C55   C57   1.430149 A    
C18   H34   1.108989 S    
C17   H37   1.108287 S    
P4    C52   1.859490 S    
C16   H32   1.110993 S    
C17   H33   1.107432 S    
C22   C26   1.518548 S    
C5    H13   1.114686 S    
C41   H79   1.073516 S    
P1    Ba1   3.410635 S    
C11   H17   1.107651 S    
C58   C62   1.427917 A    
C55   C69   1.411756 A    
C43   C47   1.395957 A    
C56   C70   1.412150 A    
C8    H16   1.111944 S    
P16   C47   1.842246 S    
C12   H18   1.111532 S    
C2    C30   1.519685 S    
C39   C47   1.390384 A    
P8    Ba4   3.412868 S    
C41   C45   1.395954 A    
C44   H78   1.075029 S    
H2    C30   1.111834 S    
C11   H23   1.109836 S    
C43   C57   1.411133 A    
O19   C23   1.398467 S    
C4    H70   1.109344 S    
C10   H22   1.109314 S    
C44   C48   1.395626 A    
C21   C25   1.519153 S    
C20   H40   1.107197 S    
C23   H47   1.103873 S    
C11   H73   1.109936 S    
O12   Ba4   2.782237 S    
C1    H9    1.109043 S    
O11   P16   1.747555 S    
C13   C17   1.519640 S    
O14   P13   1.544579 D    
C66   C70   1.396637 A    
C41   C59   1.411100 A    
O43   C7    1.405731 S    
C69   H83   1.075232 S    
C7    C11   1.517698 S    
C50   C54   1.428611 A    
O8    Ba3   2.819697 S    
C59   C63   1.428801 A    
C26   H58   1.107381 S    
C49   C53   1.429252 A    
P15   C48   1.842584 S    
H4    C32   1.111848 S    
P8    C63   1.860735 S    
P3    Ba3   3.410635 S    
C3    H69   1.108587 S    
C36   H88   1.081904 S    
C53   C59   1.430145 A    
P6    O45   1.584361 S    
C16   H28   1.104596 S    
C65   C69   1.396704 A    
P10   O42   1.747235 S    
C34   H86   1.081885 S    
C72   H82   1.074409 S    
P3    O7    1.579500 S    
O29   Ba1   2.781511 S    
C21   H45   1.103977 S    
O26   Ba2   2.856528 S    
P11   O31   1.741963 S    
C14   H30   1.110920 S    
C56   C58   1.430036 A    
C6    H14   1.111801 S    
Ba4   O47   2.938371 S    
O21   P14   1.747941 S    
C4    C32   1.519722 S    
C57   C61   1.428811 A    
P1    C49   1.859810 S    
P6    Ba2   3.412868 S    
C27   H55   1.108207 S    
P5    O46   1.583390 S    
C38   C46   1.390541 A    
P2    C50   1.859403 S    
C36   C64   1.398595 A    
O17   C21   1.398482 S    
C23   C27   1.518876 S    
C9    H75   1.109801 S    
C29   H65   1.109783 S    
C71   H81   1.075240 S    
O3    Ba3   2.853205 S    
C24   C28   1.518696 S    
P2    O6    1.578541 S    
