data_mof_unit_5745.cif
_audit_creation_date              2012-12-10T16:44:45-0500
_audit_creation_method            fapswitch 2.2
_symmetry_space_group_name_H-M    P1
_symmetry_Int_Tables_number       1
_space_group_crystal_system       triclinic
_cell_length_a                    14.979464
_cell_length_b                    8.674968
_cell_length_c                    7.504812
_cell_angle_alpha                 102.587027
_cell_angle_beta                  95.604365
_cell_angle_gamma                 92.816636
_cell_volume                      944.742224788

loop_
_atom_site_label
_atom_site_type_symbol
_atom_type_description
_atom_site_fract_x
_atom_site_fract_y
_atom_site_fract_z
_atom_type_partial_charge
C1    C     C_R   0.498254 0.200165 0.453693 0.876335
C2    C     C_R   0.501748 0.799836 0.546307 0.876298
C3    C     C_R   0.037185 0.213173 0.447798 -0.208214
C4    C     C_R   0.962813 0.786830 0.552160 -0.208219
C5    C     C_2   0.499970 0.032809 0.428121 -0.357891
C6    C     C_2   0.500036 0.967192 0.571879 -0.357893
C7    C     C_R   0.329152 0.500288 0.499968 0.845691
C8    C     C_R   0.670848 0.499713 0.500032 0.845696
C9    C     C_R   0.817837 0.640822 0.518058 -0.358180
C10   C     C_R   0.182161 0.359181 0.481919 -0.358173
C11   C     C_R   0.767273 0.497974 0.501177 -0.135769
C12   C     C_R   0.232726 0.502028 0.498821 -0.135780
C13   C     C_R   0.809170 0.356328 0.498176 0.371305
C14   C     C_R   0.190829 0.643673 0.501819 0.371298
C15   C     C_R   0.901900 0.354538 0.482420 -0.001392
C16   C     C_R   0.098099 0.645463 0.517562 -0.001387
C17   C     C_R   0.953177 0.499356 0.500910 0.024957
C18   C     C_R   0.046822 0.500646 0.499068 0.024956
C19   C     C_R   0.911056 0.643184 0.523704 0.133654
C20   C     C_R   0.088942 0.356820 0.476267 0.133654
C21   C     C_R   0.944290 0.211919 0.449881 -0.220916
C22   C     C_R   0.055707 0.788082 0.550086 -0.220911
Cu1   Cu    Cu3+1 0.510010 0.517380 0.684380 1.017657
Cu2   Cu    Cu3+1 0.489990 0.482620 0.315620 1.017645
H1    H     H_    0.784677 0.750314 0.531601 0.145591
H2    H     H_    0.215320 0.249690 0.468365 0.145574
H3    H     H_    0.905436 0.099350 0.424126 0.169785
H4    H     H_    0.094562 0.900649 0.575835 0.169805
H5    H     H_    0.068586 0.102021 0.422498 0.138704
H6    H     H_    0.931411 0.897984 0.577444 0.138688
H7    H     H_    0.500799 0.963139 0.289275 0.208400
H8    H     H_    0.499209 0.036862 0.710726 0.208405
N1    N     N_2   0.474890 0.456420 0.038520 0.126472
N2    N     N_2   0.525110 0.543580 0.961480 0.126470
O1    O     O_R   0.506510 0.286130 0.619770 -0.538321
O2    O     O_R   0.493490 0.713870 0.380230 -0.538322
O3    O     O_R   0.489600 0.256770 0.308360 -0.596717
O4    O     O_R   0.510400 0.743230 0.691640 -0.596696
O5    O     O_R   0.378710 0.514640 0.655720 -0.569508
O6    O     O_R   0.621290 0.485360 0.344280 -0.569527
O7    O     O_R   0.361800 0.485290 0.344300 -0.628924
O8    O     O_R   0.638200 0.514710 0.655700 -0.628916
O9    O     O_3   0.759911 0.224341 0.522530 -0.595335
C23   C     C_3   0.782121 0.208962 0.705776 0.070122
H9    H     H_    0.785767 0.325054 0.807140 0.142750
H10   H     H_    0.847738 0.155849 0.719569 0.142001
C24   C     C_3   0.711178 0.100858 0.757710 -0.785594
H11   H     H_    0.699197 0.988077 0.652584 0.232379
H12   H     H_    0.733836 0.074238 0.892451 0.200834
H13   H     H_    0.647991 0.161478 0.770244 0.268869
O10   O     O_3   0.240086 0.775660 0.477461 -0.595334
C25   C     C_3   0.217895 0.791005 0.294200 0.070075
H14   H     H_    0.152265 0.844046 0.280350 0.142021
H15   H     H_    0.214294 0.674919 0.192869 0.142785
C26   C     C_3   0.288815 0.899167 0.242294 -0.785580
H16   H     H_    0.352025 0.838606 0.229792 0.268855
H17   H     H_    0.266153 0.925767 0.107542 0.200842
H18   H     H_    0.300763 0.011954 0.347422 0.232379
O11   O     O_3   0.445479 0.315332 0.928656 -0.481407
C27   C     C_3   0.356126 0.282181 0.959623 0.173730
H19   H     H_    0.315165 0.385333 0.954280 0.137244
H20   H     H_    0.353585 0.248878 0.093405 0.166045
C28   C     C_3   0.314277 0.141834 0.811120 -0.827736
H21   H     H_    0.347302 0.032735 0.825782 0.257641
H22   H     H_    0.241425 0.123556 0.823404 0.206596
H23   H     H_    0.322729 0.163878 0.673461 0.249154
O12   O     O_3   0.554516 0.684672 0.071340 -0.481409
C29   C     C_3   0.643874 0.717814 0.040404 0.173725
H24   H     H_    0.646430 0.751089 0.906607 0.166032
H25   H     H_    0.684834 0.614665 0.045793 0.137239
C30   C     C_3   0.685710 0.858188 0.188895 -0.827661
H26   H     H_    0.677220 0.836193 0.326571 0.249158
H27   H     H_    0.758572 0.876436 0.176663 0.206592
H28   H     H_    0.652700 0.967293 0.174148 0.257607

loop_
_geom_bond_atom_site_label_1
_geom_bond_atom_site_label_2
_ccdc_geom_bond_type
N2    O12   S    
C30   H28   S    
C6    H8    S    
C26   H16   S    
C25   C26   S    
C29   C30   S    
C28   H21   S    
C10   C20   A    
Cu1   O4    S    
C4    C22   A    
C2    O4    A    
C15   C21   A    
Cu1   O1    S    
C14   O10   S    
C23   C24   S    
C1    O3    A    
N1    N2    D    
O9    C23   S    
Cu1   N2    S    
C10   H2    S    
C28   H22   S    
Cu2   O3    S    
C21   H3    S    
C28   H23   S    
C9    H1    S    
O11   C27   S    
N1    O11   S    
C22   H4    S    
C25   H14   S    
C27   H20   S    
Cu2   O7    S    
C9    C11   A    
C3    C20   A    
Cu2   O2    S    
Cu1   O8    S    
C10   C12   A    
C2    C6    S    
Cu1   O5    S    
C16   C18   A    
O12   C29   S    
C17   C19   A    
C25   H15   S    
C17   C18   A    
C24   H13   S    
C18   C20   A    
C26   H17   S    
C13   C15   A    
C5    C6    D    
C1    C5    S    
C7    C12   S    
C3    C21   A    
C11   C13   A    
C27   C28   S    
C8    C11   S    
Cu1   Cu2   S    
C2    O2    A    
O10   C25   S    
C24   H11   S    
C12   C14   A    
C13   O9    S    
C30   H26   S    
C23   H9    S    
C1    O1    A    
C24   H12   S    
C26   H18   S    
C30   H27   S    
C3    H5    S    
C29   H25   S    
C7    O5    A    
C29   H24   S    
C16   C22   A    
C8    O6    A    
Cu2   O6    S    
C14   C16   A    
C15   C17   A    
C4    C19   A    
C9    C19   A    
C23   H10   S    
C4    H6    S    
Cu2   N1    S    
C7    O7    A    
C8    O8    A    
C27   H19   S    
C5    H7    S    
