data_mof_unit_49224.cif
_audit_creation_date              2012-12-10T21:02:59-0500
_audit_creation_method            fapswitch 2.2
_symmetry_space_group_name_H-M    P1
_symmetry_Int_Tables_number       1
_space_group_crystal_system       triclinic
_cell_length_a                    15.80696
_cell_length_b                    15.019697
_cell_length_c                    19.186543
_cell_angle_alpha                 90.093713
_cell_angle_beta                  90.134222
_cell_angle_gamma                 89.36104
_cell_volume                      4554.88583917

loop_
_atom_site_label
_atom_site_type_symbol
_atom_type_description
_atom_site_fract_x
_atom_site_fract_y
_atom_site_fract_z
_atom_type_partial_charge
C1    C     C_R   0.338938 0.500548 0.500447 0.895708
C2    C     C_R   0.661188 0.499513 0.499717 0.892839
C3    C     C_1   0.824259 0.497919 0.493980 0.087613
C4    C     C_1   0.176104 0.502756 0.497924 0.069154
C5    C     C_1   0.250829 0.502015 0.499731 -0.205123
C6    C     C_1   0.749462 0.498355 0.496832 -0.197737
C7    C     C_R   0.424155 0.953199 0.483957 0.340545
C8    C     C_R   0.573036 0.046219 0.514976 0.325429
C9    C     C_R   0.572320 0.951911 0.517993 0.314187
C10   C     C_R   0.423045 0.047522 0.486475 0.337798
C11   C     C_R   0.498468 0.904908 0.500846 -0.283273
C12   C     C_R   0.498083 0.094808 0.500743 -0.284660
C13   C     C_1   0.499229 0.807135 0.500389 0.214201
C14   C     C_1   0.498944 0.192786 0.500212 0.196553
C15   C     C_R   0.498220 0.500120 0.365106 0.928719
C16   C     C_R   0.501835 0.500201 0.634916 0.927511
C17   C     C_R   0.434553 0.560499 0.256636 -0.023141
C18   C     C_R   0.448086 0.451847 0.751125 -0.037043
C19   C     C_R   0.563673 0.561014 0.743682 -0.025058
C20   C     C_R   0.553003 0.452169 0.248790 -0.039298
C21   C     C_R   0.443070 0.578230 0.185422 0.432337
C22   C     C_R   0.451552 0.458711 0.824029 0.434399
C23   C     C_R   0.554626 0.578576 0.814950 0.431265
C24   C     C_R   0.549279 0.458977 0.175915 0.435111
C25   C     C_R   0.498251 0.525678 0.145214 -0.211211
C26   C     C_R   0.500741 0.525725 0.854945 -0.209943
C27   C     C_R   0.494108 0.502224 0.289199 -0.225631
C28   C     C_R   0.505613 0.502460 0.710879 -0.226091
C29   C     C_R   0.499718 0.536848 0.930103 0.308716
C30   C     C_R   0.498947 0.536872 0.070093 0.308080
C31   C     C_R   0.954636 0.579076 0.478465 0.358757
C32   C     C_R   0.046210 0.419594 0.500442 0.357426
C33   C     C_R   0.042428 0.581427 0.483914 0.352017
C34   C     C_R   0.958263 0.418865 0.502392 0.349217
C35   C     C_R   0.913238 0.498431 0.490949 -0.253197
C36   C     C_R   0.087322 0.501479 0.494355 -0.252912
N1    N     N_R   0.425076 0.537755 0.034187 -0.140617
N2    N     N_R   0.573555 0.538223 0.966015 -0.140611
N3    N     N_R   0.425438 0.537700 0.965081 -0.141923
N4    N     N_R   0.573195 0.538193 0.035117 -0.142261
N5    N     N_1   0.500000 0.270550 0.500000 -0.111279
N6    N     N_1   0.500000 0.729450 0.500000 -0.111953
O1    O     O_R   0.378020 0.573650 0.500020 -0.615849
O2    O     O_R   0.621980 0.426350 0.499980 -0.611957
O3    O     O_R   0.621980 0.573650 0.499980 -0.609448
O4    O     O_R   0.378020 0.426350 0.500020 -0.616170
O5    O     O_R   0.499990 0.573690 0.398140 -0.626606
O6    O     O_R   0.500010 0.426310 0.601860 -0.621200
O7    O     O_R   0.500010 0.573690 0.601860 -0.625571
O8    O     O_R   0.499990 0.426310 0.398140 -0.620760
Zn1   Zn    Zn3+2 0.500000 0.598370 0.500000 0.947854
Zn2   Zn    Zn3+2 0.500000 0.401630 0.500000 0.949025
C37   C     C_3   0.358819 0.600495 0.295388 -0.383907
C38   C     C_3   0.291865 0.529571 0.309042 -0.356409
C39   C     C_3   0.208273 0.572142 0.332075 -0.853522
H1    H     H_    0.218048 0.614199 0.378958 0.284161
H2    H     H_    0.181486 0.614223 0.289700 0.262436
H3    H     H_    0.162090 0.519361 0.344466 0.246351
H4    H     H_    0.280220 0.490727 0.260627 0.237513
H5    H     H_    0.314742 0.482848 0.349914 0.212406
H6    H     H_    0.377494 0.633270 0.344682 0.204949
H7    H     H_    0.328277 0.654299 0.264532 0.237300
C40   C     C_3   0.381250 0.392528 0.717993 -0.365732
C41   C     C_3   0.307037 0.447654 0.688850 -0.342596
C42   C     C_3   0.239823 0.387703 0.656805 -0.851662
H8    H     H_    0.266402 0.350330 0.611731 0.267675
H9    H     H_    0.216312 0.339708 0.696052 0.258132
H10   H     H_    0.185500 0.428963 0.638527 0.262487
H11   H     H_    0.277759 0.487165 0.731697 0.233715
H12   H     H_    0.329430 0.494745 0.648632 0.211460
H13   H     H_    0.409247 0.348805 0.677438 0.209259
H14   H     H_    0.354735 0.345715 0.756548 0.230038
C43   C     C_3   0.638173 0.601870 0.705003 -0.380827
C44   C     C_3   0.705855 0.531082 0.688495 -0.345525
C45   C     C_3   0.786808 0.573820 0.661886 -0.880974
H15   H     H_    0.773456 0.614018 0.614560 0.272722
H16   H     H_    0.814355 0.617575 0.702565 0.264183
H17   H     H_    0.833945 0.521190 0.648785 0.243631
H18   H     H_    0.721333 0.492611 0.736421 0.235392
H19   H     H_    0.681771 0.483989 0.648662 0.210787
H20   H     H_    0.617939 0.636897 0.656980 0.207843
H21   H     H_    0.668847 0.654052 0.736857 0.236807
C46   C     C_3   0.622196 0.394349 0.281706 -0.364260
C47   C     C_3   0.695800 0.451063 0.307932 -0.343809
C48   C     C_3   0.767097 0.392545 0.337105 -0.865587
H22   H     H_    0.744765 0.355261 0.383383 0.278686
H23   H     H_    0.789752 0.344568 0.296987 0.258958
H24   H     H_    0.821079 0.434751 0.352771 0.249669
H25   H     H_    0.721071 0.491021 0.264070 0.234689
H26   H     H_    0.673746 0.497736 0.349112 0.210521
H27   H     H_    0.596852 0.352255 0.323929 0.210262
H28   H     H_    0.648361 0.346039 0.243531 0.229552
O9    O     O_3   0.392721 0.643022 0.154004 -0.635233
C49   C     C_3   0.440595 0.720960 0.142498 0.108094
H29   H     H_    0.415213 0.753534 0.094771 0.171343
H30   H     H_    0.509045 0.707316 0.132296 0.122882
C50   C     C_3   0.431000 0.785963 0.203755 -0.400039
H31   H     H_    0.362799 0.800668 0.212568 0.222406
H32   H     H_    0.457840 0.755404 0.251762 0.216148
C51   C     C_3   0.476632 0.873108 0.189843 -0.957471
H33   H     H_    0.545313 0.860366 0.181993 0.267075
H34   H     H_    0.468468 0.918404 0.235205 0.257287
H35   H     H_    0.449963 0.906288 0.142850 0.266828
O10   O     O_3   0.401290 0.404424 0.864836 -0.633019
C52   C     C_3   0.451572 0.337834 0.897869 0.097657
H36   H     H_    0.423046 0.324530 0.949646 0.170588
H37   H     H_    0.518158 0.358178 0.908087 0.119526
C53   C     C_3   0.451473 0.251536 0.855245 -0.382980
H38   H     H_    0.385190 0.231355 0.844854 0.229479
H39   H     H_    0.483621 0.262750 0.804621 0.215308
C54   C     C_3   0.497109 0.176226 0.893758 -0.957863
H40   H     H_    0.563363 0.195034 0.905681 0.263894
H41   H     H_    0.498061 0.115469 0.860691 0.269696
H42   H     H_    0.463630 0.160909 0.943046 0.265887
O11   O     O_3   0.603284 0.643533 0.846657 -0.636140
C55   C     C_3   0.553523 0.721338 0.858196 0.108412
H43   H     H_    0.577586 0.753684 0.906320 0.171350
H44   H     H_    0.485239 0.707590 0.867720 0.122779
C56   C     C_3   0.562491 0.786630 0.797381 -0.399475
H45   H     H_    0.630510 0.801079 0.789037 0.221986
H46   H     H_    0.536583 0.756424 0.749056 0.216348
C57   C     C_3   0.515240 0.873906 0.811533 -0.956050
H47   H     H_    0.446720 0.861419 0.818964 0.268148
H48   H     H_    0.522963 0.919390 0.766464 0.257093
H49   H     H_    0.540985 0.906752 0.858839 0.266178
O12   O     O_3   0.601143 0.405150 0.134987 -0.632597
C58   C     C_3   0.552780 0.338299 0.101598 0.098140
H50   H     H_    0.581974 0.325097 0.049919 0.170464
H51   H     H_    0.485751 0.358324 0.091131 0.119682
C59   C     C_3   0.554782 0.252028 0.144033 -0.383695
H52   H     H_    0.621508 0.232045 0.154533 0.228960
H53   H     H_    0.522189 0.263172 0.194606 0.215670
C60   C     C_3   0.511068 0.176584 0.105236 -0.957724
H54   H     H_    0.444411 0.195202 0.093198 0.263930
H55   H     H_    0.511434 0.115836 0.138158 0.269779
H56   H     H_    0.545081 0.161353 0.055990 0.265806
O13   O     O_3   0.084368 0.660323 0.471659 -0.640177
C61   C     C_3   0.108618 0.700265 0.535404 0.114776
H57   H     H_    0.172820 0.728028 0.527914 0.174173
H58   H     H_    0.113569 0.652875 0.580108 0.115090
C62   C     C_3   0.047221 0.776330 0.553533 -0.326392
H59   H     H_    0.037694 0.819770 0.507264 0.234065
H60   H     H_    0.985176 0.748186 0.568376 0.245305
C63   C     C_3   0.080320 0.832521 0.613821 -0.994116
H61   H     H_    0.089512 0.790660 0.660966 0.270399
H62   H     H_    0.033895 0.886322 0.626018 0.269947
H63   H     H_    0.141370 0.863492 0.599529 0.272335
O14   O     O_3   0.916428 0.339179 0.510622 -0.634584
C64   C     C_3   0.897515 0.325111 0.581841 0.133623
H64   H     H_    0.828568 0.312478 0.585753 0.153824
H65   H     H_    0.911013 0.382939 0.616738 0.104707
C65   C     C_3   0.946511 0.243410 0.608246 -0.326814
H66   H     H_    0.939761 0.187528 0.570704 0.225790
H67   H     H_    0.014656 0.259622 0.612485 0.255377
C66   C     C_3   0.914922 0.213895 0.679525 -0.987273
H68   H     H_    0.847429 0.194415 0.676263 0.269822
H69   H     H_    0.921725 0.268609 0.718092 0.271132
H70   H     H_    0.952754 0.155559 0.697541 0.270656
O15   O     O_3   0.909493 0.657451 0.467679 -0.627296
C67   C     C_3   0.882036 0.662433 0.397477 0.112923
H71   H     H_    0.822887 0.703082 0.396580 0.169081
H72   H     H_    0.865677 0.596466 0.374573 0.115261
C68   C     C_3   0.948371 0.708387 0.352318 -0.331380
H73   H     H_    0.965791 0.772967 0.376505 0.235387
H74   H     H_    0.006080 0.665746 0.348846 0.241018
C69   C     C_3   0.915084 0.725170 0.278758 -0.980193
H75   H     H_    0.898092 0.661252 0.253389 0.269499
H76   H     H_    0.964777 0.757681 0.247235 0.272601
H77   H     H_    0.858483 0.769630 0.280309 0.266681
O16   O     O_3   0.091370 0.341269 0.511494 -0.639526
C70   C     C_3   0.125823 0.309577 0.447921 0.110635
H78   H     H_    0.186163 0.274489 0.460386 0.168214
H79   H     H_    0.141950 0.363364 0.410313 0.121482
C71   C     C_3   0.065532 0.243738 0.413436 -0.341871
H80   H     H_    0.047280 0.191986 0.451763 0.237738
H81   H     H_    0.007637 0.279989 0.396072 0.234769
C72   C     C_3   0.106204 0.198834 0.350278 -0.979077
H82   H     H_    0.123278 0.249431 0.310712 0.269407
H83   H     H_    0.060792 0.151689 0.326537 0.270155
H84   H     H_    0.163994 0.161152 0.366011 0.273287
O17   O     O_3   0.348725 0.092636 0.470577 -0.628117
C73   C     C_3   0.309516 0.124085 0.532370 0.119499
H85   H     H_    0.305882 0.197936 0.529570 0.147122
H86   H     H_    0.343988 0.106731 0.581593 0.111435
C74   C     C_3   0.219948 0.087039 0.536510 -0.318617
H87   H     H_    0.185393 0.101901 0.487361 0.230086
H88   H     H_    0.223504 0.013564 0.542823 0.241388
C75   C     C_3   0.170959 0.127201 0.597586 -0.988763
H89   H     H_    0.203036 0.110820 0.647586 0.266743
H90   H     H_    0.106086 0.099608 0.598593 0.269502
H91   H     H_    0.166186 0.200671 0.592098 0.289729
O18   O     O_3   0.646057 0.905541 0.533278 -0.601043
C76   C     C_3   0.650831 0.893181 0.606164 0.145473
H92   H     H_    0.593584 0.858734 0.626007 0.081170
H93   H     H_    0.656692 0.958280 0.633609 0.156283
C77   C     C_3   0.727672 0.834661 0.623763 -0.362190
H94   H     H_    0.727936 0.820458 0.680592 0.161792
H95   H     H_    0.722833 0.770263 0.595507 0.230258
C78   C     C_3   0.810617 0.879478 0.604396 -0.761364
H96   H     H_    0.816167 0.944524 0.631573 0.239441
H97   H     H_    0.814065 0.890197 0.547207 0.282294
H98   H     H_    0.864574 0.836182 0.620391 0.231529
O19   O     O_3   0.647005 0.091176 0.528836 -0.622357
C79   C     C_3   0.694097 0.095993 0.466550 0.107935
H99   H     H_    0.655927 0.127281 0.423937 0.119679
H100  H     H_    0.715277 0.028224 0.449914 0.173055
C80   C     C_3   0.771947 0.152932 0.479214 -0.309151
H101  H     H_    0.751528 0.221511 0.493826 0.236133
H102  H     H_    0.809484 0.124140 0.522900 0.226703
C81   C     C_3   0.827251 0.157101 0.414304 -0.969057
H103  H     H_    0.850899 0.089533 0.400214 0.259229
H104  H     H_    0.882227 0.200168 0.424808 0.296910
H105  H     H_    0.790895 0.185462 0.369821 0.262466
O20   O     O_3   0.350145 0.908101 0.470324 -0.600351
C82   C     C_3   0.344658 0.891739 0.397914 0.138479
H106  H     H_    0.403616 0.859486 0.377680 0.077885
H107  H     H_    0.333624 0.955131 0.369071 0.160167
C83   C     C_3   0.271713 0.828230 0.383263 -0.358299
H108  H     H_    0.271403 0.810846 0.326939 0.164148
H109  H     H_    0.281556 0.765799 0.413406 0.226118
C84   C     C_3   0.186101 0.869469 0.402356 -0.784041
H110  H     H_    0.174962 0.931818 0.372491 0.240499
H111  H     H_    0.183443 0.884462 0.458993 0.273933
H112  H     H_    0.135067 0.821877 0.389575 0.248549

loop_
_geom_bond_atom_site_label_1
_geom_bond_atom_site_label_2
_ccdc_geom_bond_type
C16   C28   S    
C7    C10   A    
C24   O12   S    
C39   H1    S    
C4    C36   S    
O9    C49   S    
C66   H69   S    
C43   C44   S    
C19   C23   A    
C68   H73   S    
C15   O5    A    
C82   H106  S    
C3    C6    T    
C16   O6    A    
C50   H31   S    
C74   H87   S    
C55   C56   S    
C38   H5    S    
C48   H22   S    
C55   H43   S    
C7    C11   A    
C46   H28   S    
C70   H79   S    
O12   C58   S    
C75   H91   S    
C1    C5    S    
C32   C36   A    
C68   H74   S    
C84   H112  S    
C64   H65   S    
O15   C67   S    
C69   H77   S    
C1    O4    A    
C23   C26   A    
O16   C70   S    
O3    Zn1   S    
O11   C55   S    
C78   H98   S    
O4    Zn2   S    
C82   C83   S    
C33   C36   A    
C22   O10   S    
C53   H38   S    
C75   H90   S    
C34   C35   A    
C15   O8    A    
C73   H85   S    
C13   N6    T    
C21   C25   A    
C71   H80   S    
C34   O14   S    
C47   C48   S    
C1    O1    A    
C7    O20   S    
C20   C24   A    
C2    O2    A    
C8    C9    A    
C42   H9    S    
C29   N2    A    
C80   C81   S    
O8    Zn2   S    
C79   C80   S    
C41   H12   S    
C70   H78   S    
C9    O18   S    
N5    Zn2   S    
C76   H92   S    
N6    Zn1   S    
O2    Zn2   S    
C56   H46   S    
C78   H96   S    
C44   H19   S    
C66   H70   S    
C69   H76   S    
C63   H63   S    
C2    C6    S    
C62   H59   S    
C47   H26   S    
C77   C78   S    
C43   H20   S    
O10   C52   S    
C50   H32   S    
C73   H86   S    
C38   H4    S    
C48   H23   S    
C2    O3    A    
C70   C71   S    
C44   C45   S    
C80   H101  S    
C17   C27   A    
C67   C68   S    
C19   C43   S    
C68   C69   S    
C18   C28   A    
C24   C25   A    
C77   H95   S    
C62   C63   S    
C33   O13   S    
O20   C82   S    
C77   H94   S    
C74   C75   S    
O5    Zn1   S    
C49   C50   S    
O7    Zn1   S    
O17   C73   S    
C51   H35   S    
C17   C21   A    
C30   N1    A    
C75   H89   S    
C73   C74   S    
C67   H72   S    
C59   H53   S    
C45   H15   S    
C58   H51   S    
C84   H110  S    
C60   H56   S    
C52   H37   S    
C37   H7    S    
C15   C27   S    
C46   C47   S    
C65   C66   S    
C3    C35   S    
C8    C12   A    
C72   H84   S    
C29   N3    A    
C76   H93   S    
C30   N4    A    
C54   H41   S    
C39   H2    S    
C52   C53   S    
C16   O7    A    
C49   H30   S    
C19   C28   A    
C45   H16   S    
C71   C72   S    
C78   H97   S    
C40   H13   S    
C10   C12   A    
C55   H44   S    
C14   N5    T    
C63   H62   S    
C79   H100  S    
C42   H8    S    
C81   H104  S    
C44   H18   S    
C9    C11   A    
C69   H75   S    
C31   C35   A    
C64   C65   S    
C59   C60   S    
C47   H25   S    
C42   H10   S    
C37   H6    S    
C58   H50   S    
C17   C37   S    
C43   H21   S    
C50   C51   S    
C46   H27   S    
C83   C84   S    
C80   H102  S    
C51   H34   S    
C52   H36   S    
C48   H24   S    
C25   C30   S    
C32   O16   S    
C38   C39   S    
C31   C33   A    
C54   H40   S    
C18   C22   A    
C8    O19   S    
C65   H67   S    
C63   H61   S    
C61   C62   S    
C20   C46   S    
C56   H45   S    
C53   H39   S    
C37   C38   S    
C61   H58   S    
C20   C27   A    
C81   H105  S    
C41   H11   S    
O13   C61   S    
C53   C54   S    
C83   H109  S    
O18   C76   S    
C57   H49   S    
C62   H60   S    
C59   H52   S    
C12   C14   S    
C58   C59   S    
C84   H111  S    
C64   H64   S    
C67   H71   S    
C76   C77   S    
N2    N4    A    
C11   C13   S    
O1    Zn1   S    
C83   H108  S    
C60   H54   S    
C21   O9    S    
C41   C42   S    
C40   H14   S    
C56   C57   S    
C72   H83   S    
C54   H42   S    
O14   C64   S    
C49   H29   S    
C18   C40   S    
C45   H17   S    
C71   H81   S    
C82   H107  S    
C74   H88   S    
C61   H57   S    
C72   H82   S    
C23   O11   S    
C40   C41   S    
C4    C5    T    
C79   H99   S    
C26   C29   S    
N1    N3    A    
C81   H103  S    
C22   C26   A    
C39   H3    S    
C66   H68   S    
C60   H55   S    
C10   O17   S    
C51   H33   S    
C65   H66   S    
O19   C79   S    
C57   H47   S    
O6    Zn2   S    
C57   H48   S    
C31   O15   S    
C32   C34   A    
