data_mof_unit_63605.cif
_audit_creation_date              2012-12-10T16:58:30-0500
_audit_creation_method            fapswitch 2.2
_symmetry_space_group_name_H-M    P1
_symmetry_Int_Tables_number       1
_space_group_crystal_system       triclinic
_cell_length_a                    13.123832
_cell_length_b                    13.140865
_cell_length_c                    15.559937
_cell_angle_alpha                 108.392728
_cell_angle_beta                  74.540861
_cell_angle_gamma                 90.794527
_cell_volume                      2446.98916698

loop_
_atom_site_label
_atom_site_type_symbol
_atom_type_description
_atom_site_fract_x
_atom_site_fract_y
_atom_site_fract_z
_atom_type_partial_charge
Br1   Br    Br    0.847216 0.560215 0.650568 -0.452089
Br2   Br    Br    0.980811 0.383070 0.323992 -0.456082
Br3   Br    Br    0.664204 0.098805 0.510440 -0.404822
Br4   Br    Br    0.586195 0.124102 0.931318 -0.476322
C1    C     C_R   0.218091 0.541608 0.536204 0.509182
C2    C     C_R   0.533449 0.493068 0.112154 -0.122102
C3    C     C_R   0.575470 0.306852 0.091697 -0.072194
C4    C     C_R   0.780800 0.458034 0.464854 0.579833
C5    C     C_R   0.444449 0.583499 0.854556 0.030104
C6    C     C_2   0.894352 0.444918 0.451994 0.178262
C7    C     C_2   0.935940 0.485733 0.525047 0.134068
C8    C     C_2   0.102652 0.553961 0.555836 -0.077811
C9    C     C_2   0.051376 0.476227 0.509415 -0.090400
C10   C     C_2   0.536260 0.894327 0.536310 -0.049623
C11   C     C_2   0.522075 0.931186 0.469070 -0.121908
C12   C     C_R   0.432041 0.726159 0.001202 -0.114035
C13   C     C_2   0.468116 0.101520 0.455655 -0.074212
C14   C     C_2   0.537586 0.044027 0.476210 0.140024
C15   C     C_R   0.473131 0.217667 0.470472 0.529782
C16   C     C_R   0.528483 0.781155 0.527047 0.511674
C17   C     C_R   0.544347 0.441975 0.247835 0.504327
C18   C     C_R   0.455289 0.554898 0.752795 0.503031
C19   C     C_R   0.562961 0.275320 0.001355 0.165857
C20   C     C_R   0.558975 0.414801 0.147273 0.011552
C21   C     C_R   0.424042 0.692295 0.909518 -0.098574
C22   C     C_R   0.463116 0.652876 0.038938 -0.098459
C23   C     C_R   0.482489 0.541702 0.986605 0.045742
C24   C     C_R   0.466902 0.506627 0.895052 0.034935
C25   C     C_R   0.516069 0.464155 0.022194 0.012440
C26   C     C_R   0.529939 0.352887 0.966948 0.058112
C27   C     C_R   0.505909 0.320673 0.880593 -0.085963
C28   C     C_R   0.472584 0.395645 0.846521 -0.103533
H1    H     H_    0.593947 0.246368 0.120314 0.155894
H2    H     H_    0.550931 0.948482 0.600080 0.155797
H3    H     H_    0.510460 0.236785 0.838920 0.180653
H4    H     H_    0.470328 0.686392 0.109487 0.111781
H5    H     H_    0.403608 0.062252 0.429928 0.087625
H6    H     H_    0.521008 0.574578 0.159471 0.110554
H7    H     H_    0.405894 0.752279 0.880308 0.158839
H8    H     H_    0.417346 0.810659 0.042482 0.147174
H9    H     H_    0.448948 0.364466 0.782283 0.149332
H10   H     H_    0.095972 0.404717 0.455926 0.187139
H11   H     H_    0.059773 0.626575 0.608923 0.166312
H12   H     H_    0.497684 0.878566 0.409684 0.114349
O1    O     O_3   0.500000 0.500000 0.500000 -0.466961
O2    O     O_R   0.468210 0.402800 0.293550 -0.532248
O3    O     O_R   0.410220 0.615430 0.721590 -0.541713
O4    O     O_R   0.602670 0.506150 0.290200 -0.527563
O5    O     O_R   0.518910 0.475630 0.694660 -0.525024
O6    O     O_R   0.526920 0.270960 0.524520 -0.491542
O7    O     O_R   0.454490 0.752910 0.584610 -0.533168
O8    O     O_R   0.270990 0.462040 0.468400 -0.531585
O9    O     O_R   0.747590 0.514090 0.422470 -0.510888
O10   O     O_R   0.265290 0.607490 0.589320 -0.530675
O11   O     O_R   0.716130 0.416380 0.519810 -0.488009
O12   O     O_R   0.423930 0.265320 0.430520 -0.540028
O13   O     O_R   0.594650 0.710810 0.460350 -0.515903
Zn1   Zn    Zn3+2 0.564370 0.417180 0.558730 1.023355
Zn2   Zn    Zn3+2 0.417220 0.409120 0.424430 0.966858
Zn3   Zn    Zn3+2 0.609330 0.556780 0.419650 0.999323
Zn4   Zn    Zn3+2 0.409080 0.616930 0.597190 0.969526

loop_
_geom_bond_atom_site_label_1
_geom_bond_atom_site_label_2
_ccdc_geom_bond_type
C4    O9    A    
C10   H2    S    
C11   C14   S    
C28   H9    S    
C2    H6    S    
C1    O8    A    
O3    Zn4   S    
C25   C26   A    
C12   C21   A    
O10   Zn4   S    
O2    Zn2   S    
C23   C25   A    
C7    C9    S    
C27   C28   A    
O7    Zn4   S    
O12   Zn2   S    
C17   O4    A    
C2    C20   A    
C18   O3    A    
C5    C21   A    
O1    Zn3   S    
C13   H5    S    
C21   H7    S    
C1    C8    S    
C3    H1    S    
C15   O6    A    
C22   C23   A    
O4    Zn3   S    
C12   H8    S    
C18   O5    A    
C3    C19   A    
C4    O11   A    
C22   H4    S    
C9    H10   S    
O8    Zn2   S    
O9    Zn3   S    
C15   O12   A    
C11   H12   S    
C13   C14   D    
C16   O7    A    
C12   C22   A    
C26   C27   A    
O1    Zn1   S    
C27   H3    S    
C5    C18   S    
C17   C20   S    
C6    C7    D    
C3    C20   A    
O6    Zn1   S    
C19   C26   A    
C10   C16   S    
C1    O10   A    
C24   C28   A    
C2    C25   A    
C8    C9    D    
Br3   C14   S    
C4    C6    S    
C17   O2    A    
O11   Zn1   S    
O1    Zn4   S    
C23   C24   A    
Br4   C19   S    
C10   C11   D    
O1    Zn2   S    
O13   Zn3   S    
Br1   C7    S    
C13   C15   S    
C16   O13   A    
C8    H11   S    
O5    Zn1   S    
C5    C24   A    
Br2   C6    S    
