data_mof_unit_16385.cif
_audit_creation_date              2013-03-05T15:42:21-0500
_audit_creation_method            fapswitch 2.2
_symmetry_space_group_name_H-M    P1
_symmetry_Int_Tables_number       1
_space_group_crystal_system       triclinic
_cell_length_a                    16.862243
_cell_length_b                    16.746931
_cell_length_c                    19.479742
_cell_angle_alpha                 117.895783
_cell_angle_beta                  62.238117
_cell_angle_gamma                 100.938369
_cell_volume                      4299.27812019

loop_
_atom_site_label
_atom_site_type_symbol
_atom_site_description
_atom_site_fract_x
_atom_site_fract_y
_atom_site_fract_z
_atom_type_partial_charge
C1    C     C_R   0.041938 0.759269 0.009889 -0.134186
H1    H     H_    0.084364 0.807454 0.036329 0.091892
N1    N     N_R   0.036080 0.671900 0.995420 -0.039160
C2    C     C_R   0.764940 0.417315 0.164651 0.315357
N2    N     N_R   0.834710 0.454650 0.119760 -0.087996
C3    C     C_R   0.805166 0.561098 0.961576 -0.120311
H2    H     H_    0.816731 0.602471 0.929471 0.092761
N3    N     N_R   0.867430 0.509300 0.948100 -0.045952
C4    C     C_R   0.953116 0.672948 0.248863 -0.127940
H3    H     H_    0.911182 0.651426 0.298611 0.099973
N4    N     N_R   0.003360 0.617250 0.167070 -0.040351
C5    C     C_R   0.738646 0.486082 0.041459 -0.076270
H4    H     H_    0.690651 0.461335 0.086324 0.156791
N5    N     N_R   0.825450 0.461270 0.995400 -0.034589
C6    C     C_R   0.023539 0.753033 0.173901 -0.121187
H5    H     H_    0.049360 0.808078 0.156826 0.088399
N6    N     N_R   0.045340 0.665280 0.119770 -0.041128
C7    C     C_R   0.844682 0.485784 0.238855 -0.209935
H6    H     H_    0.878331 0.498999 0.278456 0.116717
N7    N     N_R   0.883740 0.497640 0.167070 -0.060274
C8    C     C_R   0.964164 0.690091 0.933307 -0.132748
H7    H     H_    0.934235 0.674674 0.890407 0.086297
N8    N     N_R   0.987050 0.628910 0.948110 -0.040267
C9    C     C_R   0.992365 0.774269 0.976383 0.060378
C10   C     C_R   0.769851 0.434218 0.239943 -0.051981
C11   C     C_R   0.723885 0.551064 0.023343 0.023002
C12   C     C_R   0.962024 0.759638 0.254960 0.068240
C13   C     C_R   0.249985 0.570017 0.012815 -0.138478
H8    H     H_    0.287818 0.621340 0.993169 0.090316
N9    N     N_R   0.174550 0.538730 0.004600 -0.040729
C14   C     C_R   0.920658 0.261744 0.835374 -0.111856
H9    H     H_    0.873139 0.219907 0.863262 0.136880
N10   N     N_R   0.954660 0.334720 0.880230 -0.039305
C15   C     C_R   0.174153 0.451969 0.751071 -0.131287
H10   H     H_    0.155435 0.409071 0.699319 0.098486
N11   N     N_R   0.116260 0.502360 0.832930 -0.043134
C16   C     C_R   0.052136 0.307623 0.050814 -0.126473
H11   H     H_    0.092954 0.321255 0.084202 0.105813
N12   N     N_R   0.012950 0.371090 0.051890 -0.048696
C17   C     C_R   0.974049 0.238611 0.974158 -0.082480
H12   H     H_    0.942195 0.187977 0.936086 0.111809
N13   N     N_R   0.963920 0.328100 0.004580 -0.039397
C18   C     C_R   0.251813 0.522995 0.829029 -0.122244
H13   H     H_    0.303453 0.546211 0.851067 0.097044
N14   N     N_R   0.165290 0.545350 0.880240 -0.042772
C19   C     C_R   0.183106 0.490812 0.088296 -0.129461
H14   H     H_    0.159756 0.469050 0.138567 0.086027
N15   N     N_R   0.132570 0.490700 0.051900 -0.039573
C20   C     C_R   0.987990 0.340452 0.759394 -0.139768
H15   H     H_    0.002707 0.371673 0.717416 0.091504
N16   N     N_R   0.996640 0.382750 0.832930 -0.045406
Ni1   Ni    Ni4+2 0.104370 0.604370 0.000010 0.213455
Ni2   Ni    Ni4+2 0.895630 0.395630 0.999990 0.291507
Ni3   Ni    Ni4+2 0.991920 0.505780 0.891500 0.213115
Ni4   Ni    Ni4+2 0.008080 0.494220 0.108500 0.203283
C21   C     C_R   0.257154 0.541794 0.066092 0.070754
C22   C     C_R   0.938988 0.264106 0.759181 0.056768
C23   C     C_R   0.260326 0.462664 0.747048 0.073987
C24   C     C_R   0.029950 0.222415 0.001572 0.051516
C25   C     C_R   0.921449 0.221282 0.626235 -0.243280
C26   C     C_R   0.901112 0.206467 0.697816 0.092875
C27   C     C_R   0.850707 0.131940 0.706599 -0.158292
C28   C     C_R   0.831122 0.065683 0.639445 -0.045688
C29   C     C_R   0.865464 0.074545 0.561914 0.003006
C30   C     C_R   0.905831 0.154864 0.557269 0.169685
C31   C     C_R   0.788170 0.985678 0.643733 0.341963
C32   C     C_R   0.793647 0.910990 0.567352 -0.316215
C33   C     C_R   0.838383 0.916331 0.488547 0.081831
C34   C     C_R   0.869025 0.999675 0.486414 0.036700
C35   C     C_R   0.912440 0.005580 0.407141 0.154912
C36   C     C_R   0.942118 0.088896 0.405440 -0.205296
C37   C     C_R   0.938821 0.163445 0.480413 -0.209171
C38   C     C_R   0.860521 0.838107 0.411371 -0.208894
C39   C     C_R   0.916047 0.842253 0.332599 0.108657
C40   C     C_R   0.934277 0.926608 0.330448 -0.255201
H16   H     H_    0.956984 0.280116 0.619734 0.114187
H17   H     H_    0.834205 0.120951 0.761985 0.159923
H18   H     H_    0.766255 0.847518 0.568927 0.180196
H19   H     H_    0.840999 0.773907 0.414002 0.119233
H20   H     H_    0.972324 0.931251 0.269918 0.114299
H21   H     H_    0.973845 0.094715 0.345205 0.125885
H22   H     H_    0.968144 0.225620 0.476780 0.129542
C41   C     C_R   0.347934 0.358168 0.591249 -0.252067
C42   C     C_R   0.345799 0.421774 0.671323 0.113398
C43   C     C_R   0.426766 0.453696 0.677399 -0.243810
C44   C     C_R   0.506849 0.435597 0.603554 0.133107
C45   C     C_R   0.507228 0.380124 0.522408 0.032510
C46   C     C_R   0.428770 0.336876 0.516290 0.139639
C47   C     C_R   0.584444 0.479686 0.609489 -0.189192
C48   C     C_R   0.659000 0.477118 0.535489 -0.197487
C49   C     C_R   0.656905 0.428828 0.455139 0.132464
C50   C     C_R   0.583416 0.375320 0.447727 0.032581
C51   C     C_R   0.582774 0.324033 0.366523 0.106793
C52   C     C_R   0.508419 0.272271 0.360140 -0.166495
C53   C     C_R   0.431180 0.279694 0.434839 -0.204869
C54   C     C_R   0.722100 0.441227 0.384141 -0.256999
C55   C     C_R   0.715918 0.399427 0.305229 0.116020
C56   C     C_R   0.652445 0.332423 0.294604 -0.203021
H23   H     H_    0.286508 0.329892 0.586176 0.121706
H24   H     H_    0.427775 0.499893 0.738419 0.119196
H25   H     H_    0.585144 0.521541 0.671686 0.136544
H26   H     H_    0.715974 0.517138 0.541692 0.135609
H27   H     H_    0.772458 0.490165 0.393751 0.124022
H28   H     H_    0.653055 0.290249 0.232458 0.182527
H29   H     H_    0.507453 0.231571 0.297940 0.150602
H30   H     H_    0.372047 0.244543 0.428980 0.135198
C57   C     C_R   0.637435 0.595874 0.059200 0.128320
C58   C     C_R   0.323927 0.570420 0.100688 0.125202
C59   C     C_R   0.402686 0.541860 0.164302 -0.197437
C60   C     C_R   0.327047 0.532711 0.150458 -0.170447
C61   C     C_R   0.391666 0.627680 0.075388 -0.271029
C62   C     C_R   0.469787 0.632140 0.083944 0.183001
C63   C     C_R   0.476721 0.585331 0.125270 0.177331
C64   C     C_R   0.560263 0.571832 0.116434 -0.259629
C65   C     C_R   0.629053 0.652800 0.027942 -0.156795
C66   C     C_R   0.544898 0.672304 0.041735 -0.216159
H31   H     H_    0.564795 0.532753 0.145696 0.142011
H32   H     H_    0.687139 0.676816 0.987587 0.120818
H33   H     H_    0.406717 0.506965 0.197527 0.145416
H34   H     H_    0.540015 0.710411 0.011579 0.136225
H35   H     H_    0.274512 0.490792 0.173542 0.119420
H36   H     H_    0.389162 0.660678 0.040209 0.119205
C67   C     C_R   0.834745 0.181332 0.142333 0.130199
C68   C     C_R   0.964953 0.862963 0.992659 0.125268
C69   C     C_R   0.891774 0.948932 0.964486 -0.205769
C70   C     C_R   0.930816 0.868221 0.941290 -0.170986
C71   C     C_R   0.962346 0.941333 0.066308 -0.268026
C72   C     C_R   0.922210 0.022375 0.090660 0.192359
C73   C     C_R   0.885416 0.025766 0.039915 0.160354
C74   C     C_R   0.841416 0.105482 0.066542 -0.260591
C75   C     C_R   0.871946 0.178532 0.191951 -0.168343
C76   C     C_R   0.915553 0.099413 0.166441 -0.220149
H37   H     H_    0.812061 0.109266 0.029094 0.161764
H38   H     H_    0.866423 0.237744 0.250501 0.128808
H39   H     H_    0.864579 0.950615 0.924543 0.148042
H40   H     H_    0.943167 0.098137 0.206251 0.124932
H41   H     H_    0.932429 0.809415 0.883969 0.122452
H42   H     H_    0.987176 0.938312 0.107339 0.115900
N17   N     N_R   0.741883 0.978115 0.723802 0.234158
O1    O     O_R   0.690658 0.044869 0.793562 -0.384039
O2    O     O_R   0.739672 0.900445 0.724639 -0.405402
N18   N     N_R   0.711899 0.350769 0.127197 0.200220
O3    O     O_R   0.625089 0.362840 0.165163 -0.442737
O4    O     O_R   0.750097 0.291234 0.047225 -0.439433

loop_
_geom_bond_atom_site_label_1
_geom_bond_atom_site_label_2
_geom_bond_distance
_ccdc_geom_bond_type
N15   Ni4   1.858943 S    
C45   C46   1.411214 A    
C70   H41   1.081801 S    
C51   C52   1.403852 A    
C38   C39   1.404512 A    
C27   H17   1.077968 S    
N1    N8    1.383559 A    
C61   C62   1.387140 A    
C75   H38   1.081954 S    
C72   C73   1.415098 A    
C55   C56   1.407386 A    
C13   C21   1.382999 A    
C52   H29   1.083650 S    
N2    N7    1.383559 A    
C43   C44   1.386488 A    
C32   H18   1.084053 S    
C59   H33   1.083982 S    
C16   H11   1.080432 S    
N9    N15   1.366319 A    
C13   H8    1.079089 S    
C1    H1    1.078655 S    
C60   H35   1.080773 S    
C2    N18   1.429345 S    
N1    Ni1   1.815969 S    
C65   C66   1.389673 A    
C9    C68   1.484530 S    
C20   C22   1.383750 A    
C15   H10   1.079202 S    
C21   C58   1.466788 S    
C18   C23   1.386866 A    
C49   C54   1.389271 A    
N12   Ni4   1.824000 S    
C31   N17   1.439173 S    
C41   C42   1.405889 A    
C33   C34   1.406203 A    
C20   N16   1.334527 A    
C14   N10   1.336928 A    
C35   C36   1.400433 A    
C71   H42   1.083658 S    
C12   C39   1.469479 S    
C4    H3    1.077384 S    
C7    N7    1.334466 A    
C59   C63   1.398344 A    
C47   H25   1.083927 S    
C69   H39   1.083649 S    
C17   N13   1.340958 A    
C41   C46   1.400106 A    
C28   C31   1.416619 A    
C17   C24   1.395990 A    
C41   H23   1.082713 S    
C45   C50   1.400677 A    
C61   H36   1.080268 S    
C26   C27   1.403989 A    
C7    C10   1.384593 A    
N7    Ni4   1.859267 S    
C72   C76   1.405248 A    
N6    Ni1   1.862526 S    
C62   C63   1.410382 A    
C2    C10   1.397802 A    
N12   N13   1.383559 A    
N10   Ni2   1.862526 S    
C19   N15   1.337842 A    
C39   C40   1.403736 A    
C32   C33   1.399160 A    
C42   C43   1.406472 A    
N3    Ni3   1.858941 S    
C49   C50   1.408408 A    
C44   C45   1.407292 A    
C7    H6    1.079973 S    
C3    N3    1.341447 A    
N14   Ni1   1.862865 S    
C33   C38   1.391224 A    
C25   H16   1.080692 S    
C66   H34   1.083923 S    
C5    C11   1.383759 A    
C25   C26   1.403364 A    
C1    N1    1.347309 A    
C18   H13   1.075773 S    
C57   C64   1.402910 A    
C27   C28   1.398804 A    
C53   H30   1.083592 S    
C23   C42   1.473379 S    
C18   N14   1.328853 A    
C6    C12   1.391305 A    
C14   H9    1.079652 S    
C76   H40   1.083663 S    
C65   H32   1.080795 S    
C54   C55   1.406610 A    
C38   H19   1.080959 S    
N11   N14   1.383559 A    
C29   C34   1.399836 A    
C4    N4    1.333481 A    
C57   C65   1.405002 A    
C16   C24   1.395431 A    
C68   C71   1.408526 A    
C10   C55   1.482797 S    
C17   H12   1.080440 S    
C5    N5    1.333651 A    
C25   C30   1.389798 A    
C52   C53   1.398499 A    
C8    N8    1.346113 A    
C67   C74   1.396621 A    
C69   C70   1.397722 A    
N18   O4    1.300516 A    
C8    C9    1.388527 A    
C74   H37   1.082919 S    
C75   C76   1.398737 A    
C62   C66   1.398807 A    
N4    Ni4   1.825152 S    
C4    C12   1.384516 A    
N8    Ni3   1.824000 S    
C68   C70   1.406664 A    
C63   C64   1.387004 A    
C40   H20   1.081709 S    
N2    Ni2   1.862865 S    
C6    N6    1.341862 A    
N9    Ni1   1.816873 S    
C19   H14   1.080317 S    
N4    N6    1.366321 A    
N3    N5    1.366322 A    
C67   C75   1.395837 A    
C2    N2    1.346766 A    
C44   C47   1.401742 A    
C11   C57   1.467021 S    
N17   O1    1.301513 A    
C22   C26   1.471775 S    
C3    H2    1.072283 S    
N10   N16   1.366321 A    
C30   C37   1.402368 A    
C58   C61   1.403291 A    
N16   Ni3   1.825151 S    
C29   C30   1.410615 A    
C14   C22   1.386693 A    
C13   N9    1.332798 A    
C73   C74   1.403995 A    
C36   C37   1.392571 A    
N13   Ni2   1.815968 S    
C43   H24   1.079386 S    
C48   H26   1.083856 S    
C59   C60   1.389441 A    
N17   O2    1.301706 A    
C48   C49   1.400490 A    
C3    C11   1.385611 A    
C56   H28   1.074962 S    
C6    H5    1.072233 S    
C50   C51   1.407523 A    
C58   C60   1.405171 A    
C31   C32   1.400434 A    
C15   N11   1.345796 A    
C34   C35   1.411584 A    
C46   C53   1.403232 A    
C64   H31   1.080589 S    
N11   Ni3   1.859265 S    
C28   C29   1.414454 A    
C69   C73   1.400933 A    
N5    Ni2   1.816875 S    
C5    H4    1.069226 S    
C1    C9    1.388972 A    
C16   N12   1.341466 A    
C20   H15   1.079540 S    
C54   H27   1.080832 S    
C19   C21   1.383099 A    
C35   C40   1.392878 A    
C15   C23   1.399263 A    
N18   O3    1.301697 A    
C47   C48   1.390868 A    
C8    H7    1.077627 S    
C51   C56   1.396755 A    
C37   H22   1.083802 S    
C71   C72   1.404338 A    
C36   H21   1.083916 S    
