data_mof_unit_37398.cif
_audit_creation_date              2013-03-05T16:10:15-0500
_audit_creation_method            fapswitch 2.2
_symmetry_space_group_name_H-M    P1
_symmetry_Int_Tables_number       1
_space_group_crystal_system       triclinic
_cell_length_a                    9.981345
_cell_length_b                    10.702058
_cell_length_c                    12.982388
_cell_angle_alpha                 90.137084
_cell_angle_beta                  70.511332
_cell_angle_gamma                 90.210236
_cell_volume                      1307.32827377

loop_
_atom_site_label
_atom_site_type_symbol
_atom_site_description
_atom_site_fract_x
_atom_site_fract_y
_atom_site_fract_z
_atom_type_partial_charge
O1    O     O_R   0.385370 0.683250 0.500010 -0.571761
O2    O     O_R   0.614700 0.683220 0.500010 -0.600302
C1    C     C_R   0.501157 0.739583 0.498220 0.925885
O3    O     O_R   0.328400 0.499990 0.653620 -0.598223
O4    O     O_R   0.557730 0.499960 0.653620 -0.591820
C2    C     C_R   0.420830 0.500610 0.704296 0.895615
Zn1   Zn    Zn3+2 0.346870 0.500020 0.500000 1.083500
Zn2   Zn    Zn3+2 0.653130 0.499980 0.500000 1.059255
O5    O     O_R   0.385300 0.316780 0.499990 -0.598906
O6    O     O_R   0.614630 0.316750 0.499990 -0.578305
O7    O     O_R   0.442270 0.500040 0.346380 -0.535825
O8    O     O_R   0.671600 0.500010 0.346380 -0.582904
C3    C     C_R   0.500077 0.260520 0.501507 0.898078
C4    C     C_R   0.578548 0.498664 0.295589 0.902905
C5    C     C_R   0.637816 0.280225 0.070229 -0.113129
H1    H     H_    0.723657 0.294246 0.200295 0.198842
H2    H     H_    0.677390 0.186104 0.052072 0.190193
C6    C     C_R   0.619987 0.464655 0.180885 -0.052808
C7    C     C_R   0.314205 0.649670 0.847895 -0.278612
C8    C     C_R   0.282531 0.694697 0.953396 0.284877
C9    C     C_R   0.334673 0.630250 0.026779 0.201801
C10   C     C_R   0.413072 0.516634 0.992193 -0.057362
C11   C     C_R   0.404298 0.457011 0.897467 -0.045085
C12   C     C_R   0.502041 0.460373 0.044519 0.113079
C13   C     C_R   0.547917 0.334595 0.019050 0.055780
C14   C     C_R   0.497800 0.264628 0.947115 0.152373
C15   C     C_R   0.427296 0.326738 0.884606 0.108908
C16   C     C_R   0.550454 0.526288 0.119045 -0.113350
C17   C     C_R   0.671067 0.343987 0.152047 -0.134951
C18   C     C_R   0.369881 0.530308 0.820245 -0.097767
H3    H     H_    0.526516 0.623581 0.136887 0.194809
H4    H     H_    0.294248 0.708099 0.787111 0.203715
C19   C     C_R   0.582631 0.934478 0.549674 -0.201600
H5    H     H_    0.641345 0.883811 0.591873 0.209959
C20   C     C_R   0.585585 0.062343 0.552135 0.245233
C21   C     C_R   0.503796 0.128110 0.500569 -0.142029
C22   C     C_R   0.430250 0.066403 0.441305 -0.221013
H6    H     H_    0.380122 0.118340 0.393136 0.239147
C23   C     C_R   0.430892 0.937976 0.436512 0.308997
C24   C     C_R   0.504425 0.872403 0.494211 -0.182562
C25   C     C_R   0.957668 0.424786 0.430379 0.272414
C26   C     C_R   0.099116 0.420498 0.433840 0.292667
N1    N     N_R   0.142790 0.500030 0.500030 -0.181841
C27   C     C_R   0.042732 0.578624 0.567327 0.165222
C28   C     C_R   0.898538 0.575461 0.570317 0.155374
N2    N     N_R   0.857180 0.499940 0.500010 -0.185277
I1    I     I_    0.718136 0.141784 0.635088 -0.169763
N3    N     N_R   0.366604 0.876165 0.366798 0.240664
O9    O     O_R   0.435723 0.788416 0.301289 -0.367894
O10   O     O_R   0.249075 0.918570 0.357638 -0.243656
N4    N     N_R   0.922111 0.352873 0.350262 0.247626
O11   O     O_R   0.960443 0.393494 0.250231 -0.330214
O12   O     O_R   0.883181 0.236855 0.370121 -0.313764
N5    N     N_R   0.191843 0.325145 0.373115 0.235979
O13   O     O_R   0.276608 0.349132 0.274880 -0.323752
O14   O     O_R   0.157048 0.209516 0.399735 -0.326815
I2    I     I_    0.100094 0.708360 0.669992 -0.154670
I3    I     I_    0.748453 0.689027 0.689864 -0.230332
I4    I     I_    0.517380 0.064573 0.940511 -0.117963
N6    N     N_R   0.298139 0.676107 0.136400 0.222068
O15   O     O_R   0.241638 0.601793 0.218692 -0.309259
O16   O     O_R   0.306398 0.795137 0.153817 -0.242558
N7    N     N_R   0.196444 0.804959 0.984863 0.255172
O17   O     O_R   0.209154 0.894887 0.914863 -0.322913
O18   O     O_R   0.087587 0.805205 0.074649 -0.268355
I5    I     I_    0.316332 0.220847 0.797803 -0.172796

loop_
_geom_bond_atom_site_label_1
_geom_bond_atom_site_label_2
_geom_bond_distance
_ccdc_geom_bond_type
O4    Zn2   1.901851 S    
N6    O15   1.300268 A    
N1    C27   1.374285 A    
N7    O18   1.301625 A    
N5    O14   1.300077 A    
C5    H2    1.079758 S    
C22   H6    1.078354 S    
Zn1   N1    2.036863 S    
C25   C26   1.428358 A    
C4    C6    1.452093 S    
C7    C8    1.384604 A    
C27   I2    2.127573 S    
Zn2   O8    1.940648 S    
C20   I1    2.138013 S    
C8    C9    1.410961 A    
C8    N7    1.438258 S    
N3    O10   1.301347 A    
C19   H5    1.074981 S    
H1    C17   1.083644 S    
N4    O11   1.300689 A    
C22   C23   1.375628 A    
C15   I5    2.144380 S    
O1    Zn1   1.996860 S    
C28   N2    1.379207 A    
C26   N5    1.426788 S    
Zn1   O7    1.901852 S    
C14   C15   1.408084 A    
C25   N2    1.366583 A    
C3    C21   1.417603 S    
O3    Zn1   1.940647 S    
C7    H4    1.077765 S    
O6    C3    1.284461 A    
N6    O16   1.300362 A    
N3    O9    1.300230 A    
C2    C18   1.453848 S    
O8    C4    1.306197 A    
C1    C24   1.422386 S    
C5    C17   1.390739 A    
O2    C1    1.292836 A    
C11   C15   1.414204 A    
C10   C11   1.412387 A    
O4    C2    1.303943 A    
O7    C4    1.298803 A    
C10   C12   1.421623 A    
C28   I3    2.140804 S    
C5    C13   1.410214 A    
C19   C24   1.392144 A    
C26   N1    1.377180 A    
N4    O12   1.300095 A    
C6    C17   1.393911 A    
N7    O17   1.301747 A    
C11   C18   1.404968 A    
C6    C16   1.392473 A    
C12   C13   1.425586 A    
C9    N6    1.432082 S    
Zn2   O6    1.996862 S    
O3    C2    1.299591 A    
C14   I4    2.149522 S    
C23   C24   1.401936 A    
Zn1   O5    1.999580 S    
O5    C3    1.302136 A    
N5    O13   1.299299 A    
C21   C22   1.392059 A    
Zn2   N2    2.036738 S    
C19   C20   1.369147 A    
C13   C14   1.410206 A    
C9    C10   1.436090 A    
C7    C18   1.392617 A    
C25   N4    1.428495 S    
C16   H3    1.076410 S    
O2    Zn2   1.999580 S    
C27   C28   1.427046 A    
C12   C16   1.404794 A    
C23   N3    1.431772 S    
O1    C1    1.294878 A    
C20   C21   1.407521 A    
