data_mof_unit_37610.cif
_audit_creation_date              2012-10-26T20:03:16-0400
_audit_creation_method            fapswitch 2.2
_symmetry_space_group_name_H-M    P1
_symmetry_Int_Tables_number       1
_space_group_crystal_system       triclinic
_cell_length_a                    10.603732
_cell_length_b                    12.329622
_cell_length_c                    13.188452
_cell_angle_alpha                 116.65813
_cell_angle_beta                  77.753996
_cell_angle_gamma                 101.051757
_cell_volume                      1496.67912687

loop_
_atom_site_label
_atom_site_type_symbol
_atom_type_description
_atom_site_fract_x
_atom_site_fract_y
_atom_site_fract_z
_atom_type_partial_charge
C1    C     C_R   0.511820 0.854872 0.286603 0.525963
C2    C     C_R   0.501362 0.566312 0.009502 0.031029
C3    C     C_R   0.461561 0.650417 0.123419 0.021959
C4    C     C_R   0.740346 0.999086 0.499533 0.547996
C5    C     C_R   0.458230 0.440064 0.976010 0.028849
C6    C     C_R   0.367106 0.401496 0.052462 0.052219
C7    C     C_R   0.317825 0.487522 0.159017 -0.138479
C8    C     C_R   0.362716 0.610240 0.193382 -0.124286
C9    C     C_R   0.503508 0.350558 0.868818 -0.134897
C10   C     C_R   0.366043 0.190812 0.911237 -0.137744
C11   C     C_R   0.520675 0.772904 0.163579 -0.003505
C12   C     C_3   0.018158 0.013194 0.602355 -0.123110
C13   C     C_R   0.707810 0.345291 0.328433 -0.129842
C14   C     C_R   0.324235 0.759440 0.645021 0.053221
C15   C     C_R   0.286458 0.662859 0.676300 -0.158520
C16   C     C_R   0.480860 0.145091 0.713349 0.544410
C17   C     C_R   0.352887 0.559542 0.621431 -0.130969
C18   C     C_R   0.458829 0.551518 0.534016 -0.014921
C19   C     C_R   0.494079 0.653085 0.505248 0.158508
C20   C     C_R   0.530920 0.447222 0.474496 -0.042192
C21   C     C_R   0.636546 0.446662 0.387496 0.077518
C22   C     C_R   0.669926 0.547169 0.360674 0.051812
C23   C     C_3   0.933411 0.905821 0.520981 -0.117399
C24   C     C_R   0.599780 0.647650 0.419078 -0.093660
C25   C     C_R   0.503016 0.342474 0.497387 0.036837
C26   C     C_R   0.675242 0.245873 0.355265 0.024959
C27   C     C_R   0.259698 0.000437 0.499831 0.547903
C28   C     C_3   0.981836 0.985388 0.396146 -0.127525
C29   C     C_3   0.040496 0.893364 0.417758 -0.128423
C30   C     C_3   0.122901 0.000726 0.499157 0.047059
C31   C     C_3   0.066587 0.092774 0.477503 -0.111839
C32   C     C_3   0.959593 0.105234 0.580750 -0.120630
C33   C     C_3   0.877146 0.997977 0.499402 0.044608
C34   C     C_R   0.323603 0.277197 0.020230 -0.130461
C35   C     C_R   0.453774 0.228098 0.834439 -0.001579
C36   C     C_R   0.600895 0.814400 0.085935 -0.135028
C37   C     C_R   0.628143 0.735092 0.971338 -0.141961
C38   C     C_R   0.581422 0.612126 0.933381 -0.121557
Cu1   Cu    Cu3+1 0.529830 0.098270 0.475420 0.921532
Cu2   Cu    Cu3+1 0.470170 0.901730 0.524580 0.907755
H1    H     H_    0.076930 0.806826 0.351074 0.104289
H2    H     H_    0.272232 0.839316 0.688085 0.121645
H3    H     H_    0.963563 0.973811 0.311838 0.103827
H4    H     H_    0.319234 0.487732 0.649285 0.099086
H5    H     H_    0.205397 0.668075 0.743314 0.099837
H6    H     H_    0.632545 0.719877 0.393513 0.186063
H7    H     H_    0.123764 0.169372 0.459765 0.119591
H8    H     H_    0.923183 0.191746 0.647469 0.111263
H9    H     H_    0.036385 0.024729 0.686666 0.104654
H10   H     H_    0.876131 0.829132 0.538526 0.121606
H11   H     H_    0.326222 0.096093 0.885470 0.119123
H12   H     H_    0.576634 0.373448 0.809031 0.117111
H13   H     H_    0.244003 0.459893 0.216198 0.109363
H14   H     H_    0.253808 0.247317 0.078133 0.104491
H15   H     H_    0.740925 0.559885 0.210998 0.237742
H16   H     H_    0.843276 0.623734 0.310221 0.223425
H17   H     H_    0.645556 0.907972 0.114324 0.125369
H18   H     H_    0.607480 0.556243 0.843388 0.104412
H19   H     H_    0.689344 0.768387 0.912011 0.116681
H20   H     H_    0.316020 0.673083 0.274376 0.148559
H21   H     H_    0.729961 0.167837 0.309892 0.118000
H22   H     H_    0.788621 0.342242 0.261721 0.139010
H23   H     H_    0.424769 0.335025 0.561718 0.121427
N1    N     N_R   0.575030 0.246270 0.438190 -0.232623
N2    N     N_R   0.425760 0.754330 0.561190 -0.234234
N3    N     N_3   0.776400 0.548198 0.273242 -0.657830
O1    O     O_R   0.537510 0.972500 0.318130 -0.501845
O2    O     O_R   0.487140 0.806530 0.359650 -0.529625
O3    O     O_R   0.708330 0.082950 0.479220 -0.501151
O4    O     O_R   0.657960 0.916980 0.520740 -0.523768
O5    O     O_R   0.512860 0.193470 0.640350 -0.508450
O6    O     O_R   0.462490 0.027500 0.681870 -0.503452
O7    O     O_R   0.342040 0.083020 0.479260 -0.506119
O8    O     O_R   0.291670 0.917050 0.520780 -0.513090

loop_
_geom_bond_atom_site_label_1
_geom_bond_atom_site_label_2
_ccdc_geom_bond_type
C16   O6    A    
C4    O4    A    
C12   H9    S    
C7    C8    A    
Cu1   N1    S    
C9    H12   S    
C12   C23   S    
C28   C29   S    
C29   C30   S    
Cu2   O4    S    
C23   C29   S    
C36   C37   A    
C26   H21   S    
C16   C35   S    
C30   C31   S    
C20   C25   A    
C1    O2    A    
C18   C19   A    
C25   H23   S    
C26   N1    A    
C22   N3    S    
C38   H18   S    
C13   H22   S    
C23   C33   S    
C1    C11   S    
C19   N2    A    
C10   C35   A    
C27   O8    A    
C14   H2    S    
C29   H1    S    
C31   H7    S    
C21   C22   A    
C12   C32   S    
C27   C30   S    
C32   H8    S    
C16   O5    A    
C10   H11   S    
C4    O3    A    
C3    C8    A    
Cu1   Cu2   S    
C23   H10   S    
C6    C34   A    
C25   N1    A    
C5    C9    A    
C37   C38   A    
C2    C38   A    
C31   C32   S    
C17   C18   A    
Cu1   O3    S    
C13   C21   A    
C10   C34   A    
C37   H19   S    
C28   C33   S    
C34   H14   S    
Cu2   N2    S    
C22   C24   A    
C13   C26   A    
C2    C5    A    
C7    H13   S    
H15   N3    S    
C36   H17   S    
C15   C17   A    
C4    C33   S    
C11   C36   A    
Cu2   O6    S    
C12   C30   S    
Cu1   O1    S    
C28   C31   S    
C6    C7    A    
C28   H3    S    
C24   H6    S    
C32   C33   S    
C2    C3    A    
C17   H4    S    
C8    H20   S    
C5    C6    A    
H16   N3    S    
C1    O1    A    
C14   N2    A    
Cu2   O8    S    
C19   C24   A    
C18   C20   A    
Cu1   O7    S    
C3    C11   A    
C20   C21   A    
Cu2   O2    S    
C9    C35   A    
Cu1   O5    S    
C14   C15   A    
C27   O7    A    
C15   H5    S    
