data_mof_unit_57235.cif
_audit_creation_date              2012-12-11T17:02:21-0500
_audit_creation_method            fapswitch 2.2
_symmetry_space_group_name_H-M    P1
_symmetry_Int_Tables_number       1
_space_group_crystal_system       triclinic
_cell_length_a                    21.656835
_cell_length_b                    7.065104
_cell_length_c                    14.839302
_cell_angle_alpha                 89.988127
_cell_angle_beta                  106.119105
_cell_angle_gamma                 89.996882
_cell_volume                      2181.2666296

loop_
_atom_site_label
_atom_site_type_symbol
_atom_type_description
_atom_site_fract_x
_atom_site_fract_y
_atom_site_fract_z
_atom_type_partial_charge
O1    O     O_R   0.585850 0.505770 0.002130 -0.536709
O2    O     O_R   0.414150 0.005770 0.997870 -0.536716
O3    O     O_R   0.467530 0.173560 0.861970 -0.536747
O4    O     O_R   0.532470 0.673560 0.138030 -0.536765
C1    C     C_R   0.455447 0.344397 0.825300 0.689352
C2    C     C_R   0.544555 0.844348 0.174704 0.689414
O5    O     O_R   0.588690 0.175900 0.993250 -0.544704
O6    O     O_R   0.411310 0.675900 0.006750 -0.544705
O7    O     O_R   0.536170 0.007950 0.130090 -0.538586
O8    O     O_R   0.463830 0.507950 0.869910 -0.538598
C3    C     C_R   0.615142 0.344661 0.998070 0.689022
C4    C     C_R   0.384855 0.844665 0.001915 0.689035
O9    O     O_3   0.482630 0.339970 0.044740 -0.373629
O10   O     O_3   0.517370 0.839970 0.955260 -0.373630
V1    V     V_3+5 0.503220 0.064200 0.991700 1.407969
V2    V     V_3+5 0.496780 0.564200 0.008300 1.407924
C5    C     C_R   0.277029 0.007358 0.957747 0.116024
C6    C     C_R   0.722946 0.507384 0.042152 0.115328
C7    C     C_R   0.315556 0.852627 0.997509 -0.121145
C8    C     C_R   0.684436 0.352628 0.002453 -0.120961
C9    C     C_R   0.284946 0.700509 0.029042 -0.183303
C10   C     C_R   0.715062 0.200518 0.970956 -0.183217
H1    H     H_    0.312239 0.576804 0.059286 0.136089
H2    H     H_    0.687779 0.076816 0.940740 0.136112
C11   C     C_R   0.219729 0.711875 0.027907 -0.175511
C12   C     C_R   0.780279 0.211892 0.972093 -0.175457
C13   C     C_R   0.183079 0.875973 0.995403 -0.115147
C14   C     C_R   0.816915 0.375991 0.004564 -0.115081
C15   C     C_R   0.212631 0.018898 0.956773 0.117734
C16   C     C_R   0.787345 0.518927 0.043138 0.117594
C17   C     C_3   0.217330 0.226077 0.976306 -0.408665
C18   C     C_3   0.782623 0.726093 0.023529 -0.408574
C19   C     C_3   0.287512 0.213547 0.976808 -0.390842
C20   C     C_3   0.712440 0.713557 0.023014 -0.390794
H3    H     H_    0.210729 0.260543 0.046138 0.159922
H4    H     H_    0.789228 0.760527 0.953688 0.159848
H5    H     H_    0.187530 0.310327 0.916711 0.187918
H6    H     H_    0.812408 0.810372 0.083099 0.188000
H7    H     H_    0.321596 0.241468 0.046767 0.163376
H8    H     H_    0.678359 0.741436 0.953039 0.163369
H9    H     H_    0.298104 0.289744 0.917232 0.188400
H10   H     H_    0.701831 0.789779 0.082558 0.188545
C21   C     C_R   0.927172 0.881460 0.723447 -0.032369
C22   C     C_R   0.072798 0.381189 0.276558 -0.032458
C23   C     C_R   0.572637 0.850691 0.276164 -0.053749
C24   C     C_R   0.427352 0.350955 0.723850 -0.053716
C25   C     C_R   0.939149 0.830860 0.568501 -0.139838
C26   C     C_R   0.060862 0.328187 0.431362 -0.139781
C27   C     C_R   0.966534 0.857335 0.664227 -0.171853
C28   C     C_R   0.033458 0.355294 0.335679 -0.171791
C29   C     C_R   0.860308 0.881892 0.686868 -0.190733
C30   C     C_R   0.139656 0.382623 0.313194 -0.190797
C31   C     C_R   0.831046 0.852283 0.589928 0.081473
C32   C     C_R   0.168944 0.352167 0.410070 0.081447
C33   C     C_R   0.872024 0.826045 0.531165 0.062381
C34   C     C_R   0.127991 0.324313 0.468738 0.062359
C35   C     C_R   0.762872 0.846485 0.549791 0.004439
C36   C     C_R   0.237123 0.346997 0.450218 0.004398
C37   C     C_R   0.736840 0.822220 0.450570 -0.059297
C38   C     C_R   0.263181 0.321902 0.549392 -0.059312
C39   C     C_R   0.779919 0.774764 0.396693 0.430173
C40   C     C_R   0.220155 0.273115 0.603162 0.430206
C41   C     C_R   0.846106 0.786492 0.436338 -0.272992
C42   C     C_R   0.153952 0.284078 0.563492 -0.272949
C43   C     C_R   0.719868 0.858791 0.605978 -0.159736
C44   C     C_R   0.280113 0.360676 0.394062 -0.159757
C45   C     C_R   0.653860 0.851949 0.566969 -0.204425
C46   C     C_R   0.346127 0.354435 0.433061 -0.204444
C47   C     C_R   0.627726 0.843815 0.470237 0.139232
C48   C     C_R   0.372269 0.345531 0.529774 0.139219
C49   C     C_R   0.668669 0.837591 0.410335 0.090084
C50   C     C_R   0.331334 0.337853 0.589662 0.090068
C51   C     C_R   0.560607 0.844300 0.432808 -0.169476
C52   C     C_R   0.439388 0.346746 0.567202 -0.169453
C53   C     C_R   0.533248 0.843351 0.336150 -0.173297
C54   C     C_R   0.466751 0.345131 0.663855 -0.173378
C55   C     C_R   0.639482 0.853664 0.312729 -0.195781
C56   C     C_R   0.360503 0.353171 0.687297 -0.195821
H11   H     H_    0.877590 0.755741 0.392696 0.145297
H12   H     H_    0.122503 0.252233 0.607052 0.145233
H13   H     H_    0.667122 0.874199 0.263323 0.161957
H14   H     H_    0.332846 0.372715 0.736750 0.161959
H15   H     H_    0.481426 0.839990 0.308117 0.104891
H16   H     H_    0.518579 0.342479 0.691881 0.104900
H17   H     H_    0.622874 0.857838 0.613115 0.118872
H18   H     H_    0.377105 0.361411 0.386930 0.118860
H19   H     H_    0.970539 0.809956 0.523765 0.116408
H20   H     H_    0.029492 0.305969 0.476018 0.116431
H21   H     H_    0.018361 0.855783 0.692379 0.103158
H22   H     H_    0.981639 0.352851 0.307477 0.103159
H23   H     H_    0.832948 0.903863 0.736488 0.084206
H24   H     H_    0.166995 0.405889 0.263653 0.084282
H25   H     H_    0.735472 0.868656 0.681252 0.116249
H26   H     H_    0.264500 0.371165 0.318808 0.116251
H27   H     H_    0.529260 0.844929 0.478459 0.118522
H28   H     H_    0.470731 0.348546 0.521550 0.118533
O11   O     O_R   0.036080 0.231270 0.130120 -0.537255
O12   O     O_R   0.963920 0.731270 0.869880 -0.537259
O13   O     O_R   0.911300 0.558970 0.006750 -0.540829
O14   O     O_R   0.088700 0.058970 0.993250 -0.540819
C57   C     C_R   0.884799 0.389873 0.001737 0.690975
C58   C     C_R   0.115199 0.889864 0.998251 0.691025
O15   O     O_R   0.032450 0.561140 0.138040 -0.540201
O16   O     O_R   0.967550 0.061140 0.861960 -0.540206
O17   O     O_R   0.085870 0.728910 0.002130 -0.540954
O18   O     O_R   0.914130 0.228910 0.997870 -0.540957
C59   C     C_R   0.044729 0.392301 0.175108 0.687937
C60   C     C_R   0.955260 0.892353 0.824893 0.687942
O19   O     O_3   0.017320 0.394650 0.955270 -0.372397
O20   O     O_3   0.982680 0.894650 0.044730 -0.372409
V3    V     V_3+5 0.996780 0.670490 0.008300 1.414668
V4    V     V_3+5 0.003220 0.170490 0.991700 1.414711
O21   O     O_3   0.759063 0.705225 0.306296 -0.566918
C61   C     C_3   0.749949 0.508084 0.310873 -0.259865
H29   H     H_    0.713239 0.473679 0.348075 0.145934
H30   H     H_    0.796024 0.434721 0.344902 0.143360
H31   H     H_    0.732069 0.452442 0.238442 0.161836
O22   O     O_3   0.241094 0.203155 0.693486 -0.566924
C62   C     C_3   0.250415 0.006152 0.688721 -0.259820
H32   H     H_    0.287162 0.972436 0.651486 0.145999
H33   H     H_    0.204419 0.932505 0.654620 0.143347
H34   H     H_    0.268350 0.950214 0.761108 0.161782
H35   H     H_    0.198926 0.595876 0.057037 0.129163
H36   H     H_    0.801093 0.095895 0.942994 0.129196

loop_
_geom_bond_atom_site_label_1
_geom_bond_atom_site_label_2
_ccdc_geom_bond_type
C44   C46   A    
C2    C23   S    
C13   C15   A    
C5    C15   A    
C31   C33   A    
C20   H10   S    
O16   C60   A    
O2    C4    A    
C54   H16   S    
C2    O7    A    
C24   C54   A    
C61   H29   S    
O12   C60   A    
C25   C27   A    
C41   H11   S    
O5    C3    A    
C36   C44   A    
C19   H7    S    
C5    C19   S    
C20   H8    S    
C18   H4    S    
O15   V3    S    
C7    C9    A    
O19   V3    S    
C35   C37   A    
C38   C50   A    
C36   C38   A    
C46   H18   S    
C58   O17   A    
C38   C40   A    
C39   C41   A    
O22   C62   S    
C50   C56   A    
C29   H23   S    
O20   V3    S    
C14   C57   S    
C28   H22   S    
C43   C45   A    
C33   C41   A    
C48   C52   A    
C40   C42   A    
C17   C19   S    
C47   C51   A    
C6    C16   A    
C18   H6    S    
C6    C8    A    
C44   H26   S    
C22   C30   A    
C26   C28   A    
O17   V3    S    
C47   C49   A    
O6    V2    S    
C42   H12   S    
C12   H36   S    
O14   C58   A    
C30   C32   A    
C62   H33   S    
C32   C34   A    
C3    C8    S    
C45   H17   S    
C37   C39   A    
C53   H15   S    
C52   H28   S    
O4    C2    A    
O19   V4    S    
C27   H21   S    
O16   V4    S    
O11   V4    S    
C31   C35   A    
C21   C27   A    
O18   V4    S    
C48   C50   A    
C17   H5    S    
C29   C31   A    
C18   C20   S    
O4    V2    S    
C24   C56   A    
C6    C20   S    
C56   H14   S    
C55   H13   S    
O6    C4    A    
O13   V3    S    
C26   H20   S    
O1    V2    S    
O2    V1    S    
C11   H35   S    
C52   C54   A    
O13   C57   A    
C8    C10   A    
O14   V4    S    
C9    H1    S    
C39   O21   S    
C17   H3    S    
C30   H24   S    
C51   C53   A    
C5    C7    A    
C49   C55   A    
O3    V1    S    
C25   C33   A    
O21   C61   S    
C32   C36   A    
C22   C59   S    
C22   C28   A    
C57   O18   A    
C26   C34   A    
C9    C11   A    
O12   V3    S    
C35   C43   A    
O3    C1    A    
C61   H30   S    
C62   H32   S    
C11   C13   A    
C1    C24   S    
C13   C58   S    
C12   C14   A    
C23   C53   A    
O15   C59   A    
C19   H9    S    
C14   C16   A    
O7    V1    S    
C1    O8    A    
C15   C17   S    
O8    V2    S    
C16   C18   S    
C21   C29   A    
C34   C42   A    
C4    C7    S    
O5    V1    S    
C43   H25   S    
C62   H34   S    
C10   H2    S    
C21   C60   S    
O20   V4    S    
C40   O22   S    
C61   H31   S    
O11   C59   A    
C46   C48   A    
C10   C12   A    
O9    V2    S    
C51   H27   S    
O10   V1    S    
C23   C55   A    
O1    C3    A    
C45   C47   A    
C37   C49   A    
C25   H19   S    
