data_mof_unit_11646.cif
_audit_creation_date              2012-12-11T17:15:55-0500
_audit_creation_method            fapswitch 2.2
_symmetry_space_group_name_H-M    P1
_symmetry_Int_Tables_number       1
_space_group_crystal_system       triclinic
_cell_length_a                    14.5811
_cell_length_b                    7.306031
_cell_length_c                    13.604775
_cell_angle_alpha                 90.000108
_cell_angle_beta                  100.025619
_cell_angle_gamma                 89.99991
_cell_volume                      1427.18520939

loop_
_atom_site_label
_atom_site_type_symbol
_atom_type_description
_atom_site_fract_x
_atom_site_fract_y
_atom_site_fract_z
_atom_type_partial_charge
O1    O     O_R   0.398210 0.494340 0.401550 -0.530725
O2    O     O_R   0.601790 0.994340 0.598450 -0.530725
O3    O     O_R   0.586310 0.821730 0.403360 -0.545596
O4    O     O_R   0.413690 0.321730 0.596640 -0.545596
C1    C     C_R   0.618130 0.655217 0.385600 0.667070
C2    C     C_R   0.381870 0.155217 0.614400 0.667070
O5    O     O_R   0.397970 0.823900 0.389580 -0.534681
O6    O     O_R   0.602030 0.323900 0.610420 -0.534681
O7    O     O_R   0.412100 0.996500 0.584560 -0.535709
O8    O     O_R   0.587900 0.496500 0.415440 -0.535709
C3    C     C_R   0.365109 0.655314 0.363439 0.715412
C4    C     C_R   0.634891 0.155314 0.636561 0.715413
O9    O     O_3   0.504860 0.661550 0.563990 -0.375047
O10   O     O_3   0.495140 0.161550 0.436010 -0.375046
V1    V     V_3+5 0.499100 0.935510 0.488130 1.392361
V2    V     V_3+5 0.500900 0.435510 0.511870 1.392360
C5    C     C_1   0.716482 0.144821 0.716135 -0.179357
C6    C     C_1   0.283518 0.644821 0.283865 -0.179358
C7    C     C_1   0.784847 0.134317 0.782243 -0.185019
C8    C     C_1   0.215153 0.634317 0.217757 -0.185018
C9    C     C_3   0.269603 0.279539 0.848761 0.006033
C10   C     C_3   0.730395 0.779539 0.151238 0.006028
H1    H     H_    0.304659 0.227619 0.922921 0.143005
H2    H     H_    0.695339 0.727616 0.077079 0.143006
C11   C     C_3   0.342598 0.275141 0.776439 -0.027862
C12   C     C_3   0.657401 0.775142 0.223562 -0.027865
H3    H     H_    0.349867 0.411820 0.743861 0.159366
H4    H     H_    0.650135 0.911820 0.256141 0.159365
H5    H     H_    0.095233 0.306954 0.708320 0.141552
H6    H     H_    0.904765 0.806959 0.291679 0.141553
C13   C     C_3   0.138240 0.181550 0.706991 -0.318175
C14   C     C_3   0.861759 0.681551 0.293008 -0.318172
C15   C     C_3   0.238213 0.948801 0.808712 -0.381016
C16   C     C_3   0.761786 0.448801 0.191286 -0.381015
C17   C     C_3   0.188915 0.137021 0.814047 0.001543
C18   C     C_3   0.811084 0.637022 0.185951 0.001542
H7    H     H_    0.184949 0.839130 0.794821 0.174886
H8    H     H_    0.815051 0.339131 0.205177 0.174887
H9    H     H_    0.281525 0.917648 0.882453 0.124016
H10   H     H_    0.718475 0.417647 0.117545 0.124013
C19   C     C_3   0.310345 0.145059 0.685291 0.077622
C20   C     C_3   0.689655 0.645058 0.314709 0.077620
C21   C     C_3   0.208189 0.198085 0.632237 -0.003249
C22   C     C_3   0.791811 0.698081 0.367763 -0.003247
C23   C     C_3   0.301745 0.947014 0.727141 0.016760
C24   C     C_3   0.698253 0.447013 0.272856 0.016757
H11   H     H_    0.372248 0.899469 0.762619 0.145973
H12   H     H_    0.627750 0.399472 0.237377 0.145973
H13   H     H_    0.087602 0.070254 0.681087 0.120431
H14   H     H_    0.912400 0.570258 0.318911 0.120429
H15   H     H_    0.185637 0.100361 0.570249 0.147117
H16   H     H_    0.814363 0.600350 0.429748 0.147118
O11   O     O_R   0.912140 0.786650 0.084610 -0.532738
O12   O     O_R   0.087860 0.286650 0.915390 -0.532737
O13   O     O_R   0.102040 0.454810 0.110430 -0.534152
O14   O     O_R   0.897960 0.954810 0.889570 -0.534153
C25   C     C_R   0.133747 0.623734 0.137921 0.717652
C26   C     C_R   0.866253 0.123734 0.862079 0.717654
O15   O     O_R   0.913690 0.457060 0.096650 -0.545111
O16   O     O_R   0.086310 0.957060 0.903350 -0.545112
O17   O     O_R   0.898200 0.284560 0.901540 -0.530741
O18   O     O_R   0.101800 0.784560 0.098460 -0.530741
C27   C     C_R   0.882796 0.625768 0.115285 0.662392
C28   C     C_R   0.117203 0.125768 0.884714 0.662390
O19   O     O_3   0.995160 0.617270 0.936040 -0.376260
O20   O     O_3   0.004840 0.117270 0.063960 -0.376260
V3    V     V_3+5 0.000900 0.343280 0.011870 1.383744
V4    V     V_3+5 0.999100 0.843280 0.988130 1.383742
C29   C     C_3   0.239390 0.481071 0.864694 -0.348248
C30   C     C_3   0.267219 0.541074 0.973273 -0.746992
H17   H     H_    0.243512 0.439467 0.023817 0.230913
H18   H     H_    0.344212 0.553022 0.992808 0.209308
H19   H     H_    0.235997 0.676303 0.984190 0.213435
H20   H     H_    0.273649 0.579484 0.821483 0.173086
H21   H     H_    0.164388 0.505265 0.837750 0.203231
C31   C     C_3   0.760606 0.981071 0.135302 -0.348248
C32   C     C_3   0.732776 0.041067 0.026722 -0.746998
H22   H     H_    0.756489 0.939461 0.976180 0.230916
H23   H     H_    0.655784 0.053001 0.007185 0.209310
H24   H     H_    0.763993 0.176301 0.015803 0.213432
H25   H     H_    0.726345 0.079486 0.178510 0.173089
H26   H     H_    0.835608 0.005268 0.162246 0.203231
C33   C     C_3   0.265365 0.805901 0.644736 -0.800979
H27   H     H_    0.305836 0.678378 0.661142 0.208703
H28   H     H_    0.189400 0.783178 0.638848 0.197154
H29   H     H_    0.273067 0.845997 0.568294 0.217024
C34   C     C_3   0.734633 0.305897 0.355260 -0.800978
H30   H     H_    0.694163 0.178373 0.338849 0.208701
H31   H     H_    0.810598 0.283175 0.361149 0.197150
H32   H     H_    0.726929 0.345987 0.431702 0.217026
C35   C     C_3   0.441056 0.232684 0.835237 -0.863647
H33   H     H_    0.462602 0.343298 0.890490 0.220447
H34   H     H_    0.442607 0.101853 0.876889 0.206063
H35   H     H_    0.493603 0.226600 0.785382 0.216092
C36   C     C_3   0.558944 0.732688 0.164765 -0.863622
H36   H     H_    0.506396 0.726596 0.214622 0.216089
H37   H     H_    0.537396 0.843311 0.109516 0.220443
H38   H     H_    0.557393 0.601858 0.123109 0.206057
C37   C     C_3   0.196768 0.384367 0.581033 -0.875031
H39   H     H_    0.191912 0.487361 0.638348 0.228634
H40   H     H_    0.253143 0.416344 0.538895 0.235363
H41   H     H_    0.129860 0.388576 0.527518 0.213949
C38   C     C_3   0.803233 0.884358 0.418973 -0.875029
H42   H     H_    0.808093 0.987360 0.361664 0.228633
H43   H     H_    0.746857 0.916334 0.461109 0.235364
H44   H     H_    0.870139 0.888560 0.472492 0.213946

loop_
_geom_bond_atom_site_label_1
_geom_bond_atom_site_label_2
_ccdc_geom_bond_type
C34   H30   S    
C3    C6    S    
C15   C23   S    
C36   H36   S    
O1    C3    A    
C10   C31   S    
C1    C20   S    
O2    C4    A    
C2    O7    A    
C36   H38   S    
C25   O18   A    
C32   H22   S    
O5    C3    A    
C15   H9    S    
C13   C21   S    
C16   H10   S    
C14   C18   S    
C10   H2    S    
C21   C37   S    
C20   C24   S    
C23   H11   S    
O11   V4    S    
O15   V3    S    
C37   H39   S    
C2    C19   S    
C4    C5    S    
C17   C28   S    
C16   C24   S    
C18   C27   S    
C16   C18   S    
C22   H16   S    
C26   O17   A    
O5    V1    S    
O20   V3    S    
O6    V2    S    
C19   C21   S    
C23   C33   S    
C20   C22   S    
C13   H13   S    
C22   C38   S    
C32   H23   S    
C7    C26   S    
C24   H12   S    
C11   C35   S    
C31   C32   S    
O4    C2    A    
C31   H26   S    
C35   H33   S    
C5    C7    T    
O12   V3    S    
O14   V4    S    
C15   H7    S    
C9    C29   S    
O4    V2    S    
C35   H34   S    
O17   V3    S    
C33   H27   S    
O6    C4    A    
O19   V4    S    
C37   H41   S    
C30   H19   S    
C14   C22   S    
C29   H20   S    
C38   H43   S    
O1    V2    S    
O2    V1    S    
C14   H14   S    
C30   H17   S    
C37   H40   S    
O13   C25   A    
C13   C17   S    
C34   H32   S    
C11   C19   S    
O3    V1    S    
C12   C20   S    
C24   C34   S    
C32   H24   S    
C12   C36   S    
C9    C11   S    
C33   H28   S    
C16   H8    S    
O15   C27   A    
O3    C1    A    
C31   H25   S    
O13   V3    S    
C36   H37   S    
C9    C17   S    
C11   H3    S    
C10   C18   S    
C12   H4    S    
O18   V4    S    
O16   C28   A    
C9    H1    S    
O7    V1    S    
C1    O8    A    
H5    C13   S    
O8    V2    S    
C35   H35   S    
H6    C14   S    
O11   C27   A    
C21   H15   S    
O12   C28   A    
C15   C17   S    
O14   C26   A    
C29   H21   S    
C38   H44   S    
C6    C8    T    
C29   C30   S    
C33   H29   S    
O16   V4    S    
C10   C12   S    
O9    V2    S    
C38   H42   S    
C34   H31   S    
C19   C23   S    
O10   V1    S    
C30   H18   S    
C8    C25   S    
