data_mof_unit_9789.cif
_audit_creation_date              2012-12-11T20:41:12-0500
_audit_creation_method            fapswitch 2.2
_symmetry_space_group_name_H-M    P1
_symmetry_Int_Tables_number       1
_space_group_crystal_system       triclinic
_cell_length_a                    8.240517
_cell_length_b                    18.860416
_cell_length_c                    26.886317
_cell_angle_alpha                 96.446696
_cell_angle_beta                  92.840907
_cell_angle_gamma                 86.153945
_cell_volume                      4139.16126968

loop_
_atom_site_label
_atom_site_type_symbol
_atom_type_description
_atom_site_fract_x
_atom_site_fract_y
_atom_site_fract_z
_atom_type_partial_charge
Ba1   Ba    Ba6+2 0.852670 0.466460 0.522850 1.691816
Ba2   Ba    Ba6+2 0.337150 0.533490 0.477140 1.693081
C1    C     C_3   0.575651 0.223206 0.665027 -0.339935
C2    C     C_3   0.579069 0.294089 0.643217 0.355598
C3    C     C_3   0.455944 0.666952 0.630595 0.331993
C4    C     C_3   0.495731 0.666263 0.686544 0.099589
C5    C     C_3   0.069933 0.685607 0.343110 0.327426
C6    C     C_3   0.081364 0.705362 0.290181 -0.300610
C7    C     C_3   0.534224 0.725368 0.364275 0.351231
C8    C     C_3   0.491806 0.798119 0.346135 -0.345299
C9    C     C_R   0.004047 0.447591 0.177323 0.600106
C10   C     C_R   0.913158 0.570968 0.177184 0.602535
C11   C     C_2   0.759010 0.547611 0.272035 -0.081880
C12   C     C_3   0.120636 0.267611 0.651732 0.308376
C13   C     C_3   0.743937 0.571213 0.327152 -0.047559
C14   C     C_1   0.980257 0.489427 0.342352 0.028778
C15   C     C_2   0.019184 0.485711 0.294386 -0.105726
C16   C     C_2   0.900494 0.514250 0.255627 0.190116
C17   C     C_R   0.019708 0.505935 0.100827 -0.090034
C18   C     C_R   0.045057 0.444565 0.126356 -0.014665
C19   C     C_R   0.110374 0.381340 0.100292 -0.053706
C20   C     C_R   0.951538 0.569111 0.126426 -0.113539
C21   C     C_2   0.849620 0.526446 0.360227 -0.295063
C22   C     C_2   0.358972 0.486016 0.641185 -0.246482
C23   C     C_3   0.044307 0.248162 0.698291 -0.325927
C24   C     C_R   0.154511 0.436718 0.971105 0.035569
C25   C     C_R   0.097885 0.566802 0.975708 -0.012630
C26   C     C_R   0.146733 0.501178 0.947957 0.046069
C27   C     C_R   0.194829 0.372020 0.941175 -0.097350
C28   C     C_R   0.231013 0.370975 0.890997 -0.048614
C29   C     C_R   0.230428 0.434379 0.868287 -0.020409
C30   C     C_R   0.189507 0.500110 0.896794 -0.117571
C31   C     C_R   0.192218 0.564582 0.874343 -0.082503
C32   C     C_R   0.231935 0.560972 0.823143 0.630545
C33   C     C_R   0.269553 0.433186 0.817555 0.596787
C34   C     C_3   0.182869 0.317547 0.417035 0.309341
C35   C     C_2   0.465425 0.482772 0.729558 -0.071821
C36   C     C_3   0.508365 0.490334 0.676136 -0.067048
C37   C     C_1   0.218209 0.514302 0.657348 -0.008322
C38   C     C_2   0.179585 0.511086 0.704436 -0.128662
C39   C     C_2   0.309109 0.494473 0.743377 0.235029
C40   C     C_R   0.121788 0.439039 0.023125 0.044490
C41   C     C_R   0.061308 0.504132 0.049560 -0.007689
C42   C     C_R   0.040416 0.567362 0.025069 -0.052273
C43   C     C_R   0.147490 0.378475 0.049939 -0.093522
C44   C     C_R   0.918758 0.629205 0.100494 -0.071517
C45   C     C_3   0.196863 0.236779 0.404521 -0.356444
C46   C     C_R   0.115168 0.630292 0.953924 -0.036357
C47   C     C_R   0.158696 0.630105 0.904446 0.301051
C48   C     C_R   0.958489 0.628317 0.050721 0.570189
C49   C     C_2   0.411508 0.300617 0.521849 -0.247267
C50   C     C_3   0.328423 0.253090 0.552872 -0.071648
C51   C     C_2   0.364811 0.174279 0.537729 -0.118865
C52   C     C_2   0.491607 0.151442 0.508530 -0.066020
C53   C     C_2   0.581439 0.206019 0.486362 -0.127331
C54   C     C_1   0.531245 0.274678 0.492721 0.060332
C55   C     C_R   0.650550 0.932890 0.492001 0.472751
C56   C     C_3   0.966644 0.685802 0.651453 0.501888
C57   C     C_R   0.545373 0.073929 0.500886 0.464043
C58   C     C_R   0.618355 0.807477 0.511072 -0.085441
C59   C     C_R   0.671636 0.735352 0.509456 0.045515
C60   C     C_R   0.907614 0.757511 0.465177 0.033609
C61   C     C_R   0.855315 0.830217 0.466220 -0.128455
C62   C     C_R   0.708547 0.855969 0.489085 -0.056326
C63   C     C_R   0.813967 0.710668 0.486028 -0.226453
C64   C     C_3   0.055254 0.698967 0.702396 -0.303161
C65   C     C_3   0.667091 0.379326 0.372012 0.300065
C66   C     C_3   0.656574 0.362978 0.315305 -0.347908
H1    H     H_    0.641099 0.283603 0.607078 0.065735
H2    H     H_    0.282377 0.221888 0.373874 0.124696
H3    H     H_    0.242834 0.210872 0.437887 0.075403
H4    H     H_    0.075489 0.217036 0.392549 0.138429
H5    H     H_    0.856811 0.656262 0.654723 0.059642
H6    H     H_    0.100569 0.648095 0.716002 0.080062
H7    H     H_    0.970377 0.726763 0.730094 0.178075
H8    H     H_    0.158991 0.732777 0.699979 0.169168
H9    H     H_    0.794034 0.389723 0.384113 0.006988
H10   H     H_    0.585948 0.427495 0.382565 0.074306
H11   H     H_    0.701629 0.201124 0.672462 0.135484
H12   H     H_    0.740731 0.316342 0.303440 0.137146
H13   H     H_    0.690599 0.409668 0.297420 0.068775
H14   H     H_    0.530165 0.350854 0.302549 0.135409
H15   H     H_    0.452237 0.316401 0.637465 -0.085486
H16   H     H_    0.512800 0.184059 0.638139 0.073039
H17   H     H_    0.346713 0.703455 0.625240 0.087592
H18   H     H_    0.431727 0.611790 0.614353 -0.066688
H19   H     H_    0.395776 0.643400 0.704382 0.028077
H20   H     H_    0.609203 0.632645 0.692600 0.040352
H21   H     H_    0.510491 0.230988 0.700607 0.137858
H22   H     H_    0.132236 0.255375 0.730850 0.116095
H23   H     H_    0.148940 0.636197 0.346842 0.092488
H24   H     H_    0.941771 0.675557 0.348970 -0.059278
H25   H     H_    0.198225 0.729523 0.285861 0.148690
H26   H     H_    0.076269 0.656439 0.263386 0.118329
H27   H     H_    0.979313 0.744099 0.281396 0.126464
H28   H     H_    0.668501 0.715245 0.362940 -0.070333
H29   H     H_    0.497621 0.727490 0.403673 0.060405
H30   H     H_    0.559693 0.839412 0.369720 0.070777
H31   H     H_    0.359548 0.812452 0.348792 0.154464
H32   H     H_    0.145510 0.325372 0.657717 0.033015
H33   H     H_    0.525830 0.797299 0.306610 0.127741
H34   H     H_    0.138372 0.463390 0.283221 0.128636
H35   H     H_    0.133089 0.333286 0.118816 0.127023
H36   H     H_    0.562065 0.473606 0.757476 0.087673
H37   H     H_    0.260301 0.319688 0.869919 0.126108
H38   H     H_    0.195761 0.320653 0.955161 0.078689
H39   H     H_    0.199976 0.328035 0.033305 0.076403
H40   H     H_    0.666478 0.567039 0.245875 0.120597
H41   H     H_    0.858155 0.677428 0.118467 0.162064
H42   H     H_    0.103425 0.681817 0.975606 0.193518
H43   H     H_    0.236197 0.234379 0.647203 -0.019217
H44   H     H_    0.055245 0.523045 0.715607 0.100682
H45   H     H_    0.835306 0.537667 0.400296 0.081088
H46   H     H_    0.367935 0.461123 0.602919 0.069874
H47   H     H_    0.298260 0.136720 0.555295 0.106985
H48   H     H_    0.686521 0.188948 0.464189 0.109058
H49   H     H_    0.508188 0.825558 0.530265 0.116790
H50   H     H_    0.928953 0.866111 0.449742 0.103838
H51   H     H_    0.386707 0.357864 0.529895 0.065606
H52   H     H_    0.933697 0.283327 0.706561 0.162305
H53   H     H_    0.855240 0.654940 0.485806 0.069218
H54   H     H_    0.011999 0.191508 0.692768 0.124951
H55   H     H_    0.304775 0.336616 0.427352 -0.003939
H56   H     H_    0.102636 0.330955 0.449059 0.084048
N1    N     N_R   0.939721 0.510639 0.202624 -0.421247
N2    N     N_R   0.268955 0.495994 0.795612 -0.435736
N3    N     N_R   0.510475 0.955827 0.515012 -0.224935
N4    N     N_R   0.459243 0.024619 0.519412 -0.230286
N5    N     N_R   0.684917 0.051083 0.477376 -0.235615
N6    N     N_R   0.736409 0.982046 0.473002 -0.236671
O1    O     O_2   0.914730 0.537460 0.618690 -0.481797
O2    O     O_3   0.619902 0.320082 0.393453 -0.632479
O3    O     O_3   0.015526 0.252980 0.609543 -0.571433
O4    O     O_2   0.274960 0.462520 0.381280 -0.460964
O5    O     O_3   0.042980 0.462530 0.441480 -0.497273
O6    O     O_3   0.523340 0.590550 0.413420 -0.485717
O7    O     O_3   0.118782 0.348473 0.374877 -0.624023
O8    O     O_3   0.635780 0.584660 0.526290 -0.462910
O9    O     O_3   0.116060 0.626590 0.438450 -0.489524
O10   O     O_2   0.246070 0.752009 0.468439 -0.470230
O11   O     O_3   0.121699 0.741968 0.377406 -0.608991
O12   O     O_3   0.146720 0.537410 0.558510 -0.441781
O13   O     O_3   0.553920 0.415280 0.473710 -0.492544
O14   O     O_2   0.383540 0.672140 0.526840 -0.450704
O15   O     O_3   0.587928 0.691749 0.608336 -0.603697
O16   O     O_2   0.413550 0.534537 0.323069 -0.498688
O17   O     O_3   0.451268 0.672601 0.333687 -0.592132
O18   O     O_2   0.023483 0.393709 0.198801 -0.593357
O19   O     O_2   0.303459 0.376180 0.792802 -0.597857
O20   O     O_2   0.857138 0.627026 0.198828 -0.614236
O21   O     O_2   0.234510 0.615519 0.802848 -0.532409
O22   O     O_3   0.666360 0.409390 0.586570 -0.482320
O23   O     O_2   0.841438 0.445400 0.670169 -0.473511
O24   O     O_3   0.071477 0.652449 0.614727 -0.629571
O25   O     O_3   0.664631 0.341277 0.676937 -0.589849
O26   O     O_2   0.806150 0.327840 0.473120 -0.456633
O27   O     O_3   0.073640 0.373350 0.561550 -0.473728
O28   O     O_2   0.009244 0.246607 0.511825 -0.476418
P1    P     P_3+3 0.084800 0.558370 0.611580 0.994539
P2    P     P_3+3 0.628800 0.338360 0.458800 0.986592
P3    P     P_3+3 0.106845 0.280272 0.558053 0.967598
P4    P     P_3+3 0.104900 0.441570 0.388420 0.991392
P5    P     P_3+3 0.099077 0.720015 0.438042 0.984255
P6    P     P_3+3 0.669550 0.422992 0.652256 0.994625
P7    P     P_3+3 0.569121 0.673465 0.543121 1.023609
P8    P     P_3+3 0.531944 0.589157 0.348588 0.939681
Br1   Br    Br    0.894904 0.778663 0.631025 -0.494904
Br2   Br    Br    0.524410 0.762073 0.718812 -0.419920
Br3   Br    Br    0.172565 0.723494 0.882692 -0.380081
F1    F     F_    0.901668 0.685660 0.027360 -0.688920

loop_
_geom_bond_atom_site_label_1
_geom_bond_atom_site_label_2
_ccdc_geom_bond_type
C25   C46   A    
C66   H12   S    
C46   H42   S    
C53   C54   D    
C22   H46   S    
C33   N2    Am   
Ba2   O14   S    
C17   C18   A    
C65   H9    S    
O12   P1    S    
C41   C42   A    
C23   H54   S    
C1    H11   S    
Ba2   P4    S    
C5    C6    S    
C38   H44   S    
O15   P7    S    
C51   C52   D    
O10   P5    D    
C65   H10   S    
C23   H22   S    
Ba2   O4    S    
C11   C16   D    
C34   C45   S    
O8    P7    S    
C66   H13   S    
C9    N1    Am   
C35   C36   S    
Ba1   Ba2   S    
C16   N1    S    
C28   C29   A    
C9    O18   D    
O13   P2    S    
C53   H48   S    
C5    H24   S    
C31   C47   A    
C64   H6    S    
C10   C20   A    
C22   C37   D    
C4    H20   S    
Ba1   O22   S    
C49   C54   D    
C8    H30   S    
C60   P5    S    
Ba1   O12   S    
C56   O24   S    
O28   P3    D    
C25   C42   A    
C56   C64   S    
C65   O2    S    
C14   C15   D    
C22   C36   S    
C13   P8    S    
C63   H53   S    
C7    C8    S    
C50   P3    S    
C3    H17   S    
C13   C21   S    
O16   P8    D    
C64   H8    S    
Ba2   O13   S    
C6    H27   S    
C11   H40   S    
C2    H1    S    
C17   C41   A    
C31   C32   A    
C19   C43   A    
C52   C57   S    
Ba1   P2    S    
C12   H43   S    
C4    Br2   S    
C9    C18   A    
C3    O15   S    
O23   P6    D    
C49   C50   S    
Ba2   O8    S    
C10   O20   D    
C55   N6    A    
C26   C30   A    
C34   H55   S    
C6    H26   S    
C37   C38   D    
C61   H50   S    
C10   N1    Am   
C14   P4    S    
C57   N4    A    
C7    O17   S    
Ba2   O6    S    
C4    H19   S    
O4    P4    D    
C58   C59   A    
C40   C43   A    
Ba1   O26   S    
C15   H34   S    
C45   H2    S    
C27   C28   A    
Ba1   O13   S    
O17   P8    S    
C59   C63   A    
C21   H45   S    
C12   O3    S    
C49   H51   S    
C29   C30   A    
Ba1   P1    S    
C32   N2    Am   
C5    H23   S    
C17   C20   A    
C60   C61   A    
C15   C16   S    
C58   H49   S    
C48   F1    S    
O2    P2    S    
O1    P1    D    
C56   Br1   S    
C7    H28   S    
C45   H3    S    
O22   P6    S    
C36   P6    S    
C3    H18   S    
C65   C66   S    
C20   C44   A    
O11   P5    S    
C14   C21   D    
C11   C13   S    
C28   H37   S    
Ba2   O12   S    
O5    P4    S    
C29   C33   A    
C27   H38   S    
C40   C41   A    
Ba2   O9    S    
C1    C2    S    
C23   H52   S    
O27   P3    S    
C5    O11   S    
C50   C51   S    
C24   C40   A    
C55   C62   S    
N5    N6    A    
C34   O7    S    
C42   C48   A    
C52   C53   S    
C57   N5    A    
C7    H29   S    
C60   C63   A    
C34   H56   S    
C37   P1    S    
C39   N2    S    
C8    H33   S    
C6    H25   S    
Ba1   O1    S    
O3    P3    S    
C55   N3    A    
C35   H36   S    
C51   H47   S    
C32   O21   D    
C12   H32   S    
O26   P2    D    
O25   P6    S    
C44   C48   A    
C24   C26   A    
Ba2   O5    S    
C58   C62   A    
O14   P7    D    
C1    H21   S    
C66   H14   S    
C30   C31   A    
Ba1   O27   S    
O24   P1    S    
C54   P2    S    
O7    P4    S    
C47   Br3   S    
C3    C4    S    
C2    H15   S    
O6    P8    S    
C46   C47   A    
C64   H7    S    
O9    P5    S    
C59   P7    S    
C12   C23   S    
C35   C39   D    
C8    H31   S    
C45   H4    S    
C61   C62   A    
C19   H35   S    
C43   H39   S    
C2    O25   S    
C18   C19   A    
C24   C27   A    
C44   H41   S    
C1    H16   S    
C38   C39   S    
C33   O19   D    
Ba1   O5    S    
Ba1   O8    S    
N3    N4    A    
C56   H5    S    
C25   C26   A    
