data_mof_unit_51718.cif
_audit_creation_date              2012-12-10T17:01:37-0500
_audit_creation_method            fapswitch 2.2
_symmetry_space_group_name_H-M    P1
_symmetry_Int_Tables_number       1
_space_group_crystal_system       triclinic
_cell_length_a                    10.019901
_cell_length_b                    10.962562
_cell_length_c                    12.931284
_cell_angle_alpha                 86.680901
_cell_angle_beta                  75.853922
_cell_angle_gamma                 110.329354
_cell_volume                      1275.52674121

loop_
_atom_site_label
_atom_site_type_symbol
_atom_type_description
_atom_site_fract_x
_atom_site_fract_y
_atom_site_fract_z
_atom_type_partial_charge
C1    C     C_R   0.439769 0.253712 0.512126 0.853131
C2    C     C_R   0.559930 0.745572 0.494517 0.850229
C3    C     C_2   0.082370 0.517303 0.492131 0.158767
C4    C     C_2   0.918609 0.490980 0.514391 0.158402
C5    C     C_R   0.472945 0.496530 0.702282 0.788620
C6    C     C_R   0.527289 0.506412 0.297538 0.794912
C7    C     C_R   0.543068 0.517325 0.182392 -0.044735
C8    C     C_R   0.455377 0.492405 0.817380 -0.043504
C9    C     C_R   0.308010 0.398487 0.001398 -0.217055
C10   C     C_R   0.688024 0.616658 0.998781 -0.222087
C11   C     C_R   0.321032 0.410515 0.891485 -0.203651
C12   C     C_R   0.677635 0.598650 0.108249 -0.199442
C13   C     C_R   0.574590 0.566707 0.853521 -0.259846
C14   C     C_R   0.419783 0.451533 0.146847 -0.270502
C15   C     C_R   0.564741 0.551204 0.962916 0.176232
C16   C     C_R   0.430069 0.466730 0.037462 0.173134
C17   C     C_2   0.407478 0.112545 0.531389 -0.367339
C18   C     C_2   0.594538 0.886023 0.492695 -0.357107
C19   C     C_2   0.519008 0.069825 0.523133 -0.153414
C20   C     C_2   0.490649 0.929983 0.541152 -0.149596
Cu1   Cu    Cu3+1 0.647370 0.522180 0.481340 0.912898
Cu2   Cu    Cu3+1 0.352630 0.477820 0.518660 0.912203
H1    H     H_    0.316088 0.387936 0.204322 0.150374
H2    H     H_    0.675365 0.635143 0.796402 0.136462
H3    H     H_    0.773259 0.650850 0.135270 0.151744
H4    H     H_    0.227498 0.353435 0.864227 0.154073
H5    H     H_    0.204085 0.333802 0.057772 0.136626
H6    H     H_    0.792131 0.680844 0.942320 0.135352
H7    H     H_    0.382731 0.862398 0.590240 0.170175
H8    H     H_    0.633979 0.138137 0.497296 0.178276
H9    H     H_    0.705091 0.954361 0.448013 0.146223
H10   H     H_    0.292933 0.043582 0.554106 0.151287
H11   H     H_    0.937144 0.612480 0.381250 0.191000
H12   H     H_    0.059081 0.360880 0.599077 0.191174
N1    N     N_2   0.131210 0.444490 0.546730 -0.317659
N2    N     N_2   0.868790 0.555510 0.453270 -0.316666
O1    O     O_R   0.578710 0.332530 0.490040 -0.594649
O2    O     O_R   0.421290 0.667470 0.509960 -0.582375
O3    O     O_R   0.329810 0.295070 0.521560 -0.572525
O4    O     O_R   0.670190 0.704930 0.478440 -0.573118
O5    O     O_R   0.604230 0.515670 0.637800 -0.589293
O6    O     O_R   0.395770 0.484330 0.362200 -0.601527
O7    O     O_R   0.355330 0.478200 0.669330 -0.577956
O8    O     O_R   0.644670 0.521800 0.330670 -0.574589
C21   C     C_3   0.815076 0.387823 0.612248 -0.329444
C22   C     C_3   0.836821 0.434167 0.719224 -0.376535
C23   C     C_3   0.729215 0.331759 0.816246 -0.833385
H13   H     H_    0.612664 0.310412 0.815746 0.259239
H14   H     H_    0.750827 0.239047 0.814502 0.246419
H15   H     H_    0.744450 0.369614 0.892067 0.252462
H16   H     H_    0.951070 0.453904 0.724175 0.212348
H17   H     H_    0.820053 0.528296 0.724322 0.233474
H18   H     H_    0.698427 0.358129 0.616879 0.258466
H19   H     H_    0.831917 0.293518 0.604908 0.134013
C24   C     C_3   0.187458 0.632572 0.403434 -0.326320
C25   C     C_3   0.186635 0.766555 0.432734 -0.389954
C26   C     C_3   0.298570 0.879484 0.344761 -0.831566
H20   H     H_    0.412786 0.882060 0.334965 0.263235
H21   H     H_    0.271662 0.867400 0.266668 0.246566
H22   H     H_    0.294241 0.974662 0.366724 0.249251
H23   H     H_    0.076563 0.773562 0.444467 0.214835
H24   H     H_    0.212714 0.779198 0.510409 0.227988
H25   H     H_    0.301693 0.640011 0.382262 0.263829
H26   H     H_    0.158304 0.616358 0.326529 0.142422

loop_
_geom_bond_atom_site_label_1
_geom_bond_atom_site_label_2
_ccdc_geom_bond_type
C14   H1    S    
C5    C8    S    
C24   C25   S    
C4    N2    D    
C8    C13   A    
C22   H17   S    
C2    C18   S    
Cu1   O8    S    
C2    O2    A    
C1    C17   S    
C23   H13   S    
C3    N1    D    
C12   H3    S    
C20   H7    S    
C25   H24   S    
C24   H26   S    
C19   C20   S    
C5    O7    A    
C21   H18   S    
C23   H14   S    
Cu1   N2    S    
C6    O8    A    
C21   C22   S    
Cu2   N1    S    
C9    C11   A    
C26   H20   S    
Cu2   O6    S    
Cu1   O4    S    
C10   C12   A    
C8    C11   A    
Cu1   O5    S    
Cu2   O3    S    
Cu1   Cu2   S    
C17   C19   D    
C9    C16   A    
C21   H19   S    
Cu2   O7    S    
C6    C7    S    
C18   C20   D    
C4    C21   S    
C13   C15   A    
C7    C12   A    
C14   C16   A    
C26   H21   S    
C1    O3    A    
C15   C16   A    
Cu2   O2    S    
C2    O4    A    
H11   N2    S    
Cu1   O1    S    
C25   C26   S    
C9    H5    S    
H12   N1    S    
C6    O6    A    
C10   H6    S    
C17   H10   S    
C23   H15   S    
C5    O5    A    
C22   C23   S    
C26   H22   S    
C18   H9    S    
C11   H4    S    
C10   C15   A    
C25   H23   S    
C19   H8    S    
C3    C24   S    
C22   H16   S    
C7    C14   A    
C3    C4    S    
C13   H2    S    
C1    O1    A    
C24   H25   S    
