data_mof_unit_67136.cif
_audit_creation_date              2013-03-05T15:58:56-0500
_audit_creation_method            fapswitch 2.2
_symmetry_space_group_name_H-M    P1
_symmetry_Int_Tables_number       1
_space_group_crystal_system       triclinic
_cell_length_a                    8.190868
_cell_length_b                    12.652511
_cell_length_c                    14.923394
_cell_angle_alpha                 96.690673
_cell_angle_beta                  97.308061
_cell_angle_gamma                 98.749373
_cell_volume                      1501.54190481

loop_
_atom_site_label
_atom_site_type_symbol
_atom_site_description
_atom_site_fract_x
_atom_site_fract_y
_atom_site_fract_z
_atom_type_partial_charge
P1    P     P_3+3 0.998730 0.403530 0.291970 0.449354
O1    O     O_2   0.827880 0.435260 0.277750 -0.362986
O2    O     O_3   0.100280 0.438960 0.391170 -0.411862
O3    O     O_3   0.625580 0.634130 0.333250 -0.358112
O4    O     O_2   0.698516 0.548433 0.175585 -0.382934
O5    O     O_3   0.951736 0.262704 0.269642 -0.574483
O6    O     O_3   0.664587 0.748158 0.182264 -0.533635
H1    H     H_    0.680009 0.896134 0.256230 0.119705
C1    C     C_3   0.483034 0.873644 0.140369 -0.526400
H2    H     H_    0.430638 0.944080 0.169147 0.192747
P2    P     P_3+3 0.687380 0.751030 0.571310 0.453023
P3    P     P_3+3 0.102929 0.828901 0.377165 0.448271
O7    O     O_2   0.857130 0.766340 0.543890 -0.379341
O8    O     O_3   0.056550 0.691050 0.379010 -0.385668
O9    O     O_2   0.984231 0.881906 0.433896 -0.382626
O10   O     O_3   0.726485 0.785277 0.690165 -0.579738
O11   O     O_3   0.045097 0.855232 0.265900 -0.529921
C2    C     C_3   0.073062 0.769291 0.204300 0.527795
H3    H     H_    0.988171 0.693667 0.209538 0.155510
H4    H     H_    0.204414 0.756248 0.217672 -0.015231
C3    C     C_3   0.037662 0.795067 0.107259 -1.037115
H5    H     H_    0.903328 0.797850 0.088991 0.295553
H6    H     H_    0.110785 0.874529 0.100808 0.257769
C4    C     C_3   0.259684 0.784759 0.652991 0.336900
H7    H     H_    0.393880 0.796290 0.646834 0.095189
H8    H     H_    0.186391 0.738118 0.589267 0.138428
C5    C     C_3   0.204551 0.893933 0.663488 -0.805623
H9    H     H_    0.291110 0.950838 0.716500 0.265188
H10   H     H_    0.201185 0.926841 0.597909 0.252950
H11   H     H_    0.078861 0.885256 0.684628 0.247718
Ba1   Ba    Ba6+2 0.843750 0.550210 0.455600 1.543423
C6    C     C_3   0.929524 0.221239 0.350720 0.424189
H12   H     H_    0.830139 0.255707 0.381216 0.089685
H13   H     H_    0.046289 0.239839 0.399838 0.136495
C7    C     C_3   0.879973 0.099645 0.329226 -1.009619
H14   H     H_    0.752396 0.080040 0.289973 0.255487
H15   H     H_    0.880666 0.062578 0.392682 0.244147
H16   H     H_    0.969942 0.065686 0.289228 0.291124
C8    C     C_3   0.775845 0.698970 0.731031 0.449375
H17   H     H_    0.890900 0.679140 0.706712 0.094192
H18   H     H_    0.675699 0.626918 0.715886 0.129413
C9    C     C_3   0.811202 0.732727 0.833928 -1.024017
H19   H     H_    0.915221 0.802519 0.851174 0.269089
H20   H     H_    0.846477 0.665222 0.868980 0.228387
H21   H     H_    0.698003 0.756087 0.859105 0.260984
P4    P     P_3+3 0.190990 0.596560 0.708040 0.460581
O12   O     O_2   0.361830 0.564780 0.722310 -0.368054
O13   O     O_3   0.089430 0.561130 0.608830 -0.408350
O14   O     O_3   0.564130 0.365960 0.666760 -0.335314
O15   O     O_3   0.236692 0.737642 0.731899 -0.571754
P5    P     P_3+3 0.088568 0.169681 0.621339 0.501353
O16   O     O_3   0.601940 0.368240 0.453770 -0.397970
O17   O     O_3   0.133170 0.309040 0.621000 -0.376082
O18   O     O_2   0.208854 0.117948 0.565043 -0.315675
O19   O     O_3   0.145610 0.144399 0.732849 -0.512303
Ba2   Ba    Ba6+2 0.346090 0.449880 0.544410 1.561078
P6    P     P_3+3 0.585655 0.623916 0.214305 0.450642
C10   C     C_3   0.583237 0.830311 0.217942 0.410126
H22   H     H_    0.499197 0.805743 0.267637 0.002784
H23   H     H_    0.377082 0.809396 0.109416 0.178598
O20   O     O_3   0.587780 0.631850 0.546230 -0.397356
C11   C     C_3   0.421071 0.285981 0.267383 0.469880
H24   H     H_    0.297486 0.298522 0.285426 0.086913
H25   H     H_    0.513564 0.361391 0.288830 0.132645
C12   C     C_3   0.406103 0.259794 0.164911 -1.064966
H26   H     H_    0.324056 0.180479 0.142902 0.272208
H27   H     H_    0.352620 0.323316 0.131568 0.225237
H28   H     H_    0.530893 0.254935 0.144750 0.265203
P7    P     P_3+3 0.507853 0.233205 0.424889 0.424006
O21   O     O_2   0.332590 0.233690 0.456160 -0.372385
O22   O     O_3   0.471620 0.198623 0.306620 -0.593764
H29   H     H_    0.071528 0.731633 0.058579 0.230417
C13   C     C_3   0.107212 0.227173 0.794390 0.461798
H30   H     H_    0.218393 0.291281 0.815032 0.139953
H31   H     H_    0.005306 0.266812 0.764565 -0.002236
C14   C     C_3   0.049419 0.180544 0.877486 -0.552246
H32   H     H_    0.958419 0.228349 0.903606 0.152032
H33   H     H_    0.984203 0.095993 0.857139 0.237424
P8    P     P_3+3 0.603499 0.371343 0.784966 0.451804
C15   C     C_3   0.613067 0.166851 0.755281 1.454288
H34   H     H_    0.734512 0.202687 0.737229 -0.231657
O23   O     O_2   0.480048 0.437617 0.825536 -0.400356
O24   O     O_3   0.544665 0.240683 0.811459 -0.611266
H35   H     H_    0.704797 0.099212 0.875528 0.225686
C16   C     C_3   0.642802 0.070892 0.804498 -1.171636
H36   H     H_    0.721315 0.022049 0.767418 0.255206
H37   H     H_    0.524789 0.017541 0.807848 0.263156
C17   C     C_R   0.822558 0.433404 0.830588 0.139052
C18   C     C_R   0.892861 0.440050 0.923183 -0.014602
C19   C     C_R   0.037229 0.453494 0.109428 -0.034305
C20   C     C_R   0.876976 0.394381 0.076506 -0.077988
C21   C     C_R   0.804416 0.390545 0.986228 -0.207946
C22   C     C_R   0.107420 0.465539 0.203239 0.236039
H38   H     H_    0.804137 0.350882 0.119994 0.167203
H39   H     H_    0.678971 0.346258 0.966413 0.175697
C23   C     C_R   0.268818 0.522762 0.231036 -0.524619
C24   C     C_R   0.081778 0.532915 0.796221 0.250312
C25   C     C_R   0.151944 0.544300 0.889948 -0.035049
C26   C     C_R   0.058544 0.495244 0.952983 0.017510
C27   C     C_R   0.313186 0.602045 0.922711 -0.087790
C28   C     C_R   0.385468 0.605360 0.012839 -0.206369
C29   C     C_R   0.295725 0.558041 0.076237 -0.021130
C30   C     C_R   0.130202 0.502724 0.046395 0.009999
C31   C     C_R   0.365373 0.565847 0.169011 0.173813
C32   C     C_R   0.919849 0.475997 0.768459 -0.520428
H40   H     H_    0.512240 0.647152 0.032183 0.175940
H41   H     H_    0.387545 0.644715 0.879357 0.168060
H42   H     H_    0.323062 0.529826 0.301918 0.184121
H43   H     H_    0.866069 0.468415 0.697476 0.179173
C33   C     C_R   0.770127 0.181872 0.537234 -0.440699
C34   C     C_R   0.419704 0.808386 0.463005 -0.504313
C35   C     C_R   0.388430 0.986813 0.430387 -0.213128
C36   C     C_R   0.322422 0.878496 0.425773 0.191327
C37   C     C_R   0.579200 0.847357 0.512029 0.291337
C38   C     C_R   0.645320 0.959415 0.521076 -0.022017
C39   C     C_R   0.548961 0.029169 0.478217 -0.008130
C40   C     C_R   0.614143 0.140286 0.486423 0.322738
C41   C     C_R   0.869483 0.113781 0.574499 0.170295
C42   C     C_R   0.805455 0.004080 0.569807 -0.197705
H44   H     H_    0.309753 0.037067 0.398431 0.183670
H45   H     H_    0.883577 0.955163 0.602890 0.174491
H46   H     H_    0.819336 0.267117 0.542578 0.152667
H47   H     H_    0.367233 0.723756 0.458165 0.175485
C43   C     C_3   0.580848 0.904515 0.063083 -0.203564
C44   C     C_3   0.719148 0.002224 0.092839 -0.855544
H48   H     H_    0.668154 0.071919 0.123941 0.265907
H49   H     H_    0.819151 0.982147 0.142025 0.283599
H50   H     H_    0.775094 0.025470 0.032487 0.240393
H51   H     H_    0.634433 0.835050 0.033978 0.206844
H52   H     H_    0.491719 0.923914 0.007267 0.189800
C45   C     C_3   0.190734 0.184564 0.955765 -0.247901
C46   C     C_3   0.289798 0.093225 0.939711 -0.802039
H53   H     H_    0.331183 0.092409 0.872153 0.303493
H54   H     H_    0.401432 0.105176 0.992750 0.239789
H55   H     H_    0.211345 0.014206 0.942422 0.240361
H56   H     H_    0.133283 0.175885 0.018562 0.200287
H57   H     H_    0.275433 0.263863 0.966515 0.209126
F1    F     F_    0.503055 0.130141 0.675933 -0.675695

loop_
_geom_bond_atom_site_label_1
_geom_bond_atom_site_label_2
_geom_bond_distance
_ccdc_geom_bond_type
O5    C6    1.395427 S    
C4    H7    1.103606 S    
C28   C29   1.403189 A    
C5    H10   1.106121 S    
C2    C3    1.523049 S    
C13   H30   1.108065 S    
Ba1   O20   2.889085 S    
C26   C30   1.428627 A    
C7    H14   1.108242 S    
C4    C5    1.514544 S    
Ba1   O16   2.794435 S    
C33   C41   1.386930 A    
C37   C38   1.423008 A    
C8    H18   1.110109 S    
C16   H36   1.110606 S    
C11   H24   1.109327 S    
C18   C26   1.418768 A    
C7    H15   1.104398 S    
C4    H8    1.108703 S    
C1    C10   1.535406 S    
C14   C45   1.526855 S    
C38   C39   1.423365 A    
P1    Ba1   3.386436 S    
C1    C43   1.539338 S    
C39   C40   1.411203 A    
C2    H3    1.110845 S    
P2    O10   1.752307 S    
P7    O22   1.744117 S    
P2    C37   1.852989 S    
C41   C42   1.397504 A    
C35   C36   1.385068 A    
C11   H25   1.110854 S    
O16   P7    1.744160 S    
H1    C10   1.105178 S    
C46   H53   1.103204 S    
C12   H27   1.109196 S    
O3    P6    1.749428 S    
C11   O22   1.401543 S    
C44   H50   1.110581 S    
Ba1   Ba2   4.491793 S    
C1    H2    1.112165 S    
O8    Ba1   2.748907 S    
O6    C10   1.407106 S    
C2    H4    1.109795 S    
C24   C32   1.396261 A    
C16   H37   1.101898 S    
C23   H42   1.081962 S    
P2    Ba1   3.407150 S    
C3    H5    1.106322 S    
C5    H11   1.108053 S    
C13   H31   1.109598 S    
P7    O21   1.565595 D    
C9    H20   1.107861 S    
C15   O24   1.409133 S    
C33   C40   1.392923 A    
P8    C17   1.853526 S    
C24   C25   1.425065 A    
C8    C9    1.523374 S    
C42   H45   1.071252 S    
C4    O15   1.401205 S    
P4    O13   1.582260 S    
C3    H29   1.109958 S    
C34   H47   1.081941 S    
P1    O5    1.747674 S    
C6    C7    1.515404 S    
C7    H16   1.110149 S    
H35   C16   1.108636 S    
C45   H56   1.110036 S    
C20   C21   1.393907 A    
C35   H44   1.078951 S    
C10   H22   1.113086 S    
C21   H39   1.079874 S    
O14   P8    1.743863 S    
O1    Ba1   2.851629 S    
P1    O2    1.582105 S    
C9    H21   1.111013 S    
C6    H13   1.104706 S    
P3    O11   1.751941 S    
C29   C31   1.414958 A    
C15   C16   1.524834 S    
C45   H57   1.111811 S    
O2    Ba2   2.823641 S    
P3    O9    1.545069 D    
C12   H28   1.110005 S    
O11   C2    1.405831 S    
C43   H52   1.111076 S    
C34   C36   1.395630 A    
C14   H32   1.108824 S    
C18   C21   1.405348 A    
O2    Ba1   2.901599 S    
P1    C22   1.868433 S    
P4    C24   1.872882 S    
P3    O8    1.731885 S    
C12   H26   1.108354 S    
C22   C23   1.394007 A    
Ba2   O21   2.874076 S    
Ba1   O13   2.822892 S    
C3    H6    1.110336 S    
C44   H48   1.110631 S    
C13   C14   1.531276 S    
C9    H19   1.110987 S    
C45   C46   1.523676 S    
C35   C39   1.408312 A    
C19   C22   1.425672 A    
P3    C36   1.836057 S    
O17   Ba2   2.749485 S    
C28   H40   1.078098 S    
O13   Ba2   2.902439 S    
P6    C31   1.850109 S    
C32   H43   1.081733 S    
P4    O12   1.510123 D    
C27   H41   1.078242 S    
C11   C12   1.511698 S    
O7    Ba1   2.873765 S    
C14   H33   1.109583 S    
C15   H34   1.107739 S    
P2    O20   1.579882 S    
P8    O23   1.545172 D    
O14   Ba2   2.801763 S    
P4    O15   1.751569 S    
C38   C42   1.415876 A    
O4    P6    1.541589 D    
O19   C13   1.410243 S    
P5    O18   1.543886 D    
C6    H12   1.102718 S    
C1    H23   1.105991 S    
C23   C31   1.397167 A    
C33   H46   1.082429 S    
C20   H38   1.077899 S    
P8    O24   1.754974 S    
C17   C32   1.399595 A    
P2    O7    1.489784 D    
C19   C20   1.405479 A    
C46   H55   1.111185 S    
C15   F1    1.379470 S    
P1    O1    1.509891 D    
P7    C40   1.828380 S    
C27   C28   1.392152 A    
C43   H51   1.109359 S    
C34   C37   1.400677 A    
P5    O19   1.749733 S    
C29   C30   1.418240 A    
C25   C27   1.405726 A    
C19   C30   1.423807 A    
O3    Ba1   2.802414 S    
O10   C8    1.398075 S    
P5    C41   1.840823 S    
C8    H17   1.104770 S    
C17   C18   1.415584 A    
C46   H54   1.109683 S    
C25   C26   1.424822 A    
P4    Ba2   3.386977 S    
C5    H9    1.102813 S    
C44   H49   1.108176 S    
Ba2   O20   2.793890 S    
O12   Ba2   2.852187 S    
P5    O17   1.746167 S    
O6    P6    1.749948 S    
O16   Ba2   2.888338 S    
C43   C44   1.525388 S    
