data_mof_unit_19996.cif
_audit_creation_date              2012-12-11T14:13:15-0500
_audit_creation_method            fapswitch 2.2
_symmetry_space_group_name_H-M    P1
_symmetry_Int_Tables_number       1
_space_group_crystal_system       monoclinic
_cell_length_a                    17.643262
_cell_length_b                    17.231997
_cell_length_c                    17.070509
_cell_angle_alpha                 89.999866
_cell_angle_beta                  90.0
_cell_angle_gamma                 90.0
_cell_volume                      5189.92359873

loop_
_atom_site_label
_atom_site_type_symbol
_atom_type_description
_atom_site_fract_x
_atom_site_fract_y
_atom_site_fract_z
_atom_type_partial_charge
C1    C     C_R   0.606159 0.302113 0.097077 -0.130728
C2    C     C_R   0.170449 0.077750 0.643008 -0.237373
C3    C     C_R   0.893841 0.197887 0.597078 -0.130732
C4    C     C_R   0.829551 0.922250 0.643008 -0.237373
C5    C     C_R   0.106159 0.197887 0.402922 -0.130732
C6    C     C_R   0.170450 0.922250 0.356992 -0.237377
C7    C     C_R   0.893841 0.802113 0.402921 -0.130735
C8    C     C_R   0.829550 0.077751 0.356992 -0.237379
C9    C     C_R   0.577030 0.663038 0.149569 0.615000
C10   C     C_R   0.305006 0.607060 0.102989 0.598458
C11   C     C_R   0.422970 0.336962 0.149569 0.615000
C12   C     C_R   0.670449 0.577750 0.143008 -0.237371
C13   C     C_R   0.694994 0.392940 0.102989 0.598458
C14   C     C_R   0.577030 0.336962 0.850430 0.615000
C15   C     C_R   0.305006 0.392940 0.897011 0.598455
C16   C     C_R   0.422970 0.663038 0.850430 0.615000
C17   C     C_R   0.694994 0.607060 0.897011 0.598458
C18   C     C_R   0.077030 0.163038 0.649569 0.614999
C19   C     C_R   0.805006 0.107060 0.602989 0.598457
C20   C     C_R   0.922970 0.836962 0.649570 0.614999
C21   C     C_R   0.194993 0.892940 0.602989 0.598457
C22   C     C_R   0.077030 0.836962 0.350430 0.615000
C23   C     C_R   0.393841 0.697887 0.097078 -0.130730
C24   C     C_R   0.805007 0.892939 0.397010 0.598463
C25   C     C_R   0.922970 0.163039 0.350430 0.615000
C26   C     C_R   0.194993 0.107060 0.397010 0.598461
C27   C     C_R   0.680377 0.314539 0.115736 -0.087356
C28   C     C_R   0.638630 0.632595 0.190519 -0.052480
C29   C     C_R   0.319623 0.685461 0.115737 -0.087354
C30   C     C_R   0.361370 0.367404 0.190519 -0.052479
C31   C     C_R   0.680377 0.685461 0.884263 -0.087355
C32   C     C_R   0.638630 0.367404 0.809481 -0.052479
C33   C     C_R   0.319622 0.314539 0.884263 -0.087356
C34   C     C_R   0.329551 0.422250 0.143008 -0.237373
C35   C     C_R   0.361371 0.632595 0.809481 -0.052481
C36   C     C_R   0.180377 0.814539 0.615737 -0.087355
C37   C     C_R   0.138630 0.132596 0.690519 -0.052480
C38   C     C_R   0.819623 0.185461 0.615737 -0.087354
C39   C     C_R   0.861370 0.867404 0.690519 -0.052479
C40   C     C_R   0.180377 0.185461 0.384262 -0.087354
C41   C     C_R   0.138630 0.867404 0.309481 -0.052478
C42   C     C_R   0.819623 0.814539 0.384261 -0.087351
C43   C     C_R   0.861370 0.132596 0.309481 -0.052477
C44   C     C_2   0.802298 0.751124 0.867707 -0.129831
C45   C     C_R   0.606159 0.697887 0.902922 -0.130730
C46   C     C_2   0.351747 0.715833 0.692361 -0.165911
C47   C     C_2   0.197702 0.248876 0.867708 -0.129830
C48   C     C_2   0.648253 0.284166 0.692361 -0.165910
C49   C     C_2   0.802298 0.248876 0.132292 -0.129830
C50   C     C_2   0.351747 0.284167 0.307639 -0.165909
C51   C     C_2   0.197702 0.751124 0.132293 -0.129831
C52   C     C_2   0.648254 0.715833 0.307639 -0.165908
C53   C     C_2   0.302297 0.251124 0.367707 -0.129832
C54   C     C_2   0.851746 0.215834 0.192361 -0.165911
C55   C     C_2   0.697703 0.748876 0.367706 -0.129832
C56   C     C_R   0.670449 0.422250 0.856992 -0.237374
C57   C     C_2   0.148254 0.784167 0.192361 -0.165910
C58   C     C_2   0.302298 0.748876 0.632292 -0.129830
C59   C     C_2   0.851747 0.784167 0.807639 -0.165910
C60   C     C_2   0.697703 0.251123 0.632293 -0.129831
C61   C     C_2   0.148254 0.215834 0.807639 -0.165912
C62   C     C_2   0.728557 0.745610 0.851799 -0.165760
C63   C     C_2   0.332019 0.651461 0.731334 -0.166784
C64   C     C_2   0.271443 0.254389 0.851800 -0.165766
C65   C     C_2   0.667981 0.348539 0.731335 -0.166785
C66   C     C_2   0.728557 0.254389 0.148199 -0.165765
C67   C     C_R   0.393840 0.302113 0.902922 -0.130728
C68   C     C_2   0.332019 0.348539 0.268665 -0.166785
C69   C     C_2   0.271443 0.745610 0.148201 -0.165761
C70   C     C_2   0.667981 0.651460 0.268665 -0.166785
C71   C     C_2   0.228557 0.245610 0.351799 -0.165756
C72   C     C_2   0.832018 0.151461 0.231335 -0.166786
C73   C     C_2   0.771443 0.754391 0.351797 -0.165752
C74   C     C_2   0.167982 0.848539 0.231335 -0.166785
C75   C     C_2   0.228557 0.754389 0.648201 -0.165762
C76   C     C_2   0.832019 0.848539 0.768665 -0.166786
C77   C     C_2   0.771443 0.245610 0.648202 -0.165760
C78   C     C_R   0.329551 0.577749 0.856991 -0.237369
C79   C     C_2   0.167981 0.151461 0.768665 -0.166784
C80   C     C_3   0.482128 0.660847 0.241047 -0.297320
C81   C     C_3   0.190431 0.573493 0.159535 -0.279938
C82   C     C_3   0.517872 0.339152 0.241047 -0.297321
C83   C     C_3   0.809570 0.426504 0.159535 -0.279956
C84   C     C_3   0.482128 0.339152 0.758953 -0.297320
C85   C     C_3   0.190429 0.426503 0.840466 -0.279944
C86   C     C_3   0.517872 0.660848 0.758953 -0.297320
C87   C     C_3   0.809568 0.573492 0.840464 -0.279930
C88   C     C_3   0.982128 0.160849 0.741047 -0.297320
C89   C     C_R   0.106159 0.802113 0.597078 -0.130730
C90   C     C_3   0.690432 0.073491 0.659536 -0.279933
C91   C     C_3   0.017872 0.839152 0.741047 -0.297318
C92   C     C_3   0.309569 0.926507 0.659536 -0.279938
C93   C     C_3   0.982128 0.839153 0.258953 -0.297320
C94   C     C_3   0.690435 0.926515 0.340462 -0.279935
C95   C     C_3   0.017872 0.160847 0.258953 -0.297321
C96   C     C_3   0.309567 0.073490 0.340462 -0.279941
H1    H     H_    0.579306 0.245946 0.091066 0.168988
H2    H     H_    0.216740 0.041203 0.658386 0.171055
H3    H     H_    0.920694 0.254054 0.591067 0.168990
H4    H     H_    0.783260 0.958797 0.658385 0.171053
H5    H     H_    0.079306 0.254054 0.408933 0.168989
H6    H     H_    0.216741 0.958795 0.341615 0.171056
H7    H     H_    0.920694 0.745946 0.408932 0.168990
H8    H     H_    0.783258 0.041206 0.341616 0.171054
H9    H     H_    0.515407 0.654054 0.295465 0.154522
H10   H     H_    0.466844 0.602038 0.219071 0.132866
H11   H     H_    0.428815 0.690704 0.257732 0.173239
H12   H     H_    0.716740 0.541203 0.158385 0.171056
H13   H     H_    0.138343 0.608471 0.151758 0.166937
H14   H     H_    0.220921 0.593193 0.213273 0.114046
H15   H     H_    0.170019 0.513521 0.169994 0.159859
H16   H     H_    0.484594 0.345945 0.295465 0.154522
H17   H     H_    0.533156 0.397961 0.219071 0.132866
H18   H     H_    0.571185 0.309296 0.257732 0.173239
H19   H     H_    0.861662 0.391534 0.151750 0.166943
H20   H     H_    0.779086 0.406790 0.213269 0.114059
H21   H     H_    0.829975 0.486476 0.170003 0.159853
H22   H     H_    0.515406 0.345945 0.704535 0.154522
H23   H     H_    0.420694 0.754054 0.091067 0.168989
H24   H     H_    0.466844 0.397961 0.780928 0.132866
H25   H     H_    0.428815 0.309295 0.742268 0.173239
H26   H     H_    0.138336 0.391535 0.848252 0.166941
H27   H     H_    0.220913 0.406787 0.786730 0.114058
H28   H     H_    0.170025 0.486476 0.829996 0.159851
H29   H     H_    0.484594 0.654056 0.704535 0.154522
H30   H     H_    0.533156 0.602039 0.780928 0.132865
H31   H     H_    0.571185 0.690705 0.742268 0.173239
H32   H     H_    0.861655 0.608473 0.848238 0.166934
H33   H     H_    0.779076 0.593188 0.786725 0.114041
H34   H     H_    0.283260 0.458797 0.158386 0.171054
H35   H     H_    0.829983 0.513520 0.830008 0.159861
H36   H     H_    0.015407 0.154056 0.795465 0.154522
H37   H     H_    0.966845 0.102039 0.719072 0.132866
H38   H     H_    0.928815 0.190705 0.757732 0.173239
H39   H     H_    0.638345 0.108473 0.651761 0.166935
H40   H     H_    0.720924 0.093188 0.713275 0.114042
H41   H     H_    0.670017 0.013520 0.669991 0.159862
H42   H     H_    0.984593 0.845945 0.795465 0.154521
H43   H     H_    0.033155 0.897961 0.719071 0.132865
H44   H     H_    0.071185 0.809296 0.757732 0.173239
H45   H     H_    0.579306 0.754054 0.908933 0.168989
H46   H     H_    0.361657 0.891529 0.651758 0.166937
H47   H     H_    0.279079 0.906805 0.713274 0.114047
H48   H     H_    0.329981 0.986479 0.669995 0.159859
H49   H     H_    0.015407 0.845946 0.204535 0.154522
H50   H     H_    0.966845 0.897962 0.280929 0.132866
H51   H     H_    0.928815 0.809297 0.242267 0.173240
H52   H     H_    0.638358 0.891517 0.348222 0.166929
H53   H     H_    0.720936 0.906845 0.286720 0.114026
H54   H     H_    0.670005 0.986484 0.330025 0.159879
H55   H     H_    0.984593 0.154054 0.204535 0.154522
H56   H     H_    0.716740 0.458797 0.841614 0.171054
H57   H     H_    0.033155 0.102038 0.280929 0.132866
H58   H     H_    0.071185 0.190703 0.242267 0.173240
H59   H     H_    0.361650 0.108476 0.348231 0.166934
H60   H     H_    0.279071 0.093178 0.286723 0.114039
H61   H     H_    0.329987 0.013520 0.330012 0.159867
H62   H     H_    0.827317 0.716570 0.914089 0.170625
H63   H     H_    0.397441 0.752858 0.712073 0.183210
H64   H     H_    0.172682 0.283430 0.914088 0.170624
H65   H     H_    0.602559 0.247142 0.712073 0.183210
H66   H     H_    0.827318 0.283430 0.085912 0.170625
H67   H     H_    0.420693 0.245946 0.908934 0.168989
H68   H     H_    0.397441 0.247143 0.287927 0.183209
H69   H     H_    0.172683 0.716571 0.085912 0.170625
H70   H     H_    0.602558 0.752856 0.287928 0.183209
H71   H     H_    0.327317 0.216570 0.414089 0.170626
H72   H     H_    0.897441 0.252858 0.212073 0.183210
H73   H     H_    0.672684 0.783428 0.414089 0.170626
H74   H     H_    0.102559 0.747143 0.212073 0.183210
H75   H     H_    0.327317 0.783430 0.585911 0.170625
H76   H     H_    0.897441 0.747142 0.787927 0.183210
H77   H     H_    0.672683 0.216571 0.585912 0.170625
H78   H     H_    0.283261 0.541202 0.841614 0.171054
H79   H     H_    0.102560 0.252858 0.787926 0.183211
H80   H     H_    0.703114 0.780146 0.805479 0.143728
H81   H     H_    0.285289 0.616321 0.709723 0.136868
H82   H     H_    0.296886 0.219853 0.805481 0.143729
H83   H     H_    0.714712 0.383678 0.709724 0.136868
H84   H     H_    0.703114 0.219852 0.194518 0.143729
H85   H     H_    0.285289 0.383678 0.290276 0.136868
H86   H     H_    0.296886 0.780145 0.194522 0.143728
H87   H     H_    0.714712 0.616322 0.290276 0.136868
H88   H     H_    0.203114 0.280146 0.305478 0.143728
H89   H     H_    0.079306 0.745946 0.591067 0.168989
H90   H     H_    0.785288 0.116322 0.209724 0.136868
H91   H     H_    0.796886 0.719857 0.305475 0.143727
H92   H     H_    0.214712 0.883678 0.209724 0.136868
H93   H     H_    0.203114 0.719853 0.694521 0.143729
H94   H     H_    0.785289 0.883678 0.790276 0.136868
H95   H     H_    0.796886 0.280145 0.694522 0.143728
H96   H     H_    0.214711 0.116322 0.790276 0.136868
N1    N     N_R   0.574080 0.369570 0.076720 -0.081281
N2    N     N_R   0.130430 0.074080 0.576720 -0.061499
N3    N     N_R   0.925920 0.130430 0.576720 -0.081281
N4    N     N_R   0.869570 0.925920 0.576720 -0.061499
N5    N     N_R   0.074080 0.130430 0.423280 -0.081281
N6    N     N_R   0.130430 0.925920 0.423280 -0.061499
N7    N     N_R   0.925920 0.869570 0.423280 -0.081281
N8    N     N_R   0.869570 0.074080 0.423280 -0.061499
N9    N     N_R   0.574050 0.630410 0.076720 -0.110514
N10   N     N_R   0.369590 0.574050 0.076720 -0.102567
N11   N     N_R   0.425950 0.369590 0.076720 -0.110513
N12   N     N_R   0.630430 0.574080 0.076720 -0.061499
N13   N     N_R   0.630410 0.425950 0.076720 -0.102567
N14   N     N_R   0.574050 0.369590 0.923280 -0.110513
N15   N     N_R   0.369590 0.425950 0.923280 -0.102566
N16   N     N_R   0.425950 0.630410 0.923280 -0.110514
N17   N     N_R   0.630410 0.574050 0.923280 -0.102567
N18   N     N_R   0.074050 0.130410 0.576720 -0.110513
N19   N     N_R   0.869590 0.074050 0.576720 -0.102567
N20   N     N_R   0.925950 0.869590 0.576720 -0.110513
N21   N     N_R   0.130410 0.925950 0.576720 -0.102567
N22   N     N_R   0.074050 0.869590 0.423280 -0.110513
N23   N     N_R   0.425920 0.630430 0.076720 -0.081281
N24   N     N_R   0.869590 0.925950 0.423280 -0.102567
N25   N     N_R   0.925950 0.130410 0.423280 -0.110513
N26   N     N_R   0.130410 0.074050 0.423280 -0.102567
N27   N     N_R   0.369570 0.425920 0.076720 -0.061499
N28   N     N_R   0.574080 0.630430 0.923280 -0.081281
N29   N     N_R   0.630430 0.425920 0.923280 -0.061499
N30   N     N_R   0.425920 0.369570 0.923280 -0.081281
N31   N     N_R   0.369570 0.574080 0.923280 -0.061499
N32   N     N_R   0.074080 0.869570 0.576720 -0.081281
Ni1   Ni    Ni4+2 0.500000 0.370760 0.000000 0.193531
Ni2   Ni    Ni4+2 0.629240 0.500000 0.000000 0.265605
Ni3   Ni    Ni4+2 0.500000 0.629240 0.000000 0.193532
Ni4   Ni    Ni4+2 0.370760 0.500000 0.000000 0.265605
Ni5   Ni    Ni4+2 0.000000 0.870760 0.500000 0.193532
Ni6   Ni    Ni4+2 0.129240 0.000000 0.500000 0.265603
Ni7   Ni    Ni4+2 1.000000 0.129240 0.500000 0.193531
Ni8   Ni    Ni4+2 0.870760 0.000000 0.500000 0.265603
O1    O     O_3   0.519980 0.706372 0.183508 -0.646091
O2    O     O_3   0.734078 0.074909 0.589730 -0.603537
O3    O     O_3   0.980020 0.793628 0.683508 -0.646091
O4    O     O_3   0.265922 0.925091 0.589731 -0.603536
O5    O     O_3   0.019980 0.793628 0.316492 -0.646091
O6    O     O_3   0.734078 0.925089 0.410270 -0.603537
O7    O     O_3   0.980020 0.206372 0.316492 -0.646091
O8    O     O_3   0.265922 0.074909 0.410269 -0.603536
O9    O     O_3   0.234078 0.574909 0.089730 -0.603535
O10   O     O_3   0.480020 0.293627 0.183507 -0.646091
O11   O     O_3   0.765922 0.425092 0.089730 -0.603534
O12   O     O_3   0.519980 0.293627 0.816493 -0.646091
O13   O     O_3   0.234078 0.425091 0.910269 -0.603535
O14   O     O_3   0.480020 0.706372 0.816492 -0.646091
O15   O     O_3   0.765922 0.574909 0.910270 -0.603536
O16   O     O_3   0.019980 0.206373 0.683507 -0.646091

loop_
_geom_bond_atom_site_label_1
_geom_bond_atom_site_label_2
_ccdc_geom_bond_type
C36   C89   A    
C2    C37   A    
C85   O13   S    
C43   C72   S    
C60   H77   S    
C40   C71   S    
C91   O3    S    
C26   N26   A    
C44   H62   S    
N2    Ni6   S    
C25   N25   A    
C61   H79   S    
C8    C43   A    
C26   C40   A    
C25   C43   A    
C89   N32   A    
C88   O16   S    
C21   C36   A    
C23   N23   A    
N16   N31   A    
C37   C79   S    
C80   H11   S    
C90   O2    S    
C72   H90   S    
C12   C28   A    
C19   N19   A    
C23   C29   A    
C75   H93   S    
C18   C37   A    
C88   H37   S    
C17   N17   A    
N16   Ni3   S    
C23   H23   S    
C56   N29   A    
N21   N32   A    
C96   H59   S    
C86   H30   S    
C17   O15   S    
C44   C59   S    
C87   H35   S    
C49   C54   S    
C80   H10   S    
C24   C42   A    
C82   O10   S    
C85   H28   S    
N9    Ni3   S    
C7    C42   A    
C81   O9    S    
C92   H47   S    
C85   H27   S    
N26   Ni6   S    
C52   H70   S    
C41   C74   S    
C94   O6    S    
C12   N12   A    
N4    Ni8   S    
C3    C38   A    
C93   O5    S    
C6    C41   A    
N18   Ni7   S    
C93   H49   S    
C51   C57   S    
N10   N23   A    
C56   H56   S    
C92   H46   S    
C74   H92   S    
C52   C55   S    
C78   N31   A    
C22   O5    S    
C1    C27   A    
C20   N20   A    
C96   H61   S    
C86   O14   S    
C7    H7    S    
C46   C58   S    
C86   H29   S    
C45   H45   S    
N8    N25   A    
C96   O8    S    
C31   C62   S    
C10   O9    S    
C95   H57   S    
C71   H88   S    
C13   N13   A    
C87   H32   S    
C73   H91   S    
C53   H71   S    
C58   C75   D    
C48   C60   S    
C29   C69   S    
C47   H64   S    
N5    Ni7   S    
C94   H52   S    
C68   H85   S    
C5    H5    S    
C60   C77   D    
C50   C53   S    
N1    N13   A    
C49   C66   D    
C30   C34   A    
C50   H68   S    
N7    N24   A    
C77   H95   S    
C81   H15   S    
C93   H50   S    
C83   O11   S    
C52   C70   D    
C51   H69   S    
C11   C30   A    
N19   Ni8   S    
C1    H1    S    
C47   C64   D    
C6    N6    A    
C20   C39   A    
C34   N27   A    
C34   H34   S    
N10   Ni4   S    
C48   H65   S    
C65   H83   S    
N30   Ni1   S    
C44   C62   D    
C84   H25   S    
C9    O1    S    
C80   H9    S    
C92   O4    S    
C3    N3    A    
N8    Ni8   S    
N28   Ni3   S    
C94   H53   S    
C82   H16   S    
C57   C74   D    
C13   O11   S    
C67   N30   A    
C1    N1    A    
N3    N19   A    
C36   C75   S    
C18   O16   S    
C22   C41   A    
N2    N18   A    
C91   H42   S    
C8    H8    S    
C70   H87   S    
C4    C39   A    
C84   H24   S    
C20   O3    S    
C62   H80   S    
N14   Ni1   S    
N3    Ni7   S    
C85   H26   S    
C84   O12   S    
C95   O7    S    
C39   C76   S    
C10   N10   A    
N20   Ni5   S    
C82   H18   S    
C49   H66   S    
C9    N9    A    
C22   N22   A    
C91   H43   S    
C21   O4    S    
C81   H13   S    
C11   N11   A    
C79   H96   S    
C14   N14   A    
N13   Ni2   S    
C48   C65   D    
N9    N12   A    
C14   O12   S    
C8    N8    A    
C95   H55   S    
N17   Ni2   S    
C88   H36   S    
N12   Ni2   S    
C59   H76   S    
C53   C71   D    
C19   O2    S    
N11   Ni1   S    
C90   H41   S    
C24   O6    S    
C33   C67   A    
C12   H12   S    
C57   H74   S    
C55   H73   S    
C4    N4    A    
C80   O1    S    
C42   C73   S    
C18   N18   A    
C86   H31   S    
N31   Ni4   S    
N17   N28   A    
C89   H89   S    
C83   H20   S    
C28   C70   S    
C82   H17   S    
C54   H72   S    
C16   N16   A    
C15   O13   S    
C83   H19   S    
C47   C61   S    
C5    N5    A    
N6    Ni6   S    
C87   O15   S    
C38   C77   S    
C16   O14   S    
C94   H54   S    
C51   C69   D    
C69   H86   S    
C35   C78   A    
N27   Ni4   S    
C63   H81   S    
C26   O8    S    
N11   N27   A    
C46   C63   D    
C45   N28   A    
C95   H58   S    
C83   H21   S    
C55   C73   D    
C4    H4    S    
C58   H75   S    
N7    Ni5   S    
C88   H38   S    
C16   C35   A    
C27   C66   S    
N32   Ni5   S    
N25   Ni7   S    
C90   H39   S    
C24   N24   A    
C10   C29   A    
C87   H33   S    
C64   H82   S    
C96   H60   S    
C66   H84   S    
C61   C79   D    
C33   C64   S    
C17   C31   A    
C46   H63   S    
N29   Ni2   S    
N24   Ni8   S    
N23   Ni3   S    
C32   C56   A    
C90   H40   S    
C93   H51   S    
C21   N21   A    
C6    H6    S    
C7    N7    A    
C92   H48   S    
C30   C68   S    
C14   C32   A    
C76   H94   S    
N1    Ni1   S    
C91   H44   S    
N4    N20   A    
C67   H67   S    
C3    H3    S    
N15   Ni4   S    
C19   C38   A    
C54   C72   D    
C81   H14   S    
C2    H2    S    
N15   N30   A    
C84   H22   S    
C31   C45   A    
C5    C40   A    
C78   H78   S    
C11   O10   S    
C25   O7    S    
C13   C27   A    
C35   C63   S    
N14   N29   A    
C2    N2    A    
N22   Ni5   S    
C50   C68   D    
C59   C76   D    
C15   C33   A    
C15   N15   A    
N21   Ni6   S    
N5    N26   A    
C9    C28   A    
C32   C65   S    
N6    N22   A    
