data_mof_unit_31286.cif
_audit_creation_date              2012-12-10T17:39:17-0500
_audit_creation_method            fapswitch 2.2
_symmetry_space_group_name_H-M    P1
_symmetry_Int_Tables_number       1
_space_group_crystal_system       triclinic
_cell_length_a                    12.357218
_cell_length_b                    13.205405
_cell_length_c                    27.804527
_cell_angle_alpha                 77.298314
_cell_angle_beta                  101.462399
_cell_angle_gamma                 116.620846
_cell_volume                      3930.74914851

loop_
_atom_site_label
_atom_site_type_symbol
_atom_type_description
_atom_site_fract_x
_atom_site_fract_y
_atom_site_fract_z
_atom_type_partial_charge
C1    C     C_R   0.854861 0.286600 0.504349 0.771586
C2    C     C_R   0.108891 0.528723 0.727389 -0.108752
C3    C     C_R   0.000496 0.503895 0.745676 0.352603
C4    C     C_R   0.000643 0.502717 0.897786 -0.044642
C5    C     C_R   0.933203 0.401395 0.876645 -0.018656
C6    C     C_R   0.866509 0.300083 0.906375 -0.149038
C7    C     C_R   0.067872 0.604490 0.867580 -0.019823
C8    C     C_R   0.000516 0.502679 0.644910 -0.035243
C9    C     C_R   0.000554 0.500130 0.354643 -0.037598
C10   C     C_R   0.924744 0.400827 0.029115 0.041926
C11   C     C_R   0.077697 0.602366 0.021787 0.042152
C12   C     C_R   0.000205 0.500691 0.592277 0.788699
C13   C     C_R   0.001312 0.501388 0.050743 0.067905
C14   C     C_R   0.845565 0.304787 0.059014 -0.204334
C15   C     C_R   0.845093 0.306082 0.108789 -0.146511
C16   C     C_R   0.923171 0.403051 0.130809 -0.020713
C17   C     C_R   0.001466 0.500982 0.101950 -0.044230
C18   C     C_R   0.079877 0.598524 0.124424 -0.020635
C19   C     C_R   0.078698 0.596271 0.175051 0.532535
C20   C     C_R   0.924386 0.404629 0.181251 0.532576
C21   C     C_R   0.904126 0.506725 0.269615 -0.105020
C22   C     C_R   0.903848 0.507038 0.319711 -0.222136
C23   C     C_R   0.145031 0.713393 0.492840 0.803778
C24   C     C_R   0.097581 0.493222 0.338487 -0.216078
C25   C     C_R   0.097904 0.493540 0.288324 -0.108235
C26   C     C_R   0.001162 0.500139 0.253784 0.362223
C27   C     C_R   0.928992 0.399709 0.978516 0.042186
C28   C     C_R   0.000872 0.502265 0.949008 0.067650
C29   C     C_R   0.072986 0.604376 0.970094 0.041934
C30   C     C_R   0.864343 0.298981 0.956246 -0.205551
C31   C     C_R   0.134749 0.705369 0.888238 -0.147651
C32   C     C_R   0.157145 0.697928 0.045863 -0.204886
C33   C     C_R   0.157907 0.695846 0.096089 -0.147665
C34   C     C_R   0.000236 0.500151 0.407591 0.794676
C35   C     C_R   0.137352 0.705590 0.938386 -0.204835
C36   C     C_R   0.275329 0.022593 0.435048 -0.182209
C37   C     C_R   0.227960 0.834682 0.482983 -0.050369
C38   C     C_R   0.815028 0.084933 0.536835 -0.188551
C39   C     C_R   0.736183 0.970270 0.546993 -0.136625
C40   C     C_R   0.612898 0.932916 0.529954 -0.179117
C41   C     C_R   0.566091 0.009738 0.500362 0.079430
C42   C     C_R   0.649471 0.124144 0.485453 0.082642
C43   C     C_R   0.439543 0.976488 0.484545 0.074157
C44   C     C_R   0.399795 0.054213 0.450905 0.163331
C45   C     C_R   0.934939 0.403491 0.826080 0.528828
C46   C     C_R   0.484771 0.161467 0.432354 -0.232515
C47   C     C_R   0.607758 0.195189 0.448607 -0.190751
C48   C     C_R   0.350860 0.868304 0.501285 -0.247243
C49   C     C_R   0.189747 0.912959 0.450761 -0.189049
C50   C     C_R   0.772717 0.163592 0.507324 -0.097945
C51   C     C_R   0.349432 0.325941 0.576523 -0.298045
C52   C     C_R   0.760486 0.646602 0.433255 0.071505
C53   C     C_R   0.664667 0.679245 0.418495 -0.248819
C54   C     C_R   0.560678 0.624084 0.443170 -0.193298
C55   C     C_R   0.551556 0.535173 0.483103 0.001781
C56   C     C_R   0.065840 0.603253 0.817030 0.531679
C57   C     C_R   0.652836 0.505133 0.496945 0.290303
C58   C     C_R   0.446875 0.475156 0.510062 -0.036861
C59   C     C_R   0.447232 0.386572 0.549198 0.145843
C60   C     C_R   0.546111 0.358829 0.561946 -0.279747
C61   C     C_R   0.647119 0.417743 0.536788 -0.184856
C62   C     C_R   0.341573 0.498163 0.500365 -0.016283
C63   C     C_R   0.250390 0.353402 0.567192 0.299544
C64   C     C_R   0.892325 0.479662 0.713298 -0.101793
C65   C     C_R   0.892281 0.479167 0.663192 -0.230104
C66   C     C_R   0.109060 0.528844 0.677255 -0.220046
Cu1   Cu    Cu3+1 0.098270 0.475420 0.511360 0.928463
Cu2   Cu    Cu3+1 0.901730 0.524580 0.488640 0.925407
H1    H     H_    0.194200 0.550825 0.663665 0.150525
H2    H     H_    0.808306 0.461165 0.727026 0.142936
H3    H     H_    0.185807 0.785201 0.865657 0.185908
H4    H     H_    0.222195 0.775522 0.027221 0.139726
H5    H     H_    0.173485 0.488139 0.364508 0.155934
H6    H     H_    0.220367 0.771408 0.112649 0.186185
H7    H     H_    0.173116 0.488352 0.276244 0.137442
H8    H     H_    0.189041 0.787638 0.950839 0.140226
H9    H     H_    0.094797 0.888010 0.436147 0.150565
H10   H     H_    0.456118 0.219630 0.404936 0.148248
H11   H     H_    0.244619 0.081602 0.409326 0.138835
H12   H     H_    0.193014 0.548029 0.752070 0.144638
H13   H     H_    0.374753 0.807248 0.528236 0.147964
H14   H     H_    0.908967 0.112415 0.553192 0.146256
H15   H     H_    0.557532 0.842832 0.539740 0.129793
H16   H     H_    0.770217 0.910307 0.569555 0.146459
H17   H     H_    0.669448 0.276574 0.430683 0.177184
H18   H     H_    0.546314 0.291441 0.592369 0.154827
H19   H     H_    0.350797 0.257112 0.605994 0.142359
H20   H     H_    0.333937 0.563487 0.470747 0.131410
H21   H     H_    0.840717 0.690013 0.413853 0.127999
H22   H     H_    0.815279 0.220585 0.891198 0.186035
H23   H     H_    0.489034 0.652401 0.430350 0.139757
H24   H     H_    0.671068 0.747546 0.387819 0.153892
H25   H     H_    0.719137 0.391989 0.550262 0.204564
H26   H     H_    0.827761 0.512180 0.331064 0.157917
H27   H     H_    0.829177 0.511983 0.243010 0.138993
H28   H     H_    0.782760 0.230214 0.129998 0.186456
H29   H     H_    0.780473 0.227420 0.044923 0.139838
H30   H     H_    0.812758 0.216652 0.976532 0.140270
H31   H     H_    0.807500 0.459248 0.638910 0.152463
N1    N     N_R   0.000347 0.503571 0.797353 -0.465898
N2    N     N_R   0.001501 0.500311 0.202246 -0.468397
N3    N     N_R   0.246290 0.438210 0.528570 -0.190252
N4    N     N_R   0.754320 0.561170 0.471730 -0.208564
O1    O     O_R   0.972510 0.318140 0.514280 -0.596388
O2    O     O_2   0.849745 0.311126 0.209205 -0.540789
O3    O     O_2   0.128072 0.701078 0.787676 -0.545608
O4    O     O_2   0.153356 0.689443 0.196874 -0.540587
O5    O     O_R   0.806530 0.359640 0.495100 -0.603019
O6    O     O_R   0.082990 0.479270 0.579320 -0.589784
O7    O     O_R   0.917010 0.520770 0.560140 -0.593856
O8    O     O_R   0.193470 0.640360 0.504900 -0.586261
O9    O     O_R   0.027490 0.681860 0.485720 -0.583666
O10   O     O_R   0.082990 0.479230 0.439860 -0.581359
O11   O     O_R   0.917010 0.520730 0.420680 -0.594653
O12   O     O_2   0.872590 0.306082 0.805863 -0.548212
C67   C     C_3   0.152114 0.283978 0.601492 -0.384073
C68   C     C_3   0.198418 0.308982 0.655054 -0.390672
C69   C     C_3   0.095769 0.248882 0.688258 -0.790475
H32   H     H_    0.021861 0.277473 0.673979 0.257706
H33   H     H_    0.057682 0.154578 0.689764 0.253954
H34   H     H_    0.131748 0.269973 0.726426 0.251669
H35   H     H_    0.270889 0.279161 0.670860 0.218120
H36   H     H_    0.238249 0.402634 0.655390 0.229737
H37   H     H_    0.069691 0.297603 0.590152 0.253900
H38   H     H_    0.123202 0.191365 0.601001 0.162938

loop_
_geom_bond_atom_site_label_1
_geom_bond_atom_site_label_2
_ccdc_geom_bond_type
C10   C27   A    
C58   C62   A    
C21   C26   A    
C52   N4    A    
C8    C66   A    
C22   H26   S    
C41   C42   A    
Cu1   O10   S    
Cu2   N4    S    
C68   H35   S    
C12   O7    A    
C32   H4    S    
C53   C54   A    
C48   H13   S    
C34   O10   A    
C23   O9    A    
C47   H17   S    
C28   C29   A    
C39   H16   S    
C4    C7    A    
C26   N2    S    
C5    C6    A    
C61   H25   S    
C9    C22   A    
C66   H1    S    
C15   C16   A    
C11   C13   A    
C67   C68   S    
C18   C19   A    
Cu2   O9    S    
C69   H32   S    
C46   C47   A    
C3    N1    S    
Cu1   O6    S    
C16   C17   A    
C64   H2    S    
C43   C48   A    
C16   C20   A    
C31   H3    S    
C68   H36   S    
C59   C60   A    
C21   C22   A    
C38   H14   S    
C27   C30   A    
C41   C43   A    
C40   H15   S    
C52   H21   S    
C7    C56   A    
C45   N1    A    
C63   N3    A    
C12   O6    A    
C4    C28   A    
C44   C46   A    
Cu1   O1    S    
C57   N4    A    
C35   H8    S    
C7    C31   A    
Cu1   Cu2   S    
C51   C63   A    
C24   C25   A    
C65   H31   S    
C10   C14   A    
C51   H19   S    
C15   H28   S    
C46   H10   S    
C60   H18   S    
C20   N2    A    
C21   H27   S    
C25   C26   A    
C23   C37   S    
C62   H20   S    
C10   C13   A    
C60   C61   A    
C25   H7    S    
C69   H34   S    
C43   C44   A    
C37   C49   A    
C45   O12   S    
C8    C12   S    
C53   H24   S    
C17   C18   A    
Cu2   O7    S    
C37   C48   A    
C1    O1    A    
C56   O3    S    
C42   C50   A    
C63   C67   S    
Cu1   O8    S    
C40   C41   A    
C6    C30   A    
C11   C32   A    
C67   H38   S    
C55   C57   A    
C9    C34   S    
C31   C35   A    
C36   C44   A    
C51   C59   A    
C56   N1    A    
C39   C40   A    
C52   C53   A    
C14   H29   S    
C20   O2    S    
C1    C50   S    
C30   H30   S    
C54   C55   A    
C67   H37   S    
C4    C5    A    
C2    C66   A    
C36   H11   S    
C9    C24   A    
C57   C61   A    
C38   C50   A    
C34   O11   A    
C23   O8    A    
C29   C35   A    
C13   C17   A    
C64   C65   A    
C2    C3    A    
C58   C59   A    
C54   H23   S    
C6    H22   S    
C68   C69   S    
C32   C33   A    
C19   N2    A    
C38   C39   A    
C5    C45   A    
C49   H9    S    
C42   C47   A    
C3    C64   A    
C24   H5    S    
C18   C33   A    
C69   H33   S    
C2    H12   S    
C1    O5    A    
C33   H6    S    
C8    C65   A    
C11   C29   A    
C55   C58   A    
C27   C28   A    
C14   C15   A    
Cu2   O5    S    
C36   C49   A    
Cu1   N3    S    
Cu2   O11   S    
C62   N3    A    
C19   O4    S    
