data_mof_unit_27384.cif
_audit_creation_date              2012-12-11T14:30:46-0500
_audit_creation_method            fapswitch 2.2
_symmetry_space_group_name_H-M    P1
_symmetry_Int_Tables_number       1
_space_group_crystal_system       triclinic
_cell_length_a                    17.433758
_cell_length_b                    24.516059
_cell_length_c                    14.919095
_cell_angle_alpha                 89.881769
_cell_angle_beta                  125.137139
_cell_angle_gamma                 90.132574
_cell_volume                      5214.55934891

loop_
_atom_site_label
_atom_site_type_symbol
_atom_type_description
_atom_site_fract_x
_atom_site_fract_y
_atom_site_fract_z
_atom_type_partial_charge
C1    C     C_R   0.829231 0.644724 0.909891 0.128518
C2    C     C_R   0.959373 0.496486 0.646295 0.153782
C3    C     C_3   0.816257 0.202310 0.382843 -0.961242
C4    C     C_3   0.987858 0.673072 0.201000 -0.442996
C5    C     C_3   0.013000 0.731191 0.187972 -0.222101
C6    C     C_3   0.076123 0.759017 0.299204 -0.965201
C7    C     C_3   0.036438 0.662811 0.795782 -0.435826
C8    C     C_3   0.034694 0.725736 0.796606 -0.243850
C9    C     C_3   0.973111 0.748735 0.680381 -0.960573
C10   C     C_3   0.478587 0.168575 0.202365 -0.428323
C11   C     C_3   0.490934 0.229955 0.192606 -0.235196
C12   C     C_3   0.555708 0.255989 0.305478 -0.962051
C13   C     C_R   0.537253 0.997488 0.351803 0.157128
C14   C     C_3   0.512157 0.174099 0.799906 -0.437717
C15   C     C_3   0.488392 0.232090 0.815356 -0.221353
C16   C     C_3   0.426706 0.261634 0.705706 -0.969229
C17   C     C_3   0.384751 0.465039 0.643582 -0.447596
C18   C     C_3   0.307528 0.422226 0.580025 -0.246599
C19   C     C_3   0.267270 0.404754 0.643352 -0.931102
C20   C     C_3   0.570361 0.544194 0.453007 -0.443238
C21   C     C_3   0.638480 0.508483 0.446116 -0.244514
C22   C     C_3   0.680983 0.541129 0.397360 -0.915736
C23   C     C_3   0.936535 0.043277 0.616189 -0.448322
C24   C     C_R   0.550931 0.998711 0.728006 0.152032
C25   C     C_3   0.871241 0.006084 0.626120 -0.249868
C26   C     C_3   0.840234 0.034033 0.691669 -0.912803
C27   C     C_3   0.066358 0.967680 0.361458 -0.446900
C28   C     C_3   0.142878 0.924161 0.408152 -0.239242
C29   C     C_3   0.166667 0.910627 0.326980 -0.944189
C30   C     C_R   0.673691 0.497382 0.701900 0.038462
C31   C     C_R   0.293953 0.499263 0.371119 0.028315
C32   C     C_R   0.196638 0.999871 0.635143 0.024324
C33   C     C_R   0.809019 0.997458 0.357336 0.033500
C34   C     C_3   0.505189 0.447355 0.582619 -0.007093
C35   C     C_3   0.462223 0.466672 0.465581 -0.004328
C36   C     C_3   0.034210 0.968232 0.580639 -0.006392
C37   C     C_R   0.184656 0.634242 0.090598 0.120850
C38   C     C_3   0.976203 0.948337 0.462142 -0.012340
C39   C     C_3   0.433107 0.480434 0.587815 0.150337
C40   C     C_3   0.526948 0.516171 0.505746 0.153050
C41   C     C_3   0.969827 0.017444 0.550978 0.147684
C42   C     C_3   0.036535 0.981612 0.437348 0.145279
C43   C     C_3   0.389282 0.499477 0.469608 0.102829
C44   C     C_3   0.572020 0.496620 0.624040 0.089826
C45   C     C_3   0.910504 0.997187 0.432351 0.097123
C46   C     C_3   0.095702 0.001107 0.556433 0.108271
C47   C     C_3   0.454841 0.549633 0.511330 -0.256633
C48   C     C_R   0.319133 0.137441 0.910712 0.121581
C49   C     C_3   0.500925 0.530429 0.631154 -0.247095
C50   C     C_3   0.970552 0.031280 0.406518 -0.234785
C51   C     C_3   0.031413 0.051134 0.527003 -0.260870
C52   C     C_2   0.266175 0.685222 0.929826 -0.111356
C53   C     C_2   0.757204 0.695396 0.076530 -0.102699
C54   C     C_2   0.745263 0.194329 0.922952 -0.105164
C55   C     C_2   0.247170 0.190666 0.077124 -0.104880
C56   C     C_2   0.238557 0.690947 0.996557 -0.232119
C57   C     C_2   0.783194 0.704638 0.008933 -0.217940
C58   C     C_2   0.717862 0.203910 0.988962 -0.224747
C59   C     C_R   0.675669 0.141669 0.089610 0.122353
C60   C     C_2   0.273293 0.197411 0.009203 -0.231286
C61   C     C_2   0.804320 0.234291 0.917081 -0.123280
C62   C     C_2   0.191735 0.233299 0.082751 -0.124794
C63   C     C_2   0.317596 0.730189 0.922036 -0.131111
C64   C     C_2   0.698937 0.735358 0.083188 -0.125021
C65   C     C_R   0.947438 0.350174 0.094014 -0.163325
C66   C     C_R   0.053942 0.350814 0.905776 -0.150774
C67   C     C_R   0.447106 0.850659 0.094856 -0.153272
C68   C     C_R   0.553508 0.850497 0.906282 -0.175083
C69   C     C_2   0.870072 0.260797 0.008152 -0.198700
C70   C     C_R   0.889426 0.318050 0.004311 0.144973
C71   C     C_2   0.129204 0.261183 0.991839 -0.198106
C72   C     C_2   0.377321 0.759843 0.011464 -0.195749
C73   C     C_2   0.633035 0.761895 0.992413 -0.198003
C74   C     C_2   0.878994 0.454579 0.358420 0.079590
C75   C     C_2   0.881134 0.457829 0.458639 0.035632
C76   C     C_2   0.615795 0.959167 0.538540 0.075772
C77   C     C_2   0.622515 0.955936 0.641978 0.043083
C78   C     C_2   0.898539 0.499327 0.322897 -0.249443
C79   C     C_2   0.940274 0.493982 0.538091 -0.262243
C80   C     C_2   0.557116 0.995730 0.460529 -0.247806
C81   C     C_R   0.112931 0.318885 0.995818 0.137568
C82   C     C_2   0.601949 0.000374 0.677418 -0.267911
C83   C     C_R   0.979226 0.544367 0.247552 -0.174858
C84   C     C_R   0.960715 0.543341 0.698986 -0.169838
C85   C     C_R   0.534938 0.044156 0.297875 -0.167407
C86   C     C_R   0.520999 0.044729 0.752807 -0.163511
C87   C     C_R   0.732536 0.453465 0.734968 0.040567
C88   C     C_R   0.251194 0.455347 0.304274 0.053804
C89   C     C_R   0.243991 0.955650 0.699233 0.055345
C90   C     C_R   0.757271 0.953598 0.296866 0.051591
C91   C     C_R   0.984218 0.453890 0.249806 -0.113249
C92   C     C_R   0.389627 0.818139 0.005481 0.137352
C93   C     C_R   0.968476 0.453062 0.708703 -0.131310
C94   C     C_R   0.531224 0.953547 0.291771 -0.113147
C95   C     C_R   0.515468 0.954223 0.749700 -0.124680
C96   C     C_R   0.727775 0.544053 0.735638 -0.181300
C97   C     C_R   0.248192 0.544405 0.310220 -0.196264
C98   C     C_R   0.247067 0.044748 0.692630 -0.195850
C99   C     C_R   0.758624 0.043551 0.304502 -0.195902
C100  C     C_R   0.859083 0.349099 0.912746 -0.122904
C101  C     C_R   0.144083 0.349933 0.087671 -0.116935
C102  C     C_R   0.357846 0.849206 0.913153 -0.118545
C103  C     C_R   0.613462 0.818950 0.996316 0.145382
C104  C     C_R   0.644499 0.850087 0.087985 -0.118952
C105  C     C_R   0.924662 0.644692 0.091831 0.116355
C106  C     C_R   0.087733 0.637296 0.908299 0.118913
C107  C     C_R   0.418889 0.140661 0.092750 0.119687
C108  C     C_R   0.575333 0.144980 0.908254 0.110925
C109  C     C_R   0.843565 0.666391 0.003686 0.032205
C110  C     C_R   0.174926 0.653077 0.997275 0.049115
C111  C     C_R   0.333429 0.158627 0.005078 0.041454
C112  C     C_R   0.658312 0.165390 0.995570 0.037442
C113  C     C_3   0.768729 0.674212 0.800889 -0.448487
C114  C     C_R   0.949397 0.498180 0.272261 0.161332
C115  C     C_3   0.802255 0.670219 0.726746 -0.256442
C116  C     C_3   0.727669 0.690897 0.611448 -0.963245
C117  C     C_3   0.267213 0.650132 0.204543 -0.442232
C118  C     C_3   0.237967 0.688321 0.260566 -0.243110
C119  C     C_3   0.321847 0.706846 0.372809 -0.959991
C120  C     C_3   0.234573 0.152551 0.797672 -0.441652
C121  C     C_3   0.260957 0.188190 0.735187 -0.246857
C122  C     C_3   0.175146 0.203972 0.621967 -0.957979
C123  C     C_3   0.758864 0.157440 0.202614 -0.431880
C124  C     C_3   0.730238 0.185185 0.270737 -0.249033
H1    H     H_    0.434239 0.592177 0.482393 0.130678
H2    H     H_    0.757753 0.739810 0.954942 0.133155
H3    H     H_    0.048480 0.729926 0.145723 0.180780
H4    H     H_    0.948761 0.756297 0.137178 0.206875
H5    H     H_    0.952049 0.675422 0.242893 0.184160
H6    H     H_    0.053253 0.649188 0.253368 0.178853
H7    H     H_    0.000701 0.736117 0.632507 0.263070
H8    H     H_    0.899833 0.734193 0.637970 0.271979
H9    H     H_    0.973220 0.793993 0.683685 0.251643
H10   H     H_    0.008390 0.740223 0.844798 0.185243
H11   H     H_    0.105456 0.743116 0.834147 0.220047
H12   H     H_    0.067889 0.648518 0.753083 0.184836
H13   H     H_    0.741474 0.239671 0.041379 0.138543
H14   H     H_    0.963408 0.649615 0.750145 0.182196
H15   H     H_    0.524335 0.252635 0.352328 0.264141
H16   H     H_    0.625175 0.235685 0.352294 0.266408
H17   H     H_    0.565788 0.299837 0.296064 0.252217
H18   H     H_    0.520810 0.236186 0.144623 0.182372
H19   H     H_    0.422816 0.251529 0.150060 0.214294
H20   H     H_    0.448001 0.161883 0.249395 0.182983
H21   H     H_    0.549082 0.150732 0.246841 0.177012
H22   H     H_    0.465741 0.267770 0.668272 0.261446
H23   H     H_    0.362166 0.237833 0.648282 0.270424
H24   H     H_    0.250928 0.232532 0.955175 0.141191
H25   H     H_    0.406450 0.302162 0.718789 0.257761
H26   H     H_    0.452451 0.230244 0.857059 0.179579
H27   H     H_    0.553324 0.256513 0.867812 0.205742
H28   H     H_    0.547842 0.176844 0.757867 0.184363
H29   H     H_    0.446469 0.150494 0.747033 0.177427
H30   H     H_    0.323084 0.386946 0.723813 0.259221
H31   H     H_    0.235660 0.440288 0.656889 0.265995
H32   H     H_    0.211948 0.373475 0.595648 0.250675
H33   H     H_    0.249661 0.439744 0.500532 0.209731
H34   H     H_    0.335765 0.385689 0.564594 0.200641
H35   H     H_    0.781300 0.248193 0.836181 0.119077
H36   H     H_    0.438987 0.449650 0.727220 0.191920
H37   H     H_    0.353563 0.502509 0.651910 0.192561
H38   H     H_    0.624991 0.560503 0.318844 0.259917
H39   H     H_    0.728648 0.573236 0.455703 0.261275
H40   H     H_    0.721277 0.513808 0.379960 0.259145
H41   H     H_    0.695720 0.493913 0.528913 0.206967
H42   H     H_    0.601098 0.472670 0.393021 0.189068
H43   H     H_    0.512387 0.557300 0.369042 0.187781
H44   H     H_    0.607506 0.581347 0.501126 0.196974
H45   H     H_    0.902212 0.046749 0.773348 0.260866
H46   H     H_    0.215089 0.247316 0.163611 0.119874
H47   H     H_    0.796760 0.070401 0.646798 0.259141
H48   H     H_    0.798104 0.005371 0.704462 0.254947
H49   H     H_    0.808149 0.996044 0.543299 0.210788
H50   H     H_    0.907832 0.967646 0.668345 0.189056
H51   H     H_    0.999236 0.053652 0.699222 0.190800
H52   H     H_    0.899186 0.081788 0.574584 0.192376
H53   H     H_    0.103372 0.895765 0.248513 0.261950
H54   H     H_    0.194267 0.947359 0.310633 0.266635
H55   H     H_    0.221184 0.878338 0.361860 0.251225
H56   H     H_    0.207570 0.939669 0.484067 0.210308
H57   H     H_    0.292805 0.744164 0.840572 0.121623
H58   H     H_    0.119372 0.886434 0.427048 0.199647
H59   H     H_    0.003334 0.953650 0.281767 0.193065
H60   H     H_    0.092465 0.005579 0.346391 0.193485
H61   H     H_    0.722463 0.749108 0.164275 0.119733
H62   H     H_    0.894895 0.244130 0.088175 0.133092
H63   H     H_    0.102851 0.244290 0.911613 0.132823
H64   H     H_    0.405173 0.743260 0.092408 0.133779
H65   H     H_    0.518620 0.557176 0.700602 0.134636
H66   H     H_    0.607289 0.745229 0.912192 0.134000
H67   H     H_    0.892527 0.539336 0.349563 0.119534
H68   H     H_    0.980606 0.522925 0.525868 0.132309
H69   H     H_    0.518444 0.025226 0.473893 0.124494
H70   H     H_    0.605222 0.040462 0.648606 0.127311
H71   H     H_    0.993854 0.335898 0.177603 0.087048
H72   H     H_    0.007686 0.336645 0.822148 0.087109
H73   H     H_    0.493946 0.836815 0.178694 0.087196
H74   H     H_    0.506940 0.835955 0.822954 0.090124
H75   H     H_    0.963866 0.584611 0.259358 0.100825
H76   H     H_    0.942955 0.057851 0.333715 0.131343
H77   H     H_    0.936013 0.581669 0.657159 0.099341
H78   H     H_    0.553754 0.083629 0.335571 0.097211
H79   H     H_    0.536249 0.085214 0.741345 0.099087
H80   H     H_    0.977696 0.411307 0.261751 0.107360
H81   H     H_    0.962573 0.410267 0.689265 0.089489
H82   H     H_    0.539317 0.910928 0.313998 0.096241
H83   H     H_    0.521062 0.911753 0.736580 0.091979
H84   H     H_    0.699697 0.583831 0.709550 0.141429
H85   H     H_    0.254167 0.584070 0.344649 0.129619
H86   H     H_    0.238542 0.084319 0.656808 0.133152
H87   H     H_    0.053953 0.093868 0.552836 0.135544
H88   H     H_    0.772864 0.082411 0.343812 0.137128
H89   H     H_    0.830382 0.332788 0.832362 0.077190
H90   H     H_    0.177460 0.334118 0.169227 0.078087
H91   H     H_    0.326539 0.832920 0.832274 0.078757
H92   H     H_    0.678403 0.834511 0.169749 0.077142
H93   H     H_    0.660557 0.668786 0.576423 0.259613
H94   H     H_    0.715578 0.735208 0.613538 0.265379
H95   H     H_    0.751341 0.684205 0.557368 0.249617
H96   H     H_    0.864476 0.696779 0.762604 0.209219
H97   H     H_    0.821755 0.628010 0.721664 0.204430
H98   H     H_    0.240453 0.651752 0.871774 0.131228
H99   H     H_    0.694204 0.662420 0.759799 0.184196
H100  H     H_    0.769615 0.718516 0.816991 0.178082
H101  H     H_    0.351552 0.671977 0.430510 0.254052
H102  H     H_    0.376918 0.724991 0.366302 0.264049
H103  H     H_    0.299122 0.738212 0.406440 0.254428
H104  H     H_    0.204542 0.725094 0.208477 0.200476
H105  H     H_    0.186847 0.667522 0.270145 0.202585
H106  H     H_    0.308157 0.614611 0.253377 0.191730
H107  H     H_    0.320066 0.672503 0.199729 0.185832
H108  H     H_    0.144857 0.167569 0.568444 0.255160
H109  H     H_    0.784967 0.661095 0.132955 0.122806
H110  H     H_    0.121033 0.223387 0.628533 0.264893
H111  H     H_    0.195978 0.233555 0.583158 0.253327
H112  H     H_    0.294240 0.226235 0.782550 0.202952
H113  H     H_    0.311428 0.166403 0.726039 0.201890
H114  H     H_    0.191758 0.116667 0.752879 0.191039
H115  H     H_    0.184622 0.176737 0.804758 0.184952
H116  H     H_    0.861010 0.166431 0.428302 0.260348
H117  H     H_    0.858244 0.232776 0.373106 0.263272
H118  H     H_    0.793671 0.221024 0.431777 0.249190
H119  H     H_    0.687893 0.222033 0.226782 0.202508
H120  H     H_    0.718363 0.159658 0.867555 0.124235
H121  H     H_    0.687229 0.157119 0.282456 0.193359
H122  H     H_    0.806483 0.122572 0.243052 0.185761
H123  H     H_    0.803471 0.187111 0.195965 0.185683
H124  H     H_    0.467434 0.367291 0.562909 0.105739
H125  H     H_    0.539754 0.387410 0.694246 0.108517
H126  H     H_    0.506151 0.409561 0.405483 0.104627
H127  H     H_    0.428941 0.455023 0.311849 0.110727
H128  H     H_    0.010145 0.910330 0.660015 0.098958
H129  H     H_    0.090217 0.957761 0.742713 0.113439
H130  H     H_    0.013616 0.868414 0.482247 0.106102
H131  H     H_    0.273988 0.157048 0.135106 0.127257
H132  H     H_    0.931758 0.886598 0.352377 0.104023
H133  H     H_    0.912552 0.375133 0.365021 0.093086
H134  H     H_    0.796866 0.389029 0.278987 0.113626
H135  H     H_    0.801054 0.436026 0.513451 0.118063
H136  H     H_    0.868887 0.385215 0.515237 0.092059
H137  H     H_    0.736725 0.921618 0.585265 0.111137
H138  H     H_    0.640973 0.881421 0.517491 0.096466
H139  H     H_    0.591754 0.878443 0.659294 0.091673
H140  H     H_    0.671809 0.910095 0.781077 0.119151
H141  H     H_    0.698007 0.374397 0.721816 0.109770
H142  H     H_    0.258921 0.726363 0.049352 0.142414
H143  H     H_    0.764136 0.389834 0.675441 0.084277
H144  H     H_    0.290975 0.377384 0.314612 0.106718
H145  H     H_    0.192130 0.385832 0.310459 0.088547
H146  H     H_    0.205567 0.878127 0.698187 0.109131
H147  H     H_    0.293991 0.885377 0.681928 0.088505
H148  H     H_    0.782805 0.873056 0.322404 0.095612
H149  H     H_    0.688095 0.893396 0.316133 0.097124
H150  H     H_    0.036713 0.766304 0.335781 0.261517
H151  H     H_    0.138363 0.733530 0.356251 0.268798
H152  H     H_    0.100314 0.798756 0.288575 0.262922
N1    N     N_R   0.892320 0.603520 0.941090 -0.066540
N2    N     N_R   0.973240 0.529450 0.794410 -0.043237
N3    N     N_R   0.526760 0.029450 0.205590 -0.040921
N4    N     N_R   0.473240 0.029450 0.794410 -0.040836
N5    N     N_R   0.819350 0.473090 0.793940 -0.054338
N6    N     N_R   0.180650 0.473090 0.206060 -0.053060
N7    N     N_R   0.319350 0.973090 0.793940 -0.052898
N8    N     N_R   0.680650 0.973090 0.206060 -0.053236
N9    N     N_R   0.027860 0.473090 0.206590 -0.049050
N10   N     N_R   0.972140 0.473090 0.793410 -0.042675
N11   N     N_R   0.527860 0.973090 0.206590 -0.046648
N12   N     N_R   0.107680 0.603520 0.058910 -0.070326
N13   N     N_R   0.472140 0.973090 0.793410 -0.044749
N14   N     N_R   0.818250 0.529450 0.792940 -0.047246
N15   N     N_R   0.181750 0.529450 0.207060 -0.041197
N16   N     N_R   0.318250 0.029450 0.792940 -0.041139
N17   N     N_R   0.681750 0.029450 0.207060 -0.039822
N18   N     N_R   0.896320 0.399020 0.944720 -0.041386
N19   N     N_R   0.103680 0.399020 0.055280 -0.044125
N20   N     N_R   0.396320 0.899020 0.944720 -0.043619
N21   N     N_R   0.603680 0.899020 0.055280 -0.043842
N22   N     N_R   0.949790 0.603520 0.054810 -0.071325
N23   N     N_R   0.392320 0.103520 0.941090 -0.069904
N24   N     N_R   0.050210 0.603520 0.945190 -0.079382
N25   N     N_R   0.449790 0.103520 0.054810 -0.077216
N26   N     N_R   0.550210 0.103520 0.945190 -0.072721
N27   N     N_3   0.527039 0.390591 0.616905 -0.220054
N28   N     N_3   0.444226 0.430631 0.377746 -0.221196
N29   N     N_3   0.067314 0.932854 0.674920 -0.220400
N30   N     N_3   0.952288 0.891191 0.432994 -0.220090
N31   N     N_3   0.863764 0.402739 0.306117 -0.213059
N32   N     N_3   0.826555 0.418693 0.471570 -0.221324
N33   N     N_3   0.666222 0.920361 0.518961 -0.214173
N34   N     N_R   0.607680 0.103520 0.058910 -0.068484
N35   N     N_3   0.649399 0.904786 0.699866 -0.221955
N36   N     N_3   0.708127 0.402837 0.677575 -0.219777
N37   N     N_3   0.259431 0.400938 0.343040 -0.234975
N38   N     N_3   0.229585 0.900965 0.659976 -0.235723
N39   N     N_3   0.757255 0.903683 0.346643 -0.216569
N40   N     N_R   0.953790 0.399020 0.058440 -0.037716
N41   N     N_R   0.046210 0.399020 0.941560 -0.038305
N42   N     N_R   0.453790 0.899020 0.058440 -0.039794
N43   N     N_R   0.546210 0.899020 0.941560 -0.037155
N44   N     N_R   0.026760 0.529450 0.205590 -0.040052
Ni1   Ni    Ni4+2 0.934100 0.565890 0.869590 0.190270
Ni2   Ni    Ni4+2 0.065900 0.565890 0.130410 0.192930
Ni3   Ni    Ni4+2 0.434100 0.065890 0.869590 0.192407
Ni4   Ni    Ni4+2 0.565900 0.065890 0.130410 0.191558
Ni5   Ni    Ni4+2 0.068420 0.436630 0.132700 0.195763
Ni6   Ni    Ni4+2 0.931580 0.436630 0.867300 0.193730
Ni7   Ni    Ni4+2 0.568420 0.936630 0.132700 0.195818
Ni8   Ni    Ni4+2 0.431580 0.936630 0.867300 0.195567

loop_
_geom_bond_atom_site_label_1
_geom_bond_atom_site_label_2
_ccdc_geom_bond_type
N41   Ni6   S    
H126  N28   S    
C52   H98   S    
C33   C45   S    
C15   H27   S    
C10   C107  S    
C65   N40   A    
C48   C120  S    
H136  N32   S    
C58   C112  S    
H137  N33   S    
C96   N14   A    
C5    C6    S    
C20   C40   S    
C53   C64   S    
C96   H84   S    
C55   C62   S    
C117  H106  S    
N20   N42   A    
C34   C35   S    
C3    H117  S    
C17   H36   S    
C38   C45   S    
C30   C96   A    
C57   C109  S    
C16   H25   S    
N2    N10   A    
C92   C102  A    
C67   N42   A    
C26   H48   S    
C29   H53   S    
C21   C22   S    
C8    H11   S    
C83   C114  A    
C1    C113  S    
H146  N38   S    
H140  N35   S    
C9    H7    S    
C62   H46   S    
C104  H92   S    
C4    H6    S    
C23   H52   S    
C7    H14   S    
C118  H104  S    
C21   H42   S    
N3    Ni4   S    
C1    N1    A    
C59   N34   A    
N12   N24   A    
C12   H15   S    
C28   H56   S    
C85   H78   S    
C122  H110  S    
H129  N29   S    
C19   H31   S    
C91   N9    A    
C116  H94   S    
C78   H67   S    
C71   H63   S    
C4    C5    S    
C52   C63   S    
C88   N6    A    
C94   N11   A    
C54   C61   S    
N7    N16   A    
N4    N13   A    
C23   C41   S    
C13   C94   A    
C35   C40   S    
N26   Ni3   S    
C18   H33   S    
C75   N32   S    
H125  N27   S    
C77   C82   D    
C72   C92   S    
C5    H4    S    
C67   C92   A    
C55   H131  S    
C69   C70   S    
C27   H59   S    
C11   H19   S    
H134  N31   S    
C120  H115  S    
C25   H49   S    
C73   C103  S    
H145  N37   S    
C20   C21   S    
C29   H55   S    
C13   C85   A    
C41   C45   S    
N5    Ni6   S    
C60   H24   S    
C33   C99   A    
C30   C87   A    
C75   C79   D    
C41   C51   S    
N7    Ni8   S    
N44   Ni2   S    
C113  C115  S    
C9    H9    S    
C63   H57   S    
C94   H82   S    
C68   C103  A    
H139  N35   S    
N16   Ni3   S    
C123  C124  S    
C81   C101  A    
H128  N29   S    
C97   H85   S    
C45   C50   S    
C17   C39   S    
C7    C106  S    
C65   C70   A    
N17   Ni4   S    
C12   H17   S    
C28   H58   S    
C113  H99   S    
C107  N25   A    
N13   Ni8   S    
C32   C98   A    
C84   N2    A    
C64   C73   D    
C85   N3    A    
C36   C46   S    
C86   N4    A    
C35   C43   S    
C91   H80   S    
C3    H116  S    
N9    N44   A    
N14   Ni1   S    
N9    Ni5   S    
N19   N41   A    
C8    H10   S    
C34   C39   S    
C100  N18   A    
C101  N19   A    
H132  N30   S    
C102  N20   A    
C25   C26   S    
C46   C51   S    
C97   N15   A    
H148  N39   S    
N3    N11   A    
C98   N16   A    
C22   H40   S    
C121  H112  S    
C17   C18   S    
C37   C117  S    
C10   H20   S    
C17   H37   S    
H149  N39   S    
C39   C49   S    
C42   C50   S    
C115  H96   S    
C105  N22   A    
N21   N43   A    
C120  C121  S    
N6    Ni5   S    
C20   H43   S    
C105  C109  A    
C77   N35   S    
C32   C46   S    
C76   C80   D    
C91   C114  A    
C7    H12   S    
C60   C111  S    
C117  C118  S    
C27   C42   S    
C43   C47   S    
C14   C108  S    
C62   C71   D    
H130  N30   S    
C95   N13   A    
C6    H150  S    
C10   C11   S    
N1    N22   A    
C66   N41   A    
C40   C44   S    
C14   H28   S    
N22   Ni2   S    
C14   C15   S    
C24   C86   A    
C86   H79   S    
C119  H102  S    
C120  H114  S    
C71   C81   S    
C84   H77   S    
C2    C84   A    
C80   H69   S    
C16   H23   S    
C28   C29   S    
C54   C58   D    
C22   H38   S    
C23   H51   S    
C118  H105  S    
C83   N44   A    
C21   H41   S    
C18   C19   S    
C42   C46   S    
C2    C79   S    
C1    C109  A    
C12   H16   S    
C38   N30   S    
N5    N14   A    
N21   Ni7   S    
N11   Ni7   S    
C122  H111  S    
C13   C80   S    
C55   C60   D    
C59   C123  S    
C19   H32   S    
C30   C44   S    
C36   C41   S    
C78   C114  S    
C107  C111  A    
C47   H1    S    
C95   H83   S    
C100  H89   S    
C7    C8    S    
C24   C95   A    
C53   C57   D    
N34   Ni4   S    
N15   Ni2   S    
C117  H107  S    
C108  C112  A    
C3    H118  S    
N2    Ni1   S    
C18   H34   S    
C32   C89   A    
C101  H90   S    
C5    H3    S    
N25   Ni4   S    
C59   C112  A    
N19   Ni5   S    
C124  H119  S    
H133  N31   S    
C121  C122  S    
C31   C43   S    
N18   N40   A    
H144  N37   S    
C26   H47   S    
C29   H54   S    
H147  N38   S    
N8    Ni7   S    
C53   H109  S    
C3    C124  S    
C9    H8    S    
C87   N36   S    
C31   C88   A    
N20   Ni8   S    
C115  H97   S    
C67   H73   S    
C123  H122  S    
H135  N32   S    
C4    H5    S    
C34   N27   S    
C122  H108  S    
C99   N17   A    
C88   N37   S    
C36   C38   S    
C66   C81   A    
C56   H142  S    
N42   Ni7   S    
C31   C97   A    
C82   H70   S    
C36   N29   S    
N6    N15   A    
C63   C72   D    
C74   C78   D    
C103  C104  A    
C19   H30   S    
C116  H93   S    
C69   H62   S    
C15   H26   S    
H143  N36   S    
C115  C116  S    
C65   H71   S    
C44   C49   S    
C40   C47   S    
N18   Ni6   S    
H124  N27   S    
C93   H81   S    
C119  H103  S    
C47   C49   S    
C98   H86   S    
N40   Ni5   S    
C68   H74   S    
C38   C42   S    
C61   H35   S    
C49   H65   S    
C15   C16   S    
C16   H22   S    
C124  H121  S    
C24   C82   S    
C27   H60   S    
C72   H64   S    
N4    Ni3   S    
C118  C119  S    
C25   H50   S    
C26   H45   S    
C8    C9    S    
C48   N23   A    
C89   N38   S    
C64   H61   S    
N24   Ni1   S    
C37   N12   A    
C56   C110  S    
N10   Ni6   S    
C70   C100  A    
C50   C51   S    
C99   H88   S    
C20   H44   S    
C89   N7    A    
C74   C75   S    
C90   N8    A    
C34   C44   S    
C76   C77   S    
C57   H2    S    
C50   H76   S    
C104  N21   A    
C39   C43   S    
C93   N10   A    
C54   H120  S    
C87   N5    A    
C113  H100  S    
N26   N34   A    
H127  N28   S    
C37   C110  A    
H141  N36   S    
C116  H95   S    
C6    H151  S    
N23   N25   A    
C58   H13   S    
C14   H29   S    
H138  N33   S    
C83   H75   S    
C6    H152  S    
C119  H101  S    
N12   Ni2   S    
C106  C110  A    
C61   C69   D    
C68   N43   A    
N1    Ni1   S    
C2    C93   A    
C73   H66   S    
C66   H72   S    
C11   C12   S    
C4    C105  S    
C79   H68   S    
C33   C90   A    
C123  H123  S    
C22   H39   S    
N8    N17   A    
C121  H113  S    
C35   N28   S    
C23   C25   S    
C11   H18   S    
C90   N39   S    
C10   H21   S    
C76   N33   S    
C51   H87   S    
C102  H91   S    
C48   C111  A    
N43   Ni8   S    
N23   Ni3   S    
C27   C28   S    
C106  N24   A    
C74   N31   S    
C52   C56   D    
C108  N26   A    
