data_mof_unit_28350.cif
_audit_creation_date              2012-12-11T15:42:46-0500
_audit_creation_method            fapswitch 2.2
_symmetry_space_group_name_H-M    P1
_symmetry_Int_Tables_number       1
_space_group_crystal_system       triclinic
_cell_length_a                    6.932133
_cell_length_b                    14.545975
_cell_length_c                    16.196013
_cell_angle_alpha                 90.452095
_cell_angle_beta                  89.759522
_cell_angle_gamma                 89.885848
_cell_volume                      1633.0504587

loop_
_atom_site_label
_atom_site_type_symbol
_atom_type_description
_atom_site_fract_x
_atom_site_fract_y
_atom_site_fract_z
_atom_type_partial_charge
O1    O     O_R   0.505810 0.583360 0.413880 -0.539947
O2    O     O_R   0.175870 0.595480 0.585520 -0.545672
O3    O     O_R   0.005540 0.416640 0.586120 -0.545382
C1    C     C_R   0.344410 0.617856 0.614314 0.678057
O4    O     O_R   0.176100 0.594390 0.414490 -0.537991
O5    O     O_R   0.005770 0.415540 0.413870 -0.513379
C2    C     C_R   0.345295 0.616479 0.385736 0.741675
O6    O     O_R   0.505580 0.584460 0.586130 -0.544472
O7    O     O_3   0.339190 0.441320 0.500000 -0.356513
V1    V     V_3+5 0.064350 0.510890 0.500000 1.460479
O8    O     O_R   0.676050 0.404520 0.414480 -0.532572
C3    C     C_R   0.845775 0.384013 0.384169 0.744343
O9    O     O_R   0.675830 0.405610 0.585510 -0.543934
C4    C     C_R   0.844983 0.383580 0.613651 0.732093
V2    V     V_3+5 0.564340 0.489110 0.500000 1.462247
O10   O     O_3   0.839370 0.558680 0.500000 -0.380055
C5    C     C_2   0.720801 0.207840 0.785358 -0.098341
C6    C     C_2   0.885914 0.181440 0.822274 -0.298886
H1    H     H_    0.585020 0.178555 0.805937 0.137603
H2    H     H_    0.023431 0.209878 0.803721 0.125406
C7    C     C_2   0.708150 0.276352 0.717466 -0.125815
C8    C     C_2   0.861538 0.315252 0.680355 -0.300493
H3    H     H_    0.564041 0.294734 0.697256 0.134137
H4    H     H_    0.006805 0.297469 0.698660 0.130128
C9    C     C_R   0.033208 0.244228 0.199219 -0.172800
H5    H     H_    0.160524 0.240817 0.160278 0.154674
C10   C     C_R   0.024334 0.310826 0.262026 0.260817
C11   C     C_R   0.859259 0.316846 0.314255 -0.103381
C12   C     C_R   0.704237 0.256832 0.298855 -0.152528
H6    H     H_    0.575764 0.259328 0.337088 0.161616
C13   C     C_R   0.713209 0.191929 0.234689 -0.136558
H7    H     H_    0.591307 0.146691 0.225029 0.128804
C14   C     C_R   0.878734 0.184282 0.184741 -0.096786
C15   C     C_R   0.210474 0.691650 0.743593 -0.137251
H8    H     H_    0.087276 0.646053 0.740905 0.117981
C16   C     C_R   0.226285 0.753614 0.810020 -0.131225
H9    H     H_    0.114462 0.753963 0.856910 0.156524
C17   C     C_R   0.384595 0.813768 0.816729 -0.131826
C18   C     C_R   0.527941 0.810752 0.753616 0.011540
C19   C     C_R   0.512367 0.746759 0.688323 -0.182623
H10   H     H_    0.622951 0.744897 0.640764 0.128208
C20   C     C_R   0.354793 0.686620 0.682692 -0.063288
C21   C     C_R   0.188406 0.722748 0.283576 -0.133176
H11   H     H_    0.047540 0.704163 0.307173 0.116842
C22   C     C_R   0.199574 0.785871 0.218830 -0.144990
H12   H     H_    0.066769 0.814103 0.194750 0.117541
C23   C     C_R   0.379277 0.812256 0.185814 -0.047815
C24   C     C_R   0.547482 0.773625 0.219414 -0.148308
H13   H     H_    0.688346 0.792185 0.195798 0.116729
C25   C     C_R   0.536311 0.710503 0.284166 -0.134264
H14   H     H_    0.669102 0.682247 0.308238 0.119824
C26   C     C_R   0.356619 0.684229 0.317258 -0.042857
O11   O     O_R   0.230120 0.912300 0.917180 -0.537386
O12   O     O_R   0.559740 0.902430 0.088770 -0.545704
O13   O     O_R   0.729930 0.081310 0.089370 -0.542359
C27   C     C_R   0.390575 0.880251 0.117510 0.681213
O14   O     O_R   0.559840 0.901330 0.917750 -0.518085
O15   O     O_R   0.730030 0.080210 0.917120 -0.534363
C28   C     C_R   0.392077 0.880589 0.887430 0.698689
O16   O     O_R   0.230020 0.913400 0.089430 -0.542985
O17   O     O_3   0.396460 0.055470 0.003290 -0.373331
V3    V     V_3+5 0.671360 0.985960 0.003250 1.456746
O18   O     O_R   0.059740 0.091300 0.917690 -0.547646
C29   C     C_R   0.891128 0.113091 0.889357 0.750082
O19   O     O_R   0.059640 0.092400 0.088720 -0.546161
C30   C     C_R   0.890206 0.114725 0.117343 0.695309
V4    V     V_3+5 0.171350 0.007820 0.003190 1.424260
O20   O     O_3   0.896380 0.938200 0.003220 -0.359573
C31   C     C_2   0.688817 0.877038 0.749922 0.729823
O21   O     O_2   0.694829 0.932959 0.694019 -0.561516
O22   O     O_R   0.837505 0.873234 0.807670 -0.651955
H15   H     H_    0.939849 0.921623 0.797679 0.290135
Br1   Br    Br    0.239535 0.394007 0.267628 -0.579336

loop_
_geom_bond_atom_site_label_1
_geom_bond_atom_site_label_2
_ccdc_geom_bond_type
O15   V3    S    
C19   H10   S    
C15   C20   A    
C1    O6    A    
O11   C28   A    
O14   V3    S    
C22   H12   S    
C3    C11   S    
C11   C12   A    
C2    C26   S    
O5    C3    A    
C17   C18   A    
C21   C26   A    
O14   C28   A    
V2    O10   S    
O13   V3    S    
C15   H8    S    
C31   O22   S    
O8    V2    S    
C13   H7    S    
O16   V4    S    
O19   V4    S    
C25   C26   A    
C13   C14   A    
O1    V2    S    
O7    V1    S    
C6    H2    S    
C19   C20   A    
O9    C4    A    
O17   V3    S    
C14   C30   S    
C5    C6    D    
O12   C27   A    
C22   C23   A    
C7    H3    S    
O15   C29   A    
O18   V4    S    
V4    O20   S    
C18   C19   A    
O4    C2    A    
O12   V3    S    
C9    H5    S    
C5    C7    S    
C27   O16   A    
O2    C1    A    
C21   H11   S    
C12   H6    S    
O17   V4    S    
C23   C24   A    
C25   H14   S    
C18   C31   S    
C21   C22   A    
O3    C4    A    
C24   H13   S    
O6    V2    S    
O9    V2    S    
C8    H4    S    
O2    V1    S    
O13   C30   A    
C16   H9    S    
O1    C2    A    
O18   C29   A    
O5    V1    S    
C10   Br1   S    
O8    C3    A    
C9    C10   A    
V3    O20   S    
C4    C8    S    
C16   C17   A    
O7    V2    S    
O4    V1    S    
C12   C13   A    
O3    V1    S    
V1    O10   S    
C6    C29   S    
C1    C20   S    
C24   C25   A    
C5    H1    S    
C15   C16   A    
C31   O21   D    
O11   V4    S    
C17   C28   S    
O22   H15   S    
O19   C30   A    
C10   C11   A    
C7    C8    D    
C9    C14   A    
C23   C27   S    
