data_mof_unit_33127.cif
_audit_creation_date              2012-12-10T17:53:25-0500
_audit_creation_method            fapswitch 2.2
_symmetry_space_group_name_H-M    P1
_symmetry_Int_Tables_number       1
_space_group_crystal_system       triclinic
_cell_length_a                    23.273711
_cell_length_b                    10.670125
_cell_length_c                    10.010502
_cell_angle_alpha                 89.210901
_cell_angle_beta                  91.312125
_cell_angle_gamma                 93.045016
_cell_volume                      2481.58496091

loop_
_atom_site_label
_atom_site_type_symbol
_atom_type_description
_atom_site_fract_x
_atom_site_fract_y
_atom_site_fract_z
_atom_type_partial_charge
C1    C     C_R   0.502197 0.261367 0.501062 0.869878
C2    C     C_R   0.117321 0.465007 0.371235 0.540781
C3    C     C_R   0.236400 0.569389 0.552668 0.050780
C4    C     C_R   0.389773 0.499288 0.498585 0.830230
C5    C     C_R   0.296515 0.579084 0.556786 -0.271623
C6    C     C_R   0.327770 0.489055 0.494767 0.030059
C7    C     C_R   0.299850 0.387238 0.430189 -0.172561
C8    C     C_R   0.240345 0.374306 0.428520 -0.098671
C9    C     C_R   0.208383 0.464109 0.489484 0.311444
C10   C     C_R   0.751330 0.353579 0.519570 -0.072291
C11   C     C_R   0.692884 0.370931 0.521191 -0.250449
C12   C     C_R   0.971626 0.365189 0.728708 -0.018389
C13   C     C_R   0.672237 0.490555 0.502413 -0.061205
C14   C     C_R   0.710496 0.594453 0.477097 -0.088296
C15   C     C_R   0.769979 0.577493 0.479243 0.000902
C16   C     C_R   0.500337 0.739204 0.499202 0.840373
C17   C     C_R   0.789978 0.456039 0.499165 0.249626
C18   C     C_R   0.588648 0.134677 0.659390 -0.305568
C19   C     C_R   0.632572 0.072442 0.725634 0.016780
C20   C     C_R   0.634650 0.942818 0.712117 -0.085073
C21   C     C_R   0.592547 0.876590 0.636443 -0.173156
C22   C     C_R   0.547021 0.938036 0.572080 0.113900
C23   C     C_R   0.031585 0.367062 0.724365 -0.190532
C24   C     C_R   0.546327 0.068598 0.579699 0.110212
C25   C     C_R   0.504154 0.129172 0.503587 -0.116266
C26   C     C_R   0.462200 0.063942 0.427090 -0.162111
C27   C     C_R   0.459562 0.934718 0.426445 -0.038866
C28   C     C_R   0.610371 0.501492 0.500964 0.858943
C29   C     C_R   0.502636 0.872471 0.498108 -0.160676
C30   C     C_R   0.411678 0.373393 0.141143 -0.112395
C31   C     C_R   0.358760 0.346860 0.080019 -0.289089
C32   C     C_R   0.352710 0.359852 0.942586 -0.057556
C33   C     C_R   0.403018 0.380817 0.866914 0.022320
C34   C     C_R   0.060258 0.398540 0.606143 -0.023601
C35   C     C_R   0.453873 0.440251 0.928104 0.055465
C36   C     C_R   0.455706 0.438519 0.072066 0.134621
C37   C     C_R   0.543270 0.558150 0.072706 -0.026366
C38   C     C_R   0.544425 0.553320 0.930334 -0.032658
C39   C     C_R   0.877157 0.449649 0.376035 0.525522
C40   C     C_R   0.878823 0.406203 0.611118 0.514483
C41   C     C_R   0.939009 0.395546 0.611949 -0.056538
C42   C     C_R   0.967991 0.420373 0.490685 -0.025010
C43   C     C_R   0.936775 0.445512 0.371686 -0.010802
C44   C     C_1   0.945832 0.330819 0.854941 0.287664
C45   C     C_R   0.028490 0.423116 0.488398 -0.009438
C46   C     C_1   0.689251 0.716076 0.442502 0.173536
C47   C     C_1   0.810685 0.683573 0.461232 0.225002
C48   C     C_2   0.676619 0.144916 0.805840 0.422919
C49   C     C_2   0.410256 0.867051 0.355855 0.444760
C50   C     C_2   0.590323 0.628694 0.144446 0.506150
C51   C     C_2   0.295026 0.328977 0.881040 0.459789
C52   C     C_1   0.404975 0.288981 0.763255 0.331531
C53   C     C_1   0.595036 0.604348 0.864479 0.216800
C54   C     C_2   0.205184 0.671495 0.613134 0.451971
C55   C     C_R   0.057257 0.453358 0.368710 -0.008067
C56   C     C_R   0.025525 0.474492 0.250604 -0.152557
C57   C     C_R   0.965790 0.470057 0.251991 -0.135383
C58   C     C_R   0.120371 0.408640 0.603127 0.586957
H1    H     H_    0.663637 0.289998 0.532389 0.139285
H2    H     H_    0.942515 0.489481 0.159748 0.202188
H3    H     H_    0.319131 0.657944 0.605631 0.128050
H4    H     H_    0.324220 0.316189 0.384489 0.127519
H5    H     H_    0.218803 0.293851 0.380603 0.144677
H6    H     H_    0.766732 0.260082 0.532689 0.164164
H7    H     H_    0.674431 0.245902 0.814150 0.077934
H8    H     H_    0.401543 0.767147 0.370809 0.069565
H9    H     H_    0.634377 0.601853 0.135283 0.045433
H10   H     H_    0.259594 0.295866 0.943235 0.094795
H11   H     H_    0.228779 0.741592 0.673416 0.070280
H12   H     H_    0.429844 0.114916 0.372408 0.178514
H13   H     H_    0.588953 0.235160 0.669694 0.157535
H14   H     H_    0.669090 0.892668 0.759170 0.192200
H15   H     H_    0.597145 0.777376 0.625228 0.165092
H16   H     H_    0.055934 0.345763 0.814815 0.189962
H17   H     H_    0.417182 0.342767 0.242393 0.197940
H18   H     H_    0.323194 0.309840 0.139176 0.158341
H19   H     H_    0.046700 0.496573 0.157294 0.195130
N1    N     N_R   0.850046 0.435356 0.495137 -0.357044
N2    N     N_R   0.147262 0.445456 0.487981 -0.345095
N3    N     N_R   0.499460 0.498800 0.142780 -0.134422
N4    N     N_R   0.499440 0.498720 0.857170 -0.133891
N5    N     N_1   0.925369 0.302950 0.956112 -0.137568
N6    N     N_1   0.672990 0.813502 0.413152 -0.140262
N7    N     N_1   0.843232 0.768239 0.446874 -0.157187
N8    N     N_1   0.402238 0.210771 0.684023 -0.209651
N9    N     N_1   0.636916 0.644258 0.816020 -0.218277
O1    O     O_R   0.500000 0.316780 0.614690 -0.628591
O2    O     O_R   0.583850 0.500050 0.614640 -0.623902
O3    O     O_R   0.583840 0.500030 0.385310 -0.605684
O4    O     O_2   0.846313 0.470413 0.262729 -0.531864
O5    O     O_2   0.715848 0.093146 0.863381 -0.525000
O6    O     O_2   0.378049 0.922847 0.280659 -0.564406
O7    O     O_2   0.580704 0.722010 0.207267 -0.529700
O8    O     O_2   0.286031 0.342691 0.761310 -0.545980
O9    O     O_2   0.153603 0.681174 0.594387 -0.555185
O10   O     O_2   0.849122 0.391155 0.724847 -0.526868
O11   O     O_2   0.151832 0.384273 0.714519 -0.529913
O12   O     O_2   0.145695 0.497752 0.258850 -0.549937
O13   O     O_R   0.500000 0.316750 0.385360 -0.637822
O14   O     O_R   0.416160 0.499970 0.614690 -0.607117
O15   O     O_R   0.416150 0.499950 0.385360 -0.646828
O16   O     O_R   0.500000 0.683250 0.614640 -0.617138
O17   O     O_R   0.500000 0.683220 0.385310 -0.557885
Zn1   Zn    Zn3+2 0.500000 0.500020 0.653130 0.959830
Zn2   Zn    Zn3+2 0.500000 0.499980 0.346870 0.980577

loop_
_geom_bond_atom_site_label_1
_geom_bond_atom_site_label_2
_ccdc_geom_bond_type
C1    O1    A    
C55   C56   A    
C37   C50   S    
C22   C29   A    
C27   C29   A    
C41   C42   A    
C19   C20   A    
C15   C47   S    
C1    O13   A    
C35   N4    A    
C7    C8    A    
C14   C46   S    
C33   C52   S    
C54   H11   S    
C12   C23   A    
C26   C27   A    
C37   C38   A    
C18   C24   A    
C52   N8    T    
C44   N5    T    
C2    C55   A    
C30   C31   A    
C3    C54   S    
C10   C17   A    
C21   H15   S    
O14   Zn1   S    
C56   C57   A    
C18   C19   A    
C9    N2    S    
C2    N2    A    
C35   C36   A    
C8    C9    A    
C48   O5    D    
C28   O2    A    
C13   C28   S    
C28   O3    A    
C48   H7    S    
C50   H9    S    
C39   O4    S    
C13   C14   A    
C1    C25   S    
C58   O11   S    
C40   O10   S    
C11   H1    S    
O2    Zn1   S    
O15   Zn2   S    
O13   Zn2   S    
C37   N3    A    
C49   H8    S    
C39   N1    A    
C24   C25   A    
C4    C6    S    
C36   N3    A    
C19   C48   S    
C57   H2    S    
C39   C43   A    
C51   O8    D    
C16   C29   S    
N3    Zn2   S    
C56   H19   S    
C46   N6    T    
C42   C45   A    
C7    H4    S    
C12   C41   A    
C3    C9    A    
C16   O17   A    
C31   C32   A    
C23   C34   A    
C4    O15   A    
C5    H3    S    
O17   Zn2   S    
C34   C45   A    
C47   N7    T    
O16   Zn1   S    
C45   C55   A    
C54   O9    D    
C53   N9    T    
C58   N2    A    
C16   O16   A    
C40   C41   A    
C4    O14   A    
C38   N4    A    
C26   H12   S    
C40   N1    A    
C42   C43   A    
C49   O6    D    
C32   C51   S    
C18   H13   S    
C15   C17   A    
C10   H6    S    
C3    C5    A    
C50   O7    D    
C6    C7    A    
C30   C36   A    
C32   C33   A    
C25   C26   A    
C12   C44   S    
C30   H17   S    
C11   C13   A    
C31   H18   S    
C5    C6    A    
C38   C53   S    
C17   N1    S    
C33   C35   A    
C22   C24   A    
C51   H10   S    
C10   C11   A    
C43   C57   A    
C8    H5    S    
O1    Zn1   S    
C20   C21   A    
C2    O12   S    
O3    Zn2   S    
C34   C58   A    
C14   C15   A    
C20   H14   S    
C23   H16   S    
C21   C22   A    
C27   C49   S    
N4    Zn1   S    
