data_mof_unit_12264.cif
_audit_creation_date              2012-12-11T16:28:27-0500
_audit_creation_method            fapswitch 2.2
_symmetry_space_group_name_H-M    P1
_symmetry_Int_Tables_number       1
_space_group_crystal_system       triclinic
_cell_length_a                    17.194381
_cell_length_b                    7.393259
_cell_length_c                    14.566145
_cell_angle_alpha                 89.5947
_cell_angle_beta                  94.836411
_cell_angle_gamma                 90.283288
_cell_volume                      1845.02825674

loop_
_atom_site_label
_atom_site_type_symbol
_atom_type_description
_atom_site_fract_x
_atom_site_fract_y
_atom_site_fract_z
_atom_type_partial_charge
O1    O     O_R   0.663460 0.361760 0.165970 -0.518911
O2    O     O_R   0.336540 0.638240 0.834030 -0.529790
O3    O     O_R   0.836540 0.861760 0.334030 -0.524911
O4    O     O_R   0.163460 0.138240 0.665970 -0.530088
O5    O     O_R   0.827100 0.689870 0.163730 -0.527705
O6    O     O_R   0.172900 0.310130 0.836270 -0.536323
O7    O     O_R   0.672900 0.189870 0.336270 -0.514015
O8    O     O_R   0.327100 0.810130 0.663730 -0.532433
H1    H     H_    0.202240 0.954983 0.483160 0.094741
H2    H     H_    0.808990 0.135090 0.510139 0.112525
H3    H     H_    0.299172 0.412268 0.016617 0.099835
H4    H     H_    0.690083 0.641773 0.990789 0.113256
C1    C     C_R   0.851555 0.523552 0.141754 0.714580
C2    C     C_R   0.145797 0.476150 0.854685 0.709047
C3    C     C_R   0.648107 0.023034 0.357710 0.714207
C4    C     C_R   0.354250 0.977253 0.645537 0.711872
O9    O     O_R   0.663490 0.691370 0.155500 -0.531731
O10   O     O_R   0.336510 0.308630 0.844500 -0.515253
O11   O     O_R   0.836510 0.191370 0.344500 -0.525043
O12   O     O_R   0.163490 0.808630 0.655500 -0.515466
O13   O     O_R   0.671770 0.863320 0.325740 -0.511778
O14   O     O_R   0.328230 0.136680 0.674260 -0.502577
O15   O     O_R   0.828230 0.363320 0.174260 -0.498829
O16   O     O_R   0.171770 0.636680 0.825740 -0.499629
C5    C     C_R   0.636669 0.523349 0.133291 0.772836
C6    C     C_R   0.360763 0.476277 0.870091 0.764966
C7    C     C_R   0.863211 0.023716 0.366867 0.772358
C8    C     C_R   0.139052 0.977120 0.630208 0.767050
O17   O     O_3   0.752910 0.528800 0.305860 -0.366242
O18   O     O_3   0.247090 0.471200 0.694140 -0.372316
O19   O     O_3   0.747090 0.028800 0.194140 -0.367388
O20   O     O_3   0.252910 0.971200 0.805860 -0.374506
V1    V     V_3+5 0.749460 0.803010 0.239640 1.516845
V2    V     V_3+5 0.250540 0.196990 0.760360 1.494428
V3    V     V_3+5 0.750540 0.303010 0.260360 1.536010
V4    V     V_3+5 0.249460 0.696990 0.739640 1.499590
C9    C     C_1   0.474684 0.000118 0.538503 -0.014778
C10   C     C_1   0.537130 0.010766 0.477964 -0.011896
C11   C     C_1   0.024336 0.493474 0.960347 -0.010542
C12   C     C_1   0.961284 0.504773 0.020099 -0.009821
C13   C     C_R   0.025902 0.015346 0.301902 0.268901
C14   C     C_R   0.982669 0.035856 0.688019 0.293175
C15   C     C_R   0.476164 0.458633 0.198511 0.271383
C16   C     C_R   0.516996 0.542503 0.812161 0.293731
C17   C     C_R   0.102203 0.998327 0.271371 0.029242
C18   C     C_R   0.918683 0.133988 0.714931 0.053239
C19   C     C_R   0.400220 0.428580 0.228551 0.020033
C20   C     C_R   0.581890 0.639475 0.785136 0.057123
C21   C     C_R   0.166352 0.973485 0.338994 0.082361
C22   C     C_R   0.855189 0.167419 0.648807 0.073116
C23   C     C_R   0.335646 0.422577 0.160459 0.081960
C24   C     C_R   0.645004 0.672425 0.851642 0.069897
C25   C     C_R   0.152950 0.969981 0.432944 -0.194873
C26   C     C_R   0.859465 0.110781 0.557988 -0.223551
C27   C     C_R   0.348800 0.426635 0.066570 -0.199037
C28   C     C_R   0.639675 0.617577 0.942889 -0.222873
C29   C     C_R   0.077998 0.984684 0.464316 -0.025081
C30   C     C_R   0.929600 0.046643 0.526823 -0.023528
C31   C     C_R   0.423097 0.457643 0.035417 -0.023031
C32   C     C_R   0.569649 0.550160 0.973789 -0.023197
C33   C     C_R   0.012189 0.003916 0.398128 0.009746
C34   C     C_R   0.994338 0.017793 0.592533 0.002226
C35   C     C_R   0.488886 0.475056 0.101905 0.008324
C36   C     C_R   0.505238 0.520909 0.907757 0.000792
C37   C     C_R   0.069062 0.984862 0.561350 -0.121085
C38   C     C_R   0.936094 0.020659 0.431033 -0.112990
C39   C     C_R   0.430999 0.479742 0.938666 -0.120148
C40   C     C_R   0.563759 0.515791 0.069351 -0.115002
C41   C     C_1   0.420147 0.988285 0.587505 -0.177826
C42   C     C_1   0.588003 0.015929 0.423789 -0.149529
C43   C     C_1   0.079588 0.484459 0.912363 -0.172132
C44   C     C_1   0.910826 0.514767 0.074648 -0.148954
C45   C     C_3   0.106568 0.009999 0.165009 -0.305390
C46   C     C_3   0.180356 0.979449 0.114095 -0.458303
C47   C     C_3   0.159951 0.972528 0.009941 -0.663693
H5    H     H_    0.120867 0.855901 0.991735 0.244570
H6    H     H_    0.130444 0.098723 0.984684 0.233057
H7    H     H_    0.214272 0.956353 0.974899 0.228456
H8    H     H_    0.223145 0.089600 0.126661 0.213204
H9    H     H_    0.208416 0.850937 0.133607 0.222637
H10   H     H_    0.063085 0.912050 0.134417 0.220284
H11   H     H_    0.084501 0.144313 0.141863 0.213638
C48   C     C_3   0.925725 0.223305 0.809266 -0.307345
C49   C     C_3   0.871564 0.149008 0.879721 -0.342093
C50   C     C_3   0.913854 0.025515 0.952140 -0.622324
H12   H     H_    0.938627 0.906395 0.919763 0.260568
H13   H     H_    0.961866 0.100224 0.991362 0.241929
H14   H     H_    0.872168 0.977765 0.001355 0.220111
H15   H     H_    0.848069 0.264180 0.917095 0.178182
H16   H     H_    0.820744 0.078959 0.844835 0.202699
H17   H     H_    0.986869 0.220815 0.839638 0.224133
H18   H     H_    0.914266 0.368157 0.798168 0.145943
C51   C     C_3   0.395559 0.407434 0.334887 -0.301610
C52   C     C_3   0.319636 0.409806 0.384460 -0.451916
C53   C     C_3   0.337601 0.410554 0.488999 -0.669483
H19   H     H_    0.378538 0.301109 0.510878 0.246840
H20   H     H_    0.364668 0.541134 0.511948 0.235958
H21   H     H_    0.282752 0.391016 0.522971 0.226582
H22   H     H_    0.285415 0.532644 0.369196 0.214652
H23   H     H_    0.282848 0.291304 0.366795 0.216478
H24   H     H_    0.427426 0.282340 0.356688 0.205061
H25   H     H_    0.429716 0.518385 0.368744 0.230541
C54   C     C_3   0.576471 0.728230 0.689966 -0.306612
C55   C     C_3   0.630027 0.651127 0.620305 -0.346008
C56   C     C_3   0.586548 0.528530 0.548886 -0.613289
H26   H     H_    0.561372 0.409427 0.582148 0.262981
H27   H     H_    0.538775 0.603974 0.509639 0.233369
H28   H     H_    0.627604 0.480696 0.499497 0.222158
H29   H     H_    0.654525 0.765158 0.581811 0.174720
H30   H     H_    0.680336 0.579820 0.655625 0.204188
H31   H     H_    0.515424 0.728317 0.659298 0.224350
H32   H     H_    0.589620 0.872708 0.699723 0.146017
C57   C     C_3   0.783868 0.272864 0.669707 -0.360037
C58   C     C_3   0.707560 0.165851 0.649706 -0.336821
C59   C     C_3   0.649580 0.202846 0.721392 -0.734579
H33   H     H_    0.663872 0.121732 0.784475 0.207734
H34   H     H_    0.651529 0.345388 0.742241 0.253726
H35   H     H_    0.589282 0.171399 0.692949 0.250866
H36   H     H_    0.680786 0.204274 0.580361 0.193109
H37   H     H_    0.719215 0.019107 0.647693 0.185981
H38   H     H_    0.788449 0.318273 0.741530 0.190660
H39   H     H_    0.781439 0.396279 0.625761 0.155558
C60   C     C_3   0.247792 0.941120 0.310897 -0.372754
C61   C     C_3   0.315547 0.912101 0.384224 -0.364909
C62   C     C_3   0.389376 0.873251 0.336078 -0.706587
H40   H     H_    0.377382 0.775825 0.279197 0.232913
H41   H     H_    0.412239 0.998347 0.305763 0.227553
H42   H     H_    0.434465 0.814308 0.385439 0.233780
H43   H     H_    0.325239 0.033001 0.427726 0.205684
H44   H     H_    0.303250 0.798019 0.430346 0.196409
H45   H     H_    0.243676 0.817098 0.271690 0.175297
H46   H     H_    0.265771 0.052272 0.267408 0.185288
C63   C     C_3   0.717924 0.772838 0.830387 -0.359731
C64   C     C_3   0.792218 0.660621 0.852158 -0.338798
C65   C     C_3   0.852342 0.697681 0.782773 -0.733524
H47   H     H_    0.838483 0.620009 0.718911 0.207996
H48   H     H_    0.852492 0.841037 0.762884 0.257165
H49   H     H_    0.911671 0.663135 0.813087 0.250588
H50   H     H_    0.818048 0.694935 0.922317 0.191213
H51   H     H_    0.778297 0.514413 0.852783 0.186938
H52   H     H_    0.714620 0.817538 0.758158 0.190895
H53   H     H_    0.721925 0.896021 0.873543 0.155823
C66   C     C_3   0.253375 0.437999 0.188247 -0.369052
C67   C     C_3   0.186140 0.480563 0.116388 -0.358794
C68   C     C_3   0.115414 0.540352 0.166244 -0.716274
H54   H     H_    0.083079 0.423254 0.191793 0.239539
H55   H     H_    0.132065 0.627941 0.226195 0.221812
H56   H     H_    0.076517 0.621561 0.119291 0.230375
H57   H     H_    0.202854 0.589116 0.069060 0.193146
H58   H     H_    0.170460 0.360687 0.073755 0.202313
H59   H     H_    0.236197 0.319595 0.227198 0.181977
H60   H     H_    0.256584 0.555665 0.231805 0.183367
Cl1   Cl    Cl    0.949915 0.063616 0.214061 -0.715536
Cl2   Cl    Cl    0.040124 0.920460 0.776705 -0.714365
Cl3   Cl    Cl    0.552037 0.494404 0.288063 -0.714529
Cl4   Cl    Cl    0.459402 0.428719 0.723347 -0.711237

loop_
_geom_bond_atom_site_label_1
_geom_bond_atom_site_label_2
_ccdc_geom_bond_type
C30   C34   A    
C65   H49   S    
C16   C20   A    
C10   C42   T    
C51   C52   S    
C27   C31   A    
C60   H46   S    
C2    C43   S    
C53   H19   S    
O10   C6    A    
C13   C33   A    
C68   H54   S    
C53   H21   S    
C15   C35   A    
C60   C61   S    
C50   H12   S    
C16   C36   A    
C48   H18   S    
C56   H27   S    
C63   H53   S    
O16   V4    S    
C49   H16   S    
C6    C39   S    
C54   H31   S    
C14   Cl2   S    
C66   C67   S    
C9    C41   T    
C64   H51   S    
C55   H29   S    
O13   V1    S    
O3    V1    S    
C59   H33   S    
C21   C60   S    
C1    O15   A    
C17   C45   S    
O8    V4    S    
C2    O16   A    
C67   H58   S    
C31   C39   A    
C33   C38   A    
C30   C38   A    
C57   H39   S    
C59   H34   S    
O5    V1    S    
C62   H42   S    
O19   V1    S    
C52   H23   S    
O11   C7    A    
C14   C34   A    
O5    C1    A    
C58   H36   S    
C34   C37   A    
C66   H59   S    
O8    C4    A    
C46   H9    S    
O1    C5    A    
C24   C63   S    
C5    C40   S    
O9    V1    S    
C15   Cl3   S    
C45   H10   S    
C55   C56   S    
C68   H55   S    
C58   C59   S    
C13   Cl1   S    
C50   H13   S    
C45   C46   S    
O14   V2    S    
C56   H28   S    
O4    V2    S    
C46   C47   S    
C16   Cl4   S    
C36   C39   A    
C65   H47   S    
C49   C50   S    
C51   H24   S    
C64   H50   S    
C25   C29   A    
C19   C23   A    
O12   C8    A    
C11   C43   T    
C20   C54   S    
O6    V2    S    
C54   H32   S    
O20   V2    S    
C47   H5    S    
C9    C10   S    
O6    C2    A    
C47   H6    S    
C48   C49   S    
C17   C21   A    
C59   H35   S    
C19   C51   S    
C61   H44   S    
O2    C6    A    
C22   C26   A    
O10   V2    S    
H4    C28   S    
C66   H60   S    
O15   V3    S    
C46   H8    S    
C14   C18   A    
C63   C64   S    
H1    C25   S    
C49   H15   S    
C45   H11   S    
C11   C12   S    
C68   H56   S    
H3    C27   S    
O1    V3    S    
C57   C58   S    
C26   C30   A    
C50   H14   S    
O2    V4    S    
C65   H48   S    
C3    C42   S    
O17   V3    S    
C35   C40   A    
C4    O14   A    
C12   C44   T    
C67   H57   S    
C60   H45   S    
O7    V3    S    
C4    C41   S    
C29   C37   A    
C67   C68   S    
C51   H25   S    
C53   H20   S    
C29   C33   A    
C64   C65   S    
C1    C44   S    
C23   C66   S    
C48   H17   S    
C56   H26   S    
C18   C22   A    
C31   C35   A    
O18   V4    S    
C32   C36   A    
C22   C57   S    
O9    C5    A    
O3    C7    A    
C8    C37   S    
C7    C38   S    
O11   V3    S    
C55   H30   S    
C62   H40   S    
C3    O13   A    
C52   H22   S    
C21   C25   A    
O7    C3    A    
C61   H43   S    
C23   C27   A    
C52   C53   S    
H2    C26   S    
C47   H7    S    
C18   C48   S    
O12   V4    S    
C28   C32   A    
C20   C24   A    
C57   H38   S    
C32   C40   A    
O4    C8    A    
C54   C55   S    
C62   H41   S    
C13   C17   A    
C63   H52   S    
C15   C19   A    
C58   H37   S    
C24   C28   A    
C61   C62   S    
