data_mof_unit_62478.cif
_audit_creation_date              2012-12-10T18:16:08-0500
_audit_creation_method            fapswitch 2.2
_symmetry_space_group_name_H-M    P1
_symmetry_Int_Tables_number       1
_space_group_crystal_system       triclinic
_cell_length_a                    42.412941
_cell_length_b                    29.208819
_cell_length_c                    29.20248
_cell_angle_alpha                 89.998669
_cell_angle_beta                  133.889954
_cell_angle_gamma                 90.018918
_cell_volume                      26071.747272

loop_
_atom_site_label
_atom_site_type_symbol
_atom_type_description
_atom_site_fract_x
_atom_site_fract_y
_atom_site_fract_z
_atom_type_partial_charge
C1    C     C_R   0.499975 0.586679 0.499994 0.908454
C2    C     C_1   0.834581 0.001156 0.333721 -0.006410
C3    C     C_3   0.761121 0.968604 0.230033 -0.019961
C4    C     C_1   0.372590 0.500532 0.372715 -0.175374
C5    C     C_1   0.872591 0.000558 0.372716 -0.175358
C6    C     C_1   0.121176 0.500124 0.119524 -0.205907
C7    C     C_1   0.621176 0.000129 0.119526 -0.205910
C8    C     C_3   0.260245 0.493619 0.299257 0.535988
C9    C     C_3   0.760250 0.993376 0.299209 0.535989
C10   C     C_3   0.289015 0.501368 0.286393 0.048848
C11   C     C_3   0.789016 0.001433 0.286396 0.048838
C12   C     C_1   0.277531 0.586001 0.244127 0.184321
C13   C     C_1   0.159155 0.500440 0.155905 -0.035334
C14   C     C_1   0.278361 0.432625 0.217281 0.187070
C15   C     C_1   0.777508 0.086277 0.244710 0.184321
C16   C     C_1   0.778378 0.933103 0.216813 0.187076
C17   C     C_3   0.244999 0.482119 0.360982 0.078627
C18   C     C_3   0.247220 0.523675 0.395002 -0.335642
C19   C     C_3   0.212290 0.521204 0.397084 -0.950708
C20   C     C_3   0.745009 0.981324 0.360856 0.078623
C21   C     C_3   0.747219 0.022654 0.395159 -0.335643
C22   C     C_3   0.712290 0.019909 0.397224 -0.950716
C23   C     C_1   0.659156 0.000460 0.155908 -0.035337
C24   C     C_1   0.499951 0.637262 0.499943 -0.216224
C25   C     C_1   0.499968 0.362738 0.499963 -0.215784
C26   C     C_1   0.999950 0.137262 0.499943 -0.216222
C27   C     C_1   0.999968 0.862738 0.499963 -0.215785
C28   C     C_1   0.499934 0.679400 0.499920 0.008971
C29   C     C_1   0.499965 0.320600 0.499953 0.008756
C30   C     C_1   0.999934 0.179399 0.499920 0.008986
C31   C     C_R   0.499978 0.413321 0.499999 0.908052
C32   C     C_1   0.999965 0.820600 0.499953 0.008742
C33   C     C_1   0.499921 0.729135 0.499910 0.010730
C34   C     C_1   0.499966 0.270864 0.499956 0.010452
C35   C     C_1   0.999921 0.229135 0.499910 0.010744
C36   C     C_1   0.999966 0.770864 0.499957 0.010438
C37   C     C_1   0.499917 0.771272 0.499912 0.009685
C38   C     C_1   0.499970 0.228727 0.499966 0.009489
C39   C     C_1   0.999917 0.271272 0.499912 0.009696
C40   C     C_1   0.999970 0.728727 0.499966 0.009478
C41   C     C_1   0.499918 0.821008 0.499924 0.007124
C42   C     C_R   0.999974 0.086679 0.499994 0.908475
C43   C     C_1   0.499974 0.178991 0.499981 0.006972
C44   C     C_1   0.999918 0.321008 0.499924 0.007131
C45   C     C_1   0.999974 0.678991 0.499981 0.006964
C46   C     C_1   0.499926 0.863146 0.499942 -0.211428
C47   C     C_1   0.499975 0.136853 0.499991 -0.211532
C48   C     C_1   0.999926 0.363146 0.499942 -0.211424
C49   C     C_1   0.999975 0.636853 0.499991 -0.211538
C50   C     C_R   0.417122 0.499800 0.417255 0.948581
C51   C     C_R   0.917122 0.999791 0.417255 0.948579
C52   C     C_1   0.635843 0.499994 0.635573 -0.219163
C53   C     C_R   0.999978 0.913321 0.499999 0.908033
C54   C     C_1   0.135843 0.999994 0.635573 -0.219163
C55   C     C_1   0.677114 0.499989 0.676826 0.018064
C56   C     C_1   0.177114 0.999989 0.676826 0.018065
C57   C     C_1   0.726260 0.499983 0.726024 0.004762
C58   C     C_1   0.226260 0.999983 0.726024 0.004762
C59   C     C_1   0.767533 0.499979 0.767363 0.004800
C60   C     C_1   0.267533 0.999979 0.767363 0.004800
C61   C     C_1   0.816679 0.499976 0.816600 0.018237
C62   C     C_1   0.316679 0.999976 0.816600 0.018237
C63   C     C_1   0.857951 0.499977 0.857947 -0.219902
C64   C     C_3   0.204621 0.500880 0.200783 0.109445
C65   C     C_1   0.357951 0.999977 0.857947 -0.219902
C66   C     C_R   0.994875 0.500000 0.081692 0.905574
C67   C     C_R   0.494875 1.000000 0.081692 0.905580
C68   C     C_R   0.076691 0.500017 0.077132 0.948749
C69   C     C_R   0.576691 0.000017 0.077132 0.948754
C70   C     C_R   0.992983 0.500000 0.906352 0.909513
C71   C     C_R   0.492983 0.000000 0.906352 0.909511
C72   C     C_R   0.907986 0.499991 0.908065 0.890691
C73   C     C_R   0.407986 0.999991 0.908065 0.890691
C74   C     C_R   0.585810 0.500000 0.585730 0.888452
C75   C     C_3   0.704622 0.000921 0.200787 0.109443
C76   C     C_R   0.085810 1.000000 0.585730 0.888451
C77   C     C_R   0.499041 0.000000 0.412852 0.897092
C78   C     C_R   0.999041 0.500000 0.412852 0.897092
C79   C     C_R   0.499948 0.913730 0.499975 0.896853
C80   C     C_R   0.499966 0.086270 0.499992 0.896853
C81   C     C_R   0.999948 0.413730 0.499975 0.896854
C82   C     C_R   0.999966 0.586270 0.499992 0.896853
C83   C     C_R   0.500806 0.000000 0.587096 0.896717
C84   C     C_R   0.000806 0.500000 0.587096 0.896718
C85   C     C_1   0.995622 0.500000 0.133011 -0.221820
C86   C     C_3   0.232345 0.508855 0.185621 -0.200027
C87   C     C_1   0.495622 1.000000 0.133011 -0.221816
C88   C     C_1   0.996249 0.500001 0.175771 0.004227
C89   C     C_1   0.496250 0.000001 0.175771 0.004231
C90   C     C_1   0.996972 0.500002 0.226218 0.007724
C91   C     C_1   0.496972 0.000001 0.226218 0.007730
C92   C     C_1   0.497554 0.000002 0.268933 0.007864
C93   C     C_1   0.997554 0.500002 0.268932 0.007858
C94   C     C_1   0.498186 0.000001 0.319290 0.005918
C95   C     C_1   0.998186 0.500002 0.319290 0.005914
C96   C     C_1   0.498644 0.000001 0.361883 -0.212078
C97   C     C_3   0.732341 0.009212 0.185678 -0.200031
C98   C     C_1   0.998644 0.500001 0.361883 -0.212081
C99   C     C_1   0.994064 0.500001 0.856836 -0.219577
C100  C     C_1   0.494064 0.000002 0.856836 -0.219577
C101  C     C_3   0.231840 0.534800 0.256726 -0.287136
C102  C     C_3   0.232304 0.459537 0.243622 -0.289503
C103  C     C_3   0.731832 0.034646 0.256960 -0.287127
C104  C     C_3   0.732317 0.959481 0.243343 -0.289505
C105  C     C_1   0.995317 0.500002 0.815957 0.006991
C106  C     C_1   0.495317 0.000002 0.815957 0.006991
C107  C     C_1   0.996975 0.500002 0.767887 0.009088
C108  C     C_1   0.334581 0.501104 0.333718 -0.006411
C109  C     C_1   0.496975 0.000002 0.767887 0.009088
C110  C     C_1   0.498365 0.000001 0.727152 0.008645
C111  C     C_1   0.998365 0.500001 0.727152 0.008644
C112  C     C_1   0.499820 0.000001 0.678871 0.006864
C113  C     C_1   0.999820 0.500001 0.678871 0.006863
C114  C     C_1   0.500664 0.000000 0.637569 -0.211860
C115  C     C_1   0.000664 0.500000 0.637569 -0.211860
C116  C     C_3   0.260690 0.541727 0.243052 -0.021907
C117  C     C_3   0.261113 0.468349 0.230255 -0.019945
C118  C     C_3   0.760678 0.041887 0.243332 -0.021891
H1    H     H_    0.218075 0.561806 0.265386 0.144726
H2    H     H_    0.242430 0.555501 0.369982 0.217822
H3    H     H_    0.179130 0.520690 0.348126 0.264784
H4    H     H_    0.214922 0.551685 0.422289 0.270284
H5    H     H_    0.216831 0.489954 0.422808 0.266397
H6    H     H_    0.751118 0.949786 0.387286 0.167423
H7    H     H_    0.711255 0.978028 0.312568 0.123051
H8    H     H_    0.780041 0.024086 0.444542 0.237204
H9    H     H_    0.742422 0.054621 0.370358 0.217825
H10   H     H_    0.679131 0.019496 0.348262 0.264781
H11   H     H_    0.714915 0.050229 0.422637 0.270288
H12   H     H_    0.219194 0.426203 0.242522 0.148478
H13   H     H_    0.716839 0.988510 0.422732 0.266398
H14   H     H_    0.718059 0.061486 0.265805 0.144715
H15   H     H_    0.719218 0.926058 0.242017 0.148482
H16   H     H_    0.219237 0.515046 0.137502 0.151750
H17   H     H_    0.719230 0.015647 0.137602 0.151753
H18   H     H_    0.251100 0.450724 0.387627 0.167426
H19   H     H_    0.211245 0.478732 0.312717 0.123042
H20   H     H_    0.280042 0.525214 0.444375 0.237202
N1    N     N_1   0.290836 0.620914 0.245004 -0.198860
N2    N     N_1   0.291985 0.404456 0.207081 -0.197833
N3    N     N_1   0.790804 0.121283 0.245827 -0.198863
N4    N     N_1   0.792010 0.905110 0.206418 -0.197825
O1    O     O_R   0.500400 0.563130 0.536080 -0.596790
O2    O     O_R   0.963990 0.500000 0.400890 -0.592747
O3    O     O_R   0.534410 0.000000 0.471310 -0.594117
O4    O     O_R   0.034410 0.500000 0.471310 -0.594119
O5    O     O_R   0.464750 0.936830 0.464780 -0.592902
O6    O     O_R   0.464750 0.063170 0.464780 -0.593042
O7    O     O_R   0.964750 0.436830 0.464780 -0.592897
O8    O     O_R   0.964750 0.563170 0.464780 -0.593046
O9    O     O_R   0.535170 0.936820 0.535200 -0.593687
O10   O     O_R   0.535170 0.063180 0.535200 -0.593638
O11   O     O_R   0.035170 0.436820 0.535200 -0.593689
O12   O     O_R   0.500400 0.436870 0.536080 -0.596533
O13   O     O_R   0.035170 0.563180 0.535200 -0.593636
O14   O     O_R   0.465520 0.000000 0.528690 -0.593289
O15   O     O_R   0.965520 0.500000 0.528690 -0.593288
O16   O     O_R   0.535930 0.000000 0.599110 -0.593075
O17   O     O_R   0.035930 0.500000 0.599110 -0.593075
O18   O     O_R   0.499540 0.563080 0.463930 -0.596011
O19   O     O_R   0.499540 0.436920 0.463930 -0.596100
O20   O     O_R   0.999540 0.063080 0.463930 -0.596011
O21   O     O_R   0.999540 0.936920 0.463930 -0.596105
O22   O     O_R   0.438030 0.500000 0.473700 -0.607025
O23   O     O_R   0.000400 0.063130 0.536080 -0.596783
O24   O     O_R   0.938030 0.000000 0.473700 -0.607034
O25   O     O_R   0.437170 0.500000 0.401550 -0.613271
O26   O     O_R   0.937170 0.000000 0.401550 -0.613265
O27   O     O_R   0.562760 0.500000 0.598450 -0.592156
O28   O     O_R   0.062760 0.000000 0.598450 -0.592156
O29   O     O_R   0.561900 0.500000 0.526300 -0.592121
O30   O     O_R   0.061900 0.000000 0.526300 -0.592121
O31   O     O_R   0.994600 0.535610 0.057840 -0.597140
O32   O     O_R   0.994600 0.464390 0.057840 -0.597700
O33   O     O_R   0.494600 0.035610 0.057840 -0.597130
O34   O     O_R   0.000400 0.936870 0.536080 -0.596535
O35   O     O_R   0.494600 0.964390 0.057840 -0.597708
O36   O     O_R   0.056200 0.535620 0.056290 -0.612347
O37   O     O_R   0.056200 0.464380 0.056290 -0.613678
O38   O     O_R   0.556200 0.035620 0.056290 -0.612328
O39   O     O_R   0.556200 0.964380 0.056290 -0.613702
O40   O     O_R   0.993060 0.535640 0.930020 -0.595975
O41   O     O_R   0.993060 0.464360 0.930020 -0.595928
O42   O     O_R   0.493060 0.035640 0.930020 -0.595976
O43   O     O_R   0.493060 0.964360 0.930020 -0.595930
O44   O     O_3   0.278369 0.485346 0.361160 -0.638433
O45   O     O_R   0.931470 0.535630 0.931560 -0.591327
O46   O     O_3   0.778377 0.984798 0.361055 -0.638441
O47   O     O_R   0.931470 0.464370 0.931560 -0.591375
O48   O     O_R   0.431470 0.035630 0.931560 -0.591326
O49   O     O_R   0.431470 0.964370 0.931560 -0.591376
O50   O     O_R   0.463990 0.000000 0.400890 -0.592746
Zn1   Zn    Zn3+2 0.500540 0.500000 0.548170 0.979837
Zn2   Zn    Zn3+2 0.952950 0.500000 0.452980 0.973826
Zn3   Zn    Zn3+2 0.546980 0.000000 0.547020 0.971581
Zn4   Zn    Zn3+2 0.046980 0.500000 0.547020 0.971576
Zn5   Zn    Zn3+2 0.000540 0.000000 0.548170 0.979831
Zn6   Zn    Zn3+2 0.499390 0.500000 0.451830 0.977980
Zn7   Zn    Zn3+2 0.999390 0.000000 0.451830 0.977984
Zn8   Zn    Zn3+2 0.993830 0.547580 0.993940 0.972674
Zn9   Zn    Zn3+2 0.993830 0.452420 0.993940 0.971316
Zn10  Zn    Zn3+2 0.493830 0.047580 0.993940 0.972694
Zn11  Zn    Zn3+2 0.493830 0.952420 0.993940 0.971289
Zn12  Zn    Zn3+2 0.452950 0.000000 0.452980 0.973827

loop_
_geom_bond_atom_site_label_1
_geom_bond_atom_site_label_2
_ccdc_geom_bond_type
C3    C104  S    
C25   C31   S    
C31   O19   A    
C19   H4    S    
O26   Zn7   S    
C77   O3    A    
C22   H13   S    
C10   C108  S    
O34   Zn5   S    
C9    O46   S    
C66   C85   S    
C112  C114  T    
C95   C98   T    
C81   O11   A    
C64   C102  S    
C4    C108  T    
C19   H5    S    
C30   C35   S    
C42   O20   A    
C32   C36   S    
O3    Zn3   S    
C60   C62   S    
O5    Zn12  S    
O29   Zn6   S    
O38   Zn10  S    
C69   O38   A    
C46   C79   S    
C7    C23   T    
C57   C59   T    
O2    Zn2   S    
C58   C60   T    
O1    Zn1   S    
C75   C97   S    
C65   C73   S    
C48   C81   S    
O30   Zn7   S    
C86   C116  S    
C18   C19   S    
O9    Zn3   S    
C97   C118  S    
C76   O30   A    
O8    Zn2   S    
C74   O27   A    
O13   Zn4   S    
C15   N3    T    
O12   Zn1   S    
C70   O40   A    
O37   Zn9   S    
C67   O33   A    
C78   C98   S    
C41   C46   T    
O35   Zn11  S    
C66   O31   A    
C21   H9    S    
C103  H14   S    
C73   O48   A    
O10   Zn3   S    
C52   C55   T    
O27   Zn1   S    
O6    Zn12  S    
C6    C68   S    
O21   Zn7   S    
C93   C95   S    
C21   C22   S    
O31   Zn8   S    
C75   C103  S    
C83   C114  S    
C51   O26   A    
O39   Zn11  S    
O49   Zn11  S    
C47   C80   S    
C71   O43   A    
C2    C11   S    
C64   C86   S    
C84   O17   A    
C86   H16   S    
C25   C29   T    
O17   Zn4   S    
C99   C105  T    
C54   C56   T    
C59   C61   S    
O42   Zn10  S    
C104  H15   S    
C50   O22   A    
O15   Zn2   S    
C101  H1    S    
C102  H12   S    
C36   C40   T    
O40   Zn8   S    
C12   C116  S    
C8    O44   S    
C67   O35   A    
C23   C75   S    
C91   C92   T    
O22   Zn1   S    
C53   O21   A    
C79   O5    A    
C64   C101  S    
C42   O23   A    
O47   Zn9   S    
O20   Zn7   S    
O32   Zn9   S    
C33   C37   T    
O23   Zn5   S    
C4    C50   S    
C67   C87   S    
O41   Zn9   S    
C49   C82   S    
C16   N4    T    
C72   O45   A    
C1    O1    A    
C78   O2    A    
O7    Zn2   S    
C20   O46   S    
C105  C107  S    
C3    C97   S    
C22   H10   S    
C45   C49   T    
C17   O44   S    
C9    C103  S    
C14   C117  S    
C17   H18   S    
C92   C94   S    
C17   C18   S    
O50   Zn12  S    
C12   N1    T    
C66   O32   A    
C111  C113  S    
C73   O49   A    
C63   C72   S    
C94   C96   T    
C9    C11   S    
C74   O29   A    
C82   O8    A    
C102  C117  S    
C54   C76   S    
C82   O13   A    
O19   Zn6   S    
C14   N2    T    
C28   C33   S    
C26   C30   T    
C84   C115  S    
C87   C89   T    
C22   H11   S    
C75   C104  S    
C38   C43   S    
C2    C5    T    
C89   C91   S    
C97   H17   S    
O4    Zn4   S    
O14   Zn12  S    
C18   H2    S    
C72   O47   A    
C31   O12   A    
C10   C116  S    
C70   C99   S    
C26   C42   S    
C90   C93   T    
C79   O9    A    
C8    C101  S    
C85   C88   T    
C80   O10   A    
O36   Zn8   S    
C19   H3    S    
C77   C96   S    
C62   C65   T    
O11   Zn4   S    
C27   C32   T    
C34   C38   T    
C77   O50   A    
C107  C111  T    
C71   O42   A    
C1    O18   A    
O48   Zn10  S    
C24   C28   T    
O33   Zn10  S    
C88   C90   S    
C7    C69   S    
O18   Zn6   S    
C84   O15   A    
C27   C53   S    
C39   C44   S    
C83   O14   A    
C100  C106  T    
C71   C100  S    
C68   O37   A    
C52   C74   S    
O16   Zn3   S    
C15   C118  S    
C13   C64   S    
O45   Zn8   S    
C76   O28   A    
C40   C45   S    
O43   Zn11  S    
C55   C57   S    
O24   Zn5   S    
C20   H7    S    
C10   C117  S    
C109  C110  T    
C6    C13   T    
C83   O16   A    
C8    C102  S    
C9    C104  S    
C81   O7    A    
C35   C39   T    
C29   C34   S    
C68   O36   A    
O25   Zn6   S    
C56   C58   S    
C86   C117  S    
C37   C41   S    
C110  C112  S    
C20   H6    S    
C3    C11   S    
C78   O4    A    
C18   H20   S    
C103  C118  S    
C70   O41   A    
C80   O6    A    
C20   C21   S    
C1    C24   S    
C8    C10   S    
C50   O25   A    
C101  C116  S    
C5    C51   S    
C51   O24   A    
C17   H19   S    
C113  C115  T    
C21   H8    S    
C11   C118  S    
C43   C47   T    
O28   Zn5   S    
C3    C16   S    
C44   C48   T    
C53   O34   A    
C69   O39   A    
C61   C63   T    
C106  C109  S    
