data_mof_unit_46908.cif
_audit_creation_date              2013-03-05T16:01:47-0500
_audit_creation_method            fapswitch 2.2
_symmetry_space_group_name_H-M    P1
_symmetry_Int_Tables_number       1
_space_group_crystal_system       triclinic
_cell_length_a                    14.885885
_cell_length_b                    14.179626
_cell_length_c                    11.529891
_cell_angle_alpha                 89.999797
_cell_angle_beta                  88.40453
_cell_angle_gamma                 90.000034
_cell_volume                      2432.74303107

loop_
_atom_site_label
_atom_site_type_symbol
_atom_site_description
_atom_site_fract_x
_atom_site_fract_y
_atom_site_fract_z
_atom_type_partial_charge
O1    O     O_R   0.367850 0.580280 0.500030 -0.618487
O2    O     O_R   0.632150 0.419720 0.499970 -0.617129
O3    O     O_R   0.632150 0.580280 0.499970 -0.618485
O4    O     O_R   0.367850 0.419720 0.500030 -0.617131
C1    C     C_R   0.327429 0.500001 0.500817 0.881013
C2    C     C_R   0.672571 0.500001 0.499183 0.881014
O5    O     O_R   0.500010 0.580270 0.334450 -0.616571
O6    O     O_R   0.499990 0.419730 0.665550 -0.621447
O7    O     O_R   0.499990 0.580270 0.665550 -0.616572
O8    O     O_R   0.500010 0.419730 0.334450 -0.621443
C3    C     C_R   0.500315 0.500001 0.282084 0.888653
C4    C     C_R   0.499685 0.500001 0.717916 0.888650
Zn1   Zn    Zn3+2 0.500000 0.607200 0.500000 0.935375
Zn2   Zn    Zn3+2 0.500000 0.392800 0.500000 0.933952
C5    C     C_1   0.500308 0.499999 0.161589 -0.197221
C6    C     C_1   0.499692 0.499999 0.838411 -0.197218
C7    C     C_1   0.500143 0.499996 0.059353 0.001448
C8    C     C_1   0.499857 0.499996 0.940647 0.001449
C9    C     C_R   0.815543 0.500145 0.391130 0.027845
C10   C     C_R   0.184457 0.500146 0.608870 0.027847
C11   C     C_R   0.767752 0.500020 0.497099 -0.099447
C12   C     C_R   0.232248 0.500020 0.502901 -0.099445
C13   C     C_R   0.809799 0.500016 0.602746 -0.277699
C14   C     C_R   0.190201 0.500015 0.397254 -0.277699
C15   C     C_R   0.903002 0.500093 0.606189 0.117629
C16   C     C_R   0.096998 0.500092 0.393811 0.117629
C17   C     C_R   0.953086 0.500122 0.499584 -0.026797
C18   C     C_R   0.046914 0.500122 0.500416 -0.026797
C19   C     C_R   0.909190 0.500149 0.392000 0.092828
C20   C     C_R   0.090810 0.500150 0.607999 0.092827
C21   C     C_R   0.947112 0.500133 0.713181 0.181292
C22   C     C_R   0.052888 0.500131 0.286819 0.181292
C23   C     C_R   0.040632 0.500174 0.712609 -0.197833
C24   C     C_R   0.959368 0.500173 0.287390 -0.197833
H1    H     H_    0.768477 0.499969 0.681611 0.156190
H2    H     H_    0.231522 0.499966 0.318389 0.156190
H3    H     H_    0.074200 0.500200 0.794794 0.178274
H4    H     H_    0.925800 0.500198 0.205206 0.178274
C25   C     C_R   0.575271 0.800020 0.463927 0.247552
C26   C     C_R   0.425823 0.200235 0.540678 0.256292
C27   C     C_R   0.424729 0.800019 0.536072 0.247550
C28   C     C_R   0.574176 0.200235 0.459323 0.256289
N1    N     N_R   0.500000 0.750030 0.500000 -0.107122
N2    N     N_R   0.500000 0.249970 0.500000 -0.109529
C29   C     C_R   0.419367 0.899444 0.515110 -0.024773
C30   C     C_R   0.580826 0.100485 0.479152 -0.029421
C31   C     C_R   0.580633 0.899445 0.484890 -0.024772
C32   C     C_R   0.419172 0.100485 0.520851 -0.029423
C33   C     C_R   0.500000 0.949982 0.500001 -0.064703
C34   C     C_R   0.499999 0.050263 0.500001 -0.069918
C35   C     C_R   0.336882 0.949267 0.507957 0.197817
C36   C     C_R   0.664197 0.049770 0.482198 0.200580
C37   C     C_R   0.663118 0.949268 0.492045 0.197815
C38   C     C_R   0.335801 0.049769 0.517810 0.200583
N3    N     N_3   0.769421 0.500286 0.283154 -0.479632
H5    H     H_    0.728449 0.560085 0.280467 0.185661
H6    H     H_    0.728520 0.440452 0.280190 0.184473
N4    N     N_3   0.230579 0.500290 0.716846 -0.479631
H7    H     H_    0.271550 0.560090 0.719531 0.185660
H8    H     H_    0.271481 0.440456 0.719812 0.184471
C39   C     C_3   0.896427 0.500137 0.828588 -0.926132
H9    H     H_    0.853663 0.564126 0.836064 0.245386
H10   H     H_    0.853735 0.436098 0.836125 0.245291
H11   H     H_    0.942377 0.500190 0.902892 0.236954
C40   C     C_3   0.103573 0.500135 0.171411 -0.926133
H12   H     H_    0.146264 0.436096 0.163875 0.245292
H13   H     H_    0.057623 0.500189 0.097108 0.236955
H14   H     H_    0.146338 0.564124 0.163935 0.245386
C41   C     C_3   0.643264 0.755280 0.381263 -0.820145
H15   H     H_    0.610446 0.704102 0.324068 0.256902
H16   H     H_    0.673852 0.809306 0.322642 0.214788
H17   H     H_    0.698341 0.720311 0.427090 0.247316
C42   C     C_3   0.360057 0.247154 0.623882 -0.826119
H18   H     H_    0.391615 0.304562 0.671664 0.265307
H19   H     H_    0.301081 0.275295 0.578770 0.247161
H20   H     H_    0.337934 0.196752 0.692579 0.207773
C43   C     C_3   0.356731 0.755277 0.618729 -0.820137
H21   H     H_    0.389545 0.704092 0.675919 0.256906
H22   H     H_    0.326146 0.809301 0.677356 0.214785
H23   H     H_    0.301653 0.720316 0.572896 0.247316
C44   C     C_3   0.639943 0.247152 0.376118 -0.826120
H24   H     H_    0.608382 0.304554 0.328327 0.265300
H25   H     H_    0.698916 0.275300 0.421229 0.247163
H26   H     H_    0.662074 0.196747 0.307429 0.207776
C45   C     C_3   0.253076 0.897016 0.472049 -0.908817
H27   H     H_    0.224556 0.930824 0.394492 0.240979
H28   H     H_    0.267271 0.824494 0.441527 0.245876
H29   H     H_    0.202475 0.895530 0.544604 0.247854
C46   C     C_3   0.752894 0.102909 0.488364 -0.901430
H30   H     H_    0.810093 0.061046 0.518699 0.245401
H31   H     H_    0.774716 0.127854 0.401082 0.240583
H32   H     H_    0.745981 0.162620 0.550238 0.244947
C47   C     C_3   0.746926 0.897017 0.527943 -0.908813
H33   H     H_    0.775441 0.930814 0.605510 0.240973
H34   H     H_    0.732737 0.824489 0.558446 0.245878
H35   H     H_    0.797530 0.895548 0.455391 0.247858
C48   C     C_3   0.247101 0.102904 0.511658 -0.901426
H36   H     H_    0.189896 0.061036 0.481353 0.245400
H37   H     H_    0.225293 0.127859 0.598940 0.240579
H38   H     H_    0.254004 0.162608 0.449770 0.244948

loop_
_geom_bond_atom_site_label_1
_geom_bond_atom_site_label_2
_geom_bond_distance
_ccdc_geom_bond_type
C15   C21   1.413517 A    
N3    H5    1.045459 S    
C16   C22   1.413516 A    
C47   H33   1.109421 S    
C44   H26   1.109985 S    
C17   C19   1.418009 A    
C27   N1    1.380194 A    
C42   H18   1.096015 S    
C21   C39   1.511270 S    
O3    C2    1.287479 A    
C35   C45   1.518360 S    
C48   H36   1.102844 S    
C31   C33   1.404614 A    
C10   C20   1.394333 A    
C45   H27   1.109424 S    
O5    C3    1.288362 A    
C14   H2    1.083539 S    
O1    C1    1.287479 A    
C25   C31   1.432980 A    
C9    C11   1.396624 A    
C14   C16   1.389081 A    
C27   C43   1.510492 S    
C45   H29   1.110203 S    
C29   C35   1.420978 A    
N4    H8    1.045394 S    
C30   C36   1.435617 A    
C26   C42   1.506328 S    
C41   H16   1.110812 S    
C28   C30   1.436626 A    
C39   H10   1.110357 S    
O7    Zn1   1.946590 S    
C44   H25   1.107215 S    
C3    C5    1.389295 S    
C1    C12   1.416385 S    
C4    C6    1.389295 S    
C40   H13   1.111057 S    
C21   C23   1.391959 A    
C38   C48   1.523584 S    
C46   H31   1.106876 S    
C26   N2    1.381196 A    
C39   H9    1.110359 S    
O3    Zn1   2.003853 S    
C31   C37   1.420982 A    
C45   H28   1.105365 S    
C47   H34   1.105357 S    
C42   H19   1.107219 S    
C36   C46   1.523579 S    
O2    C2    1.287512 A    
C28   C44   1.506332 S    
C28   N2    1.381191 A    
C48   H37   1.106876 S    
C44   H24   1.096018 S    
C43   H22   1.110812 S    
C37   C47   1.518359 S    
O8    Zn2   1.946590 S    
C25   N1    1.380194 A    
N4    H7    1.045460 S    
C43   H21   1.103666 S    
C2    C11   1.416385 S    
C19   C24   1.400905 A    
C23   H3    1.083501 S    
C22   C24   1.391959 A    
C41   H17   1.105136 S    
C32   C38   1.435625 A    
C29   C33   1.404611 A    
O6    C4    1.288389 A    
C40   H14   1.110361 S    
C7    C8    1.368794 S    
C25   C41   1.510492 S    
C46   H32   1.110099 S    
C32   C34   1.412964 A    
C10   C12   1.396624 A    
C40   H12   1.110356 S    
C47   H35   1.110200 S    
C13   H1    1.083539 S    
N3    H6    1.045392 S    
C42   H20   1.109987 S    
C12   C14   1.384903 A    
O1    Zn1   2.003854 S    
C10   N4    1.438360 S    
C9    C19   1.394333 A    
Zn1   N1    2.025276 S    
C48   H38   1.110105 S    
C36   C37   1.429655 A    
Zn2   N2    2.025277 S    
C43   H23   1.105139 S    
C9    N3    1.438361 S    
C26   C32   1.436633 A    
O6    Zn2   1.946592 S    
C20   C23   1.400905 A    
C24   H4    1.083502 S    
O4    C1    1.287511 A    
C5    C7    1.178837 T    
C15   C17   1.419726 A    
C30   C34   1.412961 A    
C16   C18   1.419725 A    
C35   C38   1.429655 A    
C11   C13   1.384902 A    
C39   H11   1.111058 S    
C18   C20   1.418009 A    
C13   C15   1.389081 A    
O4    Zn2   2.003854 S    
C41   H15   1.103666 S    
O2    Zn2   2.003852 S    
O7    C4    1.288362 A    
O8    C3    1.288389 A    
O5    Zn1   1.946593 S    
C6    C8    1.178837 T    
C33   C34   1.421939 A    
C17   C18   1.397020 A    
C27   C29   1.432977 A    
C46   H30   1.102834 S    
C22   C40   1.511271 S    
