data_mof_unit_54743.cif
_audit_creation_date              2012-12-10T17:49:35-0500
_audit_creation_method            fapswitch 2.2
_symmetry_space_group_name_H-M    P1
_symmetry_Int_Tables_number       1
_space_group_crystal_system       triclinic
_cell_length_a                    10.520151
_cell_length_b                    10.640517
_cell_length_c                    9.941603
_cell_angle_alpha                 89.979649
_cell_angle_beta                  90.051632
_cell_angle_gamma                 91.461386
_cell_volume                      1112.49902159

loop_
_atom_site_label
_atom_site_type_symbol
_atom_type_description
_atom_site_fract_x
_atom_site_fract_y
_atom_site_fract_z
_atom_type_partial_charge
C1    C     C_R   0.504266 0.260785 0.500222 0.844415
C2    C     C_R   0.608031 0.068372 0.576664 0.105978
C3    C     C_R   0.513703 0.128610 0.500623 -0.090792
C4    C     C_R   0.257642 0.500408 0.500349 0.852552
C5    C     C_R   0.425240 0.062257 0.422432 -0.219128
C6    C     C_R   0.425275 0.933965 0.422287 -0.200303
C7    C     C_R   0.514197 0.871935 0.499776 -0.103750
C8    C     C_R   0.333703 0.336048 0.139089 -0.151594
C9    C     C_R   0.250805 0.255666 0.069233 -0.198251
C10   C     C_R   0.250247 0.255973 0.930006 -0.186343
C11   C     C_R   0.332876 0.336279 0.859960 -0.134961
C12   C     C_3   0.958165 0.464751 0.377102 -0.121195
C13   C     C_R   0.417723 0.419372 0.927557 0.175377
C14   C     C_R   0.417911 0.419358 0.071870 0.173929
C15   C     C_R   0.578803 0.577114 0.071467 -0.111997
C16   C     C_R   0.504515 0.739363 0.499981 0.867704
C17   C     C_R   0.578813 0.577052 0.928528 -0.106811
C18   C     C_R   0.742282 0.499175 0.499913 0.857606
C19   C     C_3   0.039599 0.532616 0.622369 0.033626
C20   C     C_3   0.954729 0.416016 0.593837 -0.230545
C21   C     C_3   0.877004 0.498257 0.499555 -0.013502
C22   C     C_3   0.959434 0.615286 0.530375 -0.229723
C23   C     C_3   0.038374 0.384127 0.471946 0.189397
C24   C     C_3   0.043631 0.581670 0.408497 -0.200340
C25   C     C_1   0.083709 0.570191 0.756976 0.180373
C26   C     C_3   0.087602 0.252977 0.443209 -0.448364
C27   C     C_3   0.981394 0.163234 0.396461 -0.855039
C28   C     C_3   0.122518 0.499705 0.502109 -0.071527
C29   C     C_R   0.702952 0.135415 0.650369 -0.201170
C30   C     C_R   0.795750 0.071967 0.721747 -0.145273
C31   C     C_R   0.797345 0.941418 0.719033 -0.140094
C32   C     C_R   0.705536 0.873862 0.645896 -0.198893
C33   C     C_R   0.608840 0.936604 0.575303 0.103483
H1    H     H_    0.915829 0.349137 0.669883 0.133242
H2    H     H_    0.643315 0.640116 0.875045 0.145125
H3    H     H_    0.923694 0.709856 0.554470 0.135958
H4    H     H_    0.083739 0.649077 0.333523 0.156053
H5    H     H_    0.920869 0.436767 0.276691 0.147694
H6    H     H_    0.353908 0.109973 0.364065 0.143479
H7    H     H_    0.708809 0.236797 0.651268 0.159228
H8    H     H_    0.868082 0.124388 0.777207 0.132816
H9    H     H_    0.904714 0.157569 0.472590 0.271437
H10   H     H_    0.941256 0.195749 0.299513 0.254717
H11   H     H_    0.019734 0.067936 0.381801 0.248906
H12   H     H_    0.870738 0.892305 0.772524 0.136528
H13   H     H_    0.160813 0.259380 0.363912 0.192598
H14   H     H_    0.132056 0.215522 0.535826 0.199661
H15   H     H_    0.712790 0.772811 0.643757 0.142827
H16   H     H_    0.353795 0.882654 0.364071 0.155878
H17   H     H_    0.643294 0.640212 0.124969 0.149063
H18   H     H_    0.329920 0.330473 0.245463 0.192529
H19   H     H_    0.186902 0.192480 0.123469 0.149910
H20   H     H_    0.185742 0.193295 0.875744 0.142297
H21   H     H_    0.327470 0.330309 0.753287 0.197750
N1    N     N_R   0.498800 0.498800 0.142780 -0.123267
N2    N     N_R   0.498760 0.498720 0.857170 -0.122658
N3    N     N_1   0.118526 0.599693 0.863073 -0.209774
O1    O     O_R   0.500000 0.316780 0.614690 -0.644938
O2    O     O_R   0.499990 0.316750 0.385360 -0.631742
O3    O     O_R   0.313960 0.499980 0.614650 -0.631964
O4    O     O_R   0.313940 0.499960 0.385310 -0.636020
O5    O     O_R   0.500010 0.683250 0.614640 -0.612829
O6    O     O_R   0.500000 0.683220 0.385310 -0.612551
O7    O     O_R   0.686060 0.500040 0.614690 -0.635425
O8    O     O_R   0.686040 0.500020 0.385350 -0.620075
Zn1   Zn    Zn3+2 0.500010 0.500020 0.653130 0.933233
Zn2   Zn    Zn3+2 0.499990 0.499980 0.346870 0.935467

loop_
_geom_bond_atom_site_label_1
_geom_bond_atom_site_label_2
_ccdc_geom_bond_type
N1    Zn2   S    
C30   H8    S    
C29   C30   A    
C16   O6    A    
C13   C14   A    
C18   C21   S    
C22   H3    S    
C9    C10   A    
C12   C24   S    
C31   C32   A    
C27   H9    S    
C20   C23   S    
C30   C31   A    
C3    C5    A    
C13   N2    A    
C20   H1    S    
C32   C33   A    
C4    O3    A    
C22   C24   S    
C5    H6    S    
C14   N1    A    
O3    Zn1   S    
C1    O1    A    
O4    Zn2   S    
C18   O8    A    
C19   C28   S    
C32   H15   S    
C12   C23   S    
C18   O7    A    
C26   C27   S    
C6    C7    A    
C9    H19   S    
C16   O5    A    
C26   H14   S    
C2    C29   A    
N2    Zn1   S    
C4    O4    A    
C2    C33   A    
C11   H21   S    
C7    C16   S    
C4    C28   S    
C2    C3    A    
C17   N2    A    
C1    O2    A    
C6    H16   S    
C12   H5    S    
C5    C6    A    
C19   C25   S    
O6    Zn2   S    
C15   H17   S    
C23   C28   S    
C10   C11   A    
C26   H13   S    
C25   N3    T    
C27   H10   S    
C11   C13   A    
C19   C22   S    
C20   C21   S    
C29   H7    S    
C24   C28   S    
C24   H4    S    
C31   H12   S    
C23   C26   S    
C8    H18   S    
C15   C17   A    
C7    C33   A    
O5    Zn1   S    
C12   C21   S    
C10   H20   S    
C8    C14   A    
C17   H2    S    
O2    Zn2   S    
C21   C22   S    
O8    Zn2   S    
C27   H11   S    
O1    Zn1   S    
C19   C20   S    
C15   N1    A    
C8    C9    A    
C1    C3    S    
O7    Zn1   S    
