data_mof_unit_54941.cif
_audit_creation_date              2013-03-05T16:25:57-0500
_audit_creation_method            fapswitch 2.2
_symmetry_space_group_name_H-M    P1
_symmetry_Int_Tables_number       1
_space_group_crystal_system       triclinic
_cell_length_a                    18.375848
_cell_length_b                    18.312588
_cell_length_c                    18.309468
_cell_angle_alpha                 119.996071
_cell_angle_beta                  90.160909
_cell_angle_gamma                 120.048675
_cell_volume                      4347.58386917

loop_
_atom_site_label
_atom_site_type_symbol
_atom_site_description
_atom_site_fract_x
_atom_site_fract_y
_atom_site_fract_z
_atom_type_partial_charge
Zn1   Zn    Zn3+2 0.956630 0.413250 0.869870 0.952008
Zn2   Zn    Zn3+2 0.130130 0.586750 0.043370 1.037035
Zn3   Zn    Zn3+2 0.956630 0.413250 0.043380 1.022706
Zn4   Zn    Zn3+2 0.956610 0.586750 0.043370 0.980358
O1    O     O_3   0.000000 0.500000 0.000000 -0.505950
O2    O     O_R   0.055050 0.731580 0.115780 -0.643353
O3    O     O_R   0.884220 0.268410 0.823490 -0.646871
O4    O     O_R   0.176520 0.560720 0.944920 -0.629606
O5    O     O_R   0.884200 0.439290 0.115800 -0.643028
O6    O     O_R   0.176530 0.560720 0.115800 -0.640118
O7    O     O_R   0.884180 0.560710 0.944910 -0.642639
O8    O     O_R   0.055100 0.439290 0.115810 -0.619107
O9    O     O_R   0.884190 0.439280 0.823480 -0.651758
O10   O     O_R   0.055090 0.439280 0.823480 -0.649065
O11   O     O_R   0.884180 0.560710 0.115790 -0.647852
O12   O     O_R   0.176500 0.731590 0.115790 -0.574823
O13   O     O_R   0.884220 0.268420 0.944930 -0.597751
C1    C     C_R   0.139865 0.779675 0.139814 0.907106
C2    C     C_R   0.861619 0.219877 0.859814 0.864360
C3    C     C_R   0.139766 0.500989 0.859565 0.830907
C4    C     C_R   0.861309 0.501356 0.141339 0.846955
C5    C     C_R   0.140126 0.501622 0.141719 0.868698
C6    C     C_R   0.861266 0.500981 0.859903 0.826954
C7    C     C_R   0.937723 0.677634 0.843782 0.066609
C8    C     C_R   0.964270 0.769348 0.852077 0.381644
C9    C     C_R   0.904437 0.770009 0.805218 0.057322
C10   C     C_R   0.818494 0.680274 0.751624 -0.168140
H1    H     H_    0.775968 0.682468 0.713068 0.164268
C11   C     C_R   0.786780 0.591052 0.749606 -0.014309
C12   C     C_R   0.845093 0.590239 0.799484 -0.013481
C13   C     C_R   0.808050 0.502435 0.802602 -0.064554
C14   C     C_R   0.717574 0.415481 0.752973 0.173633
C15   C     C_R   0.663148 0.414141 0.697343 0.119890
C16   C     C_R   0.697928 0.502088 0.696813 -0.075342
C17   C     C_R   0.762147 0.053238 0.714115 0.012945
C18   C     C_R   0.814042 0.108233 0.802805 -0.201467
C19   C     C_R   0.819688 0.052938 0.833322 0.306004
C20   C     C_R   0.761200 0.944443 0.779408 -0.280891
H2    H     H_    0.762755 0.901595 0.803312 0.201107
C21   C     C_R   0.701162 0.891400 0.694939 -0.148263
C22   C     C_R   0.706767 0.946752 0.661180 0.086214
C23   C     C_3   0.635312 0.943209 0.615844 0.417657
C24   C     C_3   0.697751 0.062468 0.675017 -0.172487
H3    H     H_    0.672269 0.100252 0.725503 0.163870
C25   C     C_R   0.733615 0.501794 0.180940 0.064522
C26   C     C_R   0.808245 0.503554 0.200194 -0.132811
C27   C     C_R   0.825402 0.497390 0.272045 0.049681
C28   C     C_R   0.769197 0.494920 0.324987 0.302846
C29   C     C_R   0.698210 0.501092 0.307050 -0.199220
C30   C     C_R   0.678876 0.498047 0.231783 -0.029103
C31   C     C_3   0.655061 0.557968 0.217785 -0.445175
C32   C     C_3   0.717957 0.565534 0.162840 0.318073
H4    H     H_    0.583228 0.509411 0.177868 0.191311
H5    H     H_    0.677881 0.632824 0.281481 0.224218
C33   C     C_R   0.224227 0.946279 0.161359 -0.030692
C34   C     C_R   0.195279 0.891147 0.198764 -0.156436
C35   C     C_R   0.211774 0.945207 0.292307 0.212699
C36   C     C_R   0.267003 0.055215 0.347082 0.198056
C37   C     C_R   0.302862 0.108566 0.306803 -0.180532
C38   C     C_R   0.276118 0.052373 0.213765 0.030714
C39   C     C_3   0.324139 0.058464 0.148421 -0.164981
C40   C     C_3   0.266882 0.939316 0.090701 0.153776
H6    H     H_    0.306151 0.087642 0.116076 0.187958
H7    H     H_    0.219755 0.902827 0.025608 0.148343
C41   C     C_R   0.285764 0.551674 0.212983 0.033536
C42   C     C_R   0.196768 0.511886 0.207085 -0.136791
C43   C     C_R   0.167264 0.491556 0.270770 0.052381
C44   C     C_R   0.221923 0.490375 0.324420 0.307967
C45   C     C_R   0.305545 0.511765 0.315144 -0.235165
C46   C     C_R   0.338374 0.550195 0.264685 0.070646
C47   C     C_3   0.389250 0.532395 0.201094 0.303302
C48   C     C_3   0.330090 0.534953 0.143322 -0.069865
H8    H     H_    0.283213 0.459571 0.077523 0.164874
C49   C     C_R   0.284665 0.547971 0.837842 0.035824
C50   C     C_R   0.195130 0.506528 0.803121 -0.046962
C51   C     C_R   0.163454 0.476713 0.714985 0.134532
C52   C     C_R   0.219180 0.476558 0.662348 -0.152268
H9    H     H_    0.194562 0.450600 0.594221 0.207815
C53   C     C_R   0.305346 0.506755 0.696212 -0.087845
C54   C     C_R   0.338249 0.548291 0.786090 0.002038
C55   C     C_3   0.395689 0.542494 0.838943 0.403597
C56   C     C_3   0.334815 0.541984 0.897184 -0.145776
H10   H     H_    0.369076 0.613442 0.966734 0.189561
Zn5   Zn    Zn3+2 0.543330 0.586660 0.630080 0.995677
Zn6   Zn    Zn3+2 0.543320 0.586660 0.456570 0.999827
Zn7   Zn    Zn3+2 0.369830 0.413160 0.456580 1.081255
Zn8   Zn    Zn3+2 0.543350 0.413170 0.456590 1.032907
O14   O     O_3   0.499960 0.499910 0.499960 -0.521585
O15   O     O_R   0.615770 0.439200 0.384160 -0.608951
O16   O     O_R   0.444870 0.560630 0.676470 -0.654429
O17   O     O_R   0.615730 0.731500 0.555020 -0.598382
O18   O     O_R   0.323450 0.268330 0.384170 -0.600195
O19   O     O_R   0.444860 0.560620 0.384150 -0.647694
O20   O     O_R   0.615780 0.439200 0.555040 -0.604325
O21   O     O_R   0.323420 0.439190 0.384160 -0.597048
O22   O     O_R   0.615760 0.560630 0.676470 -0.649342
O23   O     O_R   0.615740 0.731500 0.676460 -0.652649
O24   O     O_R   0.444900 0.268330 0.384170 -0.651825
O25   O     O_R   0.615750 0.560630 0.384150 -0.648224
O26   O     O_R   0.323430 0.439200 0.555040 -0.599367
C57   C     C_R   0.640496 0.500482 0.360705 0.870375
C58   C     C_R   0.360196 0.500455 0.640079 0.911146
C59   C     C_R   0.640030 0.779928 0.639938 0.837293
C60   C     C_R   0.359994 0.220161 0.359801 0.879758
C61   C     C_R   0.360081 0.501427 0.361387 0.860093
C62   C     C_R   0.640074 0.500204 0.640085 0.829308
C63   C     C_3   0.677470 0.324557 0.760221 -0.877911
H11   H     H_    0.656637 0.253258 0.694118 0.251265
H12   H     H_    0.722559 0.333714 0.809127 0.220499
H13   H     H_    0.618901 0.313476 0.782538 0.253246
C64   C     C_3   0.547930 0.898640 0.635657 -0.889337
H14   H     H_    0.561563 0.931247 0.708116 0.220117
H15   H     H_    0.506084 0.917801 0.616311 0.276200
H16   H     H_    0.509914 0.813148 0.596632 0.246857
C65   C     C_3   0.735467 0.113478 0.625912 -0.705952
H17   H     H_    0.784689 0.198204 0.675077 0.253901
H18   H     H_    0.768783 0.081979 0.582606 0.265828
H19   H     H_    0.680666 0.100575 0.584143 0.258037
C66   C     C_3   0.908254 0.504687 0.297717 -0.734065
H20   H     H_    0.966462 0.567820 0.298193 0.220811
H21   H     H_    0.925793 0.523802 0.365754 0.271250
H22   H     H_    0.898472 0.430004 0.249126 0.257771
N1    N     N_R   0.787017 0.491712 0.399389 0.216843
O27   O     O_R   0.804989 0.566311 0.480357 -0.394819
O28   O     O_R   0.783270 0.412916 0.385953 -0.354830
C67   C     C_3   0.670256 0.508862 0.063299 -0.817821
H23   H     H_    0.646686 0.550558 0.055354 0.250745
H24   H     H_    0.716839 0.505428 0.025310 0.247305
H25   H     H_    0.611709 0.428420 0.034141 0.230240
C68   C     C_3   0.799527 0.677749 0.207031 -0.734689
H26   H     H_    0.839610 0.710774 0.274489 0.239824
H27   H     H_    0.842882 0.682268 0.165247 0.267862
H28   H     H_    0.776724 0.726237 0.214537 0.233950
N2    N     N_R   0.173399 0.889616 0.331667 0.230876
O29   O     O_R   0.174726 0.810654 0.308492 -0.390121
O30   O     O_R   0.136031 0.917260 0.390433 -0.306650
C69   C     C_3   0.011860 0.672571 0.872174 -0.806748
H29   H     H_    0.076925 0.728859 0.873574 0.251868
H30   H     H_    0.020996 0.690432 0.940315 0.245827
H31   H     H_    0.998739 0.596292 0.822521 0.216575
N3    N     N_R   0.292377 0.111517 0.442995 0.228920
O31   O     O_R   0.285939 0.188438 0.489686 -0.333545
O32   O     O_R   0.323092 0.086650 0.484192 -0.312443
C70   C     C_3   0.425563 0.115879 0.185476 -0.694405
H32   H     H_    0.444112 0.102736 0.233298 0.288803
H33   H     H_    0.451023 0.090408 0.129424 0.254956
H34   H     H_    0.458509 0.200208 0.220942 0.216814
N4    N     N_R   0.316148 0.893815 0.081336 0.229617
O33   O     O_R   0.359389 0.910135 0.150347 -0.357697
O34   O     O_R   0.310673 0.829231 0.001676 -0.390902
C71   C     C_3   0.080956 0.476150 0.284423 -0.706797
H35   H     H_    0.076098 0.534606 0.285521 0.216481
H36   H     H_    0.023284 0.396957 0.229749 0.268938
H37   H     H_    0.077189 0.487678 0.349392 0.263182
N5    N     N_R   0.192077 0.466250 0.386714 0.218873
O35   O     O_R   0.238086 0.533446 0.471896 -0.407530
O36   O     O_R   0.119332 0.376756 0.358297 -0.352949
C72   C     C_3   0.489679 0.621355 0.244570 -0.705191
H38   H     H_    0.520348 0.618690 0.191923 0.216007
H39   H     H_    0.501338 0.698101 0.287770 0.268155
H40   H     H_    0.524477 0.613869 0.287232 0.259671
C73   C     C_3   0.372095 0.425512 0.154031 -0.905337
H41   H     H_    0.299588 0.363299 0.128587 0.246058
H42   H     H_    0.397073 0.409872 0.096545 0.253508
H43   H     H_    0.407451 0.422916 0.201008 0.233756
C74   C     C_3   0.377175 0.626198 0.135377 -0.790980
H44   H     H_    0.425734 0.622762 0.100302 0.233920
H45   H     H_    0.327453 0.621229 0.095323 0.270567
H46   H     H_    0.412309 0.701898 0.201905 0.271527
N6    N     N_R   0.051843 0.862829 0.910303 0.194476
O37   O     O_R   0.077641 0.900498 0.994725 -0.414146
O38   O     O_R   0.106781 0.908700 0.878902 -0.384525
C75   C     C_3   0.071910 0.444236 0.674937 -0.759557
H47   H     H_    0.061590 0.504029 0.721032 0.231658
H48   H     H_    0.063520 0.434968 0.610076 0.246354
H49   H     H_    0.019794 0.368673 0.661976 0.260608
N7    N     N_R   0.391560 0.446930 0.788697 0.233571
O39   O     O_R   0.439146 0.434879 0.828461 -0.382184
O40   O     O_R   0.337036 0.370999 0.706905 -0.360025
C76   C     C_3   0.492014 0.640413 0.888973 -0.847950
H50   H     H_    0.493431 0.711328 0.920912 0.235384
H51   H     H_    0.525618 0.643684 0.942123 0.251484
H52   H     H_    0.529979 0.639592 0.841865 0.271773
C77   C     C_3   0.278239 0.442701 0.893047 -0.778131
H53   H     H_    0.232558 0.447822 0.931689 0.223606
H54   H     H_    0.237593 0.373221 0.822932 0.277980
H55   H     H_    0.322595 0.433735 0.923783 0.266751
C78   C     C_3   0.931476 0.866248 0.811879 -0.699952
H56   H     H_    0.955530 0.931385 0.883140 0.273350
H57   H     H_    0.985245 0.886877 0.782870 0.272848
H58   H     H_    0.874853 0.855314 0.774886 0.208528
C79   C     C_3   0.566412 0.321539 0.640218 -0.727528
H59   H     H_    0.557803 0.288552 0.568315 0.251293
H60   H     H_    0.542627 0.257101 0.646660 0.255096
H61   H     H_    0.521402 0.346548 0.658645 0.256135
N8    N     N_R   0.884008 0.104595 0.917178 0.225813
O41   O     O_R   0.966618 0.178659 0.939246 -0.383953
O42   O     O_R   0.864274 0.066368 0.963763 -0.367921
N9    N     N_R   0.619759 0.894682 0.519389 0.240555
O43   O     O_R   0.564545 0.893079 0.472948 -0.383739
O44   O     O_R   0.657863 0.849613 0.478538 -0.380047

loop_
_geom_bond_atom_site_label_1
_geom_bond_atom_site_label_2
_geom_bond_distance
_ccdc_geom_bond_type
C8    N6    1.436458 S    
C74   H45   1.107761 S    
Zn8   O14   1.949396 S    
C33   C40   1.498393 S    
C21   C22   1.393689 A    
C67   H23   1.110701 S    
C47   C73   1.538532 S    
C56   C77   1.536589 S    
C10   C11   1.412982 A    
C22   C23   1.507324 S    
C17   C18   1.398164 A    
C23   C64   1.537173 S    
C44   N5    1.435814 S    
C28   N1    1.436376 S    
C55   C56   1.547476 S    
Zn6   O17   1.930402 S    
N1    O27   1.301346 A    
C75   H47   1.109980 S    
C34   C35   1.416523 A    
C69   H30   1.107957 S    
C9    C10   1.391887 A    
O4    C3    1.280609 A    
C78   H58   1.110534 S    
Zn1   O1    1.942290 S    
Zn5   O23   1.932325 S    
C23   N9    1.471014 S    
C19   C20   1.404106 A    
N4    O34   1.300543 A    
C4    C26   1.454488 S    
C2    C18   1.450795 S    
N3    O32   1.301303 A    
C29   C57   1.447396 S    
C12   C13   1.431055 A    
Zn7   O14   1.948324 S    
N1    O28   1.301105 A    
N5    O36   1.301155 A    
N6    O37   1.300811 A    
C65   H17   1.108709 S    
Zn8   O20   1.933893 S    
O8    C5    1.279638 A    
N8    O41   1.301497 A    
C77   H53   1.108982 S    
O9    C6    1.274239 A    
C78   H57   1.109439 S    
Zn5   O22   1.937518 S    
C71   H37   1.108333 S    
C39   H6    1.112506 S    
C51   C75   1.508721 S    
O16   C58   1.273641 A    
C40   H7    1.111437 S    
Zn3   O8    1.936577 S    
O21   C61   1.278460 A    
C72   H40   1.109005 S    
O19   C61   1.276388 A    
Zn6   O19   1.936327 S    
C5    C42   1.457130 S    
C13   C14   1.420882 A    
C44   C45   1.417272 A    
N7    O40   1.301633 A    
C14   C63   1.525027 S    
C18   C19   1.420886 A    
C71   H35   1.108387 S    
C53   C58   1.445409 S    
C46   C47   1.505894 S    
C17   C24   1.502619 S    
C76   H52   1.109861 S    
C1    C34   1.441534 S    
Zn8   O24   1.931497 S    
C24   C65   1.534979 S    
C27   C66   1.512010 S    
C42   C43   1.423961 A    
C7    C8    1.416284 A    
C37   C38   1.392256 A    
C40   N4    1.468586 S    
C33   C38   1.371188 A    
C72   H39   1.110284 S    
C63   H12   1.105885 S    
C45   C46   1.393138 A    
Zn5   O16   1.942144 S    
C49   C56   1.502150 S    
C70   H34   1.109881 S    
C76   H51   1.110489 S    
C15   C16   1.409691 A    
C73   H42   1.110632 S    
C66   H21   1.107702 S    
C20   H2    1.083429 S    
O2    C1    1.277636 A    
C69   H31   1.107962 S    
C49   C50   1.395811 A    
C43   C71   1.510645 S    
C31   C32   1.533810 S    
C16   C62   1.459934 S    
C79   H61   1.110894 S    
O10   C3    1.273344 A    
C51   C52   1.408243 A    
C70   H33   1.110096 S    
Zn7   O21   1.935324 S    
C45   C61   1.449993 S    
C54   C55   1.506997 S    
N2    O30   1.301224 A    
C25   C32   1.509184 S    
C65   H18   1.111439 S    
C36   C37   1.418112 A    
C52   H9    1.084044 S    
C11   C16   1.416675 A    
C56   H10   1.111133 S    
O6    C5    1.278369 A    
C43   C44   1.418346 A    
C3    C50   1.456271 S    
C78   H56   1.110486 S    
C31   H4    1.111984 S    
C79   H60   1.104682 S    
C68   H27   1.107959 S    
C50   C51   1.427052 A    
C19   N8    1.437722 S    
C11   C12   1.416519 A    
Zn6   O25   1.941696 S    
C9    C78   1.508483 S    
C73   H43   1.110353 S    
C39   C70   1.535096 S    
C27   C28   1.418131 A    
O11   C4    1.276277 A    
C63   H11   1.110377 S    
C65   H19   1.109717 S    
C33   C34   1.388125 A    
O26   C58   1.275861 A    
C30   C31   1.490902 S    
C52   C53   1.404327 A    
C64   H15   1.110334 S    
N4    O33   1.302392 A    
Zn4   O7    1.933936 S    
Zn3   O5    1.941743 S    
O23   C59   1.277135 A    
C75   H48   1.110925 S    
Zn4   O2    1.931351 S    
C28   C29   1.415838 A    
O25   C57   1.278355 A    
N7    O39   1.301431 A    
O3    C2    1.275790 A    
C15   C79   1.525382 S    
C24   H3    1.113483 S    
C72   H38   1.110275 S    
C63   H13   1.110453 S    
C35   N2    1.438918 S    
Zn2   O1    1.948323 S    
Zn1   O9    1.937667 S    
C23   C24   1.541941 S    
C37   C60   1.443231 S    
O13   C2    1.277828 A    
Zn2   O6    1.935370 S    
C10   H1    1.080433 S    
Zn2   O12   1.932130 S    
C76   H50   1.111684 S    
C73   H41   1.111698 S    
Zn6   O14   1.946161 S    
C47   C72   1.541945 S    
O22   C62   1.275779 A    
C26   C27   1.422890 A    
O20   C62   1.276432 A    
C67   H24   1.110855 S    
C64   H14   1.111597 S    
O15   C57   1.273813 A    
Zn1   O3    1.932325 S    
C48   C74   1.535488 S    
Zn2   O4    1.938963 S    
Zn5   O14   1.942141 S    
C55   C76   1.535399 S    
O17   C59   1.274409 A    
C48   H8    1.113310 S    
Zn3   O1    1.946013 S    
C75   H49   1.109715 S    
C66   H20   1.110059 S    
N2    O29   1.301324 A    
C7    C69   1.518390 S    
C41   C48   1.499706 S    
C69   H29   1.109882 S    
C67   H25   1.111653 S    
C77   H55   1.109883 S    
C70   H32   1.109922 S    
C31   H5    1.112721 S    
C32   C68   1.539539 S    
C14   C15   1.408197 A    
Zn4   O11   1.939995 S    
Zn8   O15   1.939996 S    
C68   H26   1.111609 S    
C8    C9    1.401240 A    
C55   N7    1.473612 S    
C47   C48   1.548220 S    
C41   C42   1.394273 A    
Zn7   O18   1.931938 S    
N3    O31   1.300933 A    
C79   H59   1.109544 S    
C21   C59   1.443881 S    
C20   C21   1.402759 A    
Zn7   O26   1.939219 S    
C36   N3    1.438035 S    
O5    C4    1.279020 A    
C35   C36   1.421523 A    
C74   H44   1.109795 S    
N6    O38   1.300853 A    
C25   C30   1.372257 A    
O24   C60   1.278947 A    
O7    C6    1.276334 A    
C66   H22   1.109307 S    
C77   H54   1.111073 S    
Zn3   O13   1.930301 S    
C64   H16   1.110395 S    
N9    O43   1.301402 A    
C71   H36   1.109809 S    
C39   C40   1.540674 S    
C17   C22   1.376567 A    
C7    C12   1.443150 A    
N8    O42   1.301386 A    
C32   C67   1.534878 S    
O18   C60   1.276530 A    
C53   C54   1.390849 A    
C68   H28   1.110780 S    
C25   C26   1.395588 A    
Zn4   O1    1.949546 S    
C74   H46   1.110479 S    
O12   C1    1.276761 A    
C29   C30   1.388897 A    
N5    O35   1.301240 A    
N9    O44   1.302041 A    
C38   C39   1.504442 S    
C49   C54   1.368382 A    
Zn1   O10   1.942143 S    
C41   C46   1.370463 A    
C6    C13   1.451175 S    
