data_mof_unit_64632.cif
_audit_creation_date              2012-12-10T17:28:10-0500
_audit_creation_method            fapswitch 2.2
_symmetry_space_group_name_H-M    P1
_symmetry_Int_Tables_number       1
_space_group_crystal_system       triclinic
_cell_length_a                    29.408498
_cell_length_b                    29.408479
_cell_length_c                    47.311221
_cell_angle_alpha                 89.995673
_cell_angle_beta                  90.001357
_cell_angle_gamma                 90.063779
_cell_volume                      40917.5190702

loop_
_atom_site_label
_atom_site_type_symbol
_atom_type_description
_atom_site_fract_x
_atom_site_fract_y
_atom_site_fract_z
_atom_type_partial_charge
C1    C     C_R   0.085523 0.500022 1.000000 0.827057
C2    C     C_R   0.500022 0.085523 1.000000 0.827043
C3    C     C_R   0.914477 0.499978 0.000000 0.827093
C4    C     C_R   0.499978 0.914477 0.000000 0.827041
C5    C     C_R   0.585523 0.000022 0.500000 0.827041
C6    C     C_R   0.000022 0.585523 0.500000 0.827093
C7    C     C_R   0.414477 0.999978 0.500000 0.827043
C8    C     C_R   0.999978 0.414477 0.500000 0.827056
C9    C     C_R   0.999999 0.499995 0.086186 -0.125046
C10   C     C_R   0.500014 0.999928 0.086180 -0.124857
C11   C     C_R   0.000073 0.500017 0.913819 -0.125029
C12   C     C_R   0.499987 0.000072 0.913819 -0.124932
C13   C     C_R   0.500072 0.999983 0.586181 -0.124933
C14   C     C_R   0.999989 0.499928 0.586181 -0.125029
C15   C     C_R   0.499928 0.000017 0.413820 -0.124857
C16   C     C_R   0.999999 0.499998 0.413814 -0.125045
C17   C     C_R   0.999999 0.499991 0.145624 0.263712
C18   C     C_R   0.500042 0.999762 0.145618 0.263345
C19   C     C_R   0.000245 0.500050 0.854382 0.263359
C20   C     C_R   0.499958 0.000238 0.854381 0.263387
C21   C     C_R   0.500242 0.999951 0.645618 0.263386
C22   C     C_R   0.999964 0.499762 0.645618 0.263360
C23   C     C_R   0.499758 0.000049 0.354382 0.263346
C24   C     C_R   0.999998 0.499995 0.354376 0.263712
C25   C     C_1   0.136635 0.500059 1.000000 -0.186548
C26   C     C_1   0.500058 0.136635 0.000000 -0.186534
C27   C     C_1   0.863365 0.499941 0.000000 -0.186528
C28   C     C_1   0.499942 0.863365 0.999999 -0.186539
C29   C     C_1   0.636635 0.000058 0.500000 -0.186539
C30   C     C_1   0.000059 0.636635 0.500001 -0.186528
C31   C     C_1   0.363365 0.999942 0.500000 -0.186534
C32   C     C_1   0.999941 0.363365 0.499999 -0.186548
C33   C     C_1   0.179002 0.500065 0.999999 0.020037
C34   C     C_1   0.500063 0.179002 0.000001 0.020050
C35   C     C_1   0.820998 0.499935 0.000000 0.020072
C36   C     C_1   0.499937 0.820998 0.999999 0.020044
C37   C     C_1   0.679002 0.000063 0.500000 0.020044
C38   C     C_1   0.000065 0.679002 0.500001 0.020073
C39   C     C_1   0.320998 0.999937 0.500000 0.020050
C40   C     C_1   0.999935 0.320998 0.499999 0.020036
C41   C     C_1   0.229231 0.500057 0.999999 0.022229
C42   C     C_1   0.500054 0.229231 0.000002 0.022252
C43   C     C_1   0.770769 0.499943 0.000001 0.022269
C44   C     C_1   0.499945 0.770769 0.999998 0.022245
C45   C     C_1   0.729231 0.000055 0.499999 0.022246
C46   C     C_1   0.000057 0.729231 0.500002 0.022269
C47   C     C_1   0.270769 0.999945 0.500000 0.022251
C48   C     C_1   0.999943 0.270769 0.499998 0.022229
C49   C     C_1   0.271598 0.500045 0.999999 0.020541
C50   C     C_1   0.500043 0.271598 0.000002 0.020566
C51   C     C_1   0.728402 0.499955 0.000001 0.020580
C52   C     C_1   0.499957 0.728402 0.999998 0.020561
C53   C     C_1   0.771598 0.000043 0.499999 0.020561
C54   C     C_1   0.000045 0.771598 0.500002 0.020580
C55   C     C_1   0.228402 0.999957 0.500001 0.020566
C56   C     C_1   0.999954 0.228402 0.499998 0.020541
C57   C     C_1   0.321828 0.500029 0.999999 0.017888
C58   C     C_1   0.500027 0.321828 0.000003 0.017910
C59   C     C_1   0.678172 0.499971 0.000001 0.017922
C60   C     C_1   0.499973 0.678172 0.999997 0.017906
C61   C     C_1   0.821828 0.000027 0.499999 0.017907
C62   C     C_1   0.000029 0.821828 0.500003 0.017922
C63   C     C_1   0.178172 0.999973 0.500001 0.017909
C64   C     C_1   0.999971 0.178172 0.499997 0.017888
C65   C     C_1   0.364195 0.500015 0.999999 -0.174641
C66   C     C_1   0.500014 0.364195 0.000003 -0.174625
C67   C     C_1   0.635804 0.499985 0.000001 -0.174614
C68   C     C_1   0.499986 0.635805 0.999997 -0.174627
C69   C     C_1   0.864195 0.000014 0.499999 -0.174627
C70   C     C_1   0.000015 0.864195 0.500003 -0.174615
C71   C     C_1   0.135805 0.999986 0.500001 -0.174625
C72   C     C_1   0.999985 0.135804 0.499997 -0.174641
C73   C     C_R   1.000000 0.499998 0.055075 0.873077
C74   C     C_R   0.500002 0.999991 0.055073 0.873024
C75   C     C_R   0.000009 0.500003 0.944927 0.873047
C76   C     C_R   0.499998 0.000009 0.944927 0.873052
C77   C     C_R   0.500009 0.999997 0.555073 0.873052
C78   C     C_R   0.999999 0.499990 0.555073 0.873046
C79   C     C_R   0.499991 0.000003 0.444927 0.873025
C80   C     C_R   1.000000 0.500000 0.444925 0.873077
C81   C     C_R   0.500000 0.415309 0.000001 0.797625
C82   C     C_R   0.584691 0.499999 0.000000 0.797628
C83   C     C_R   0.500000 0.584691 0.999999 0.797625
C84   C     C_R   0.415309 0.500000 1.000000 0.797620
C85   C     C_R   0.000001 0.915309 0.500001 0.797628
C86   C     C_R   0.084691 1.000000 0.500000 0.797625
C87   C     C_R   0.999999 0.084691 0.499999 0.797621
C88   C     C_R   0.915309 0.000000 0.500000 0.797623
C89   C     C_R   0.972943 0.469786 0.309816 0.678559
C90   C     C_R   0.529489 0.027549 0.309804 0.679342
C91   C     C_R   0.027053 0.530201 0.309814 0.678563
C92   C     C_R   0.469788 0.972665 0.309827 0.678532
C93   C     C_R   0.972496 0.529464 0.690193 0.679484
C94   C     C_R   0.470517 0.972445 0.690196 0.679458
C95   C     C_R   0.027320 0.469831 0.690176 0.678676
C96   C     C_R   0.530205 0.027341 0.690173 0.678648
C97   C     C_R   0.472454 0.970510 0.809806 0.679456
C98   C     C_R   0.970550 0.527522 0.809803 0.679484
C99   C     C_R   0.527350 0.030198 0.809825 0.678650
C100  C     C_R   0.030182 0.472696 0.809828 0.678676
C101  C     C_R   0.527540 0.029496 0.190194 0.679343
C102  C     C_R   0.969792 0.472935 0.190186 0.678560
C103  C     C_R   0.472656 0.969796 0.190175 0.678531
C104  C     C_R   0.030209 0.527043 0.190184 0.678562
C105  C     C_R   0.028550 0.530388 0.279952 -0.084159
C106  C     C_R   0.469650 0.971106 0.279962 -0.084254
C107  C     C_R   0.971448 0.469597 0.279955 -0.084157
C108  C     C_R   0.529614 0.029060 0.279952 -0.084231
C109  C     C_R   0.028878 0.469694 0.720042 -0.084095
C110  C     C_R   0.530347 0.028897 0.720038 -0.084115
C111  C     C_R   0.970988 0.529591 0.720044 -0.084067
C112  C     C_R   0.470388 0.970937 0.720047 -0.084093
C113  C     C_R   0.528906 0.030339 0.779959 -0.084119
C114  C     C_R   0.030321 0.471139 0.779963 -0.084094
C115  C     C_R   0.470946 0.970380 0.779955 -0.084090
C116  C     C_R   0.970426 0.529031 0.779951 -0.084071
C117  C     C_R   0.471096 0.969659 0.220041 -0.084255
C118  C     C_R   0.030397 0.528539 0.220045 -0.084157
C119  C     C_R   0.529051 0.029622 0.220045 -0.084230
C120  C     C_R   0.969604 0.471440 0.220047 -0.084158
C121  C     C_R   0.999999 0.499991 0.264968 -0.157721
C122  C     C_R   0.499920 0.999786 0.264967 -0.157563
C123  C     C_R   0.000229 0.499931 0.735033 -0.157513
C124  C     C_R   0.500080 0.000214 0.735033 -0.157512
C125  C     C_R   0.500223 0.000071 0.764967 -0.157512
C126  C     C_R   0.000086 0.499788 0.764967 -0.157512
C127  C     C_R   0.499777 0.999928 0.235033 -0.157563
C128  C     C_R   0.000000 0.499990 0.235032 -0.157721
C129  C     C_R   0.057391 0.560371 0.264909 0.333890
C130  C     C_R   0.439614 0.942310 0.264925 0.333888
C131  C     C_R   0.942608 0.439612 0.264914 0.333888
C132  C     C_R   0.558117 0.059410 0.264955 0.333127
C133  C     C_R   0.057640 0.439690 0.735082 0.334043
C134  C     C_R   0.560384 0.057692 0.735075 0.334021
C135  C     C_R   0.940670 0.558062 0.735039 0.333289
C136  C     C_R   0.441885 0.940588 0.735045 0.333262
C137  C     C_R   0.557702 0.060375 0.764920 0.334021
C138  C     C_R   0.060325 0.442376 0.764927 0.334045
C139  C     C_R   0.440597 0.941876 0.764959 0.333264
C140  C     C_R   0.941957 0.559350 0.764953 0.333288
C141  C     C_R   0.442300 0.939624 0.235080 0.333887
C142  C     C_R   0.060383 0.557379 0.235086 0.333891
C143  C     C_R   0.559401 0.058125 0.235041 0.333128
C144  C     C_R   0.939618 0.442601 0.235091 0.333887
C145  C     C_R   0.014715 0.461211 0.130811 0.410280
C146  C     C_R   0.538739 0.984884 0.130779 0.410157
C147  C     C_R   0.985282 0.538773 0.130809 0.410273
C148  C     C_R   0.461334 0.014735 0.130823 0.410674
C149  C     C_R   0.015185 0.538754 0.869221 0.410089
C150  C     C_R   0.538653 0.985231 0.869176 0.410616
C151  C     C_R   0.985207 0.461332 0.869175 0.410596
C152  C     C_R   0.461275 0.015149 0.869219 0.410104
C153  C     C_R   0.515152 0.961268 0.630780 0.410106
C154  C     C_R   0.038680 0.514798 0.630824 0.410600
C155  C     C_R   0.485234 0.038647 0.630825 0.410616
C156  C     C_R   0.961257 0.484822 0.630780 0.410084
C157  C     C_R   0.514732 0.961340 0.369176 0.410671
C158  C     C_R   0.038778 0.485278 0.369191 0.410274
C159  C     C_R   0.484881 0.038745 0.369221 0.410158
C160  C     C_R   0.961217 0.514714 0.369189 0.410277
C161  C     C_R   0.014118 0.461322 0.101097 -0.313134
C162  C     C_R   0.538620 0.985574 0.101067 -0.313088
C163  C     C_R   0.985880 0.538665 0.101095 -0.313130
C164  C     C_R   0.461423 0.014206 0.101109 -0.313172
C165  C     C_R   0.014494 0.538632 0.898933 -0.313167
C166  C     C_R   0.538564 0.985758 0.898890 -0.313209
C167  C     C_R   0.985732 0.461419 0.898890 -0.313245
C168  C     C_R   0.461394 0.014462 0.898931 -0.313126
C169  C     C_R   0.514464 0.961389 0.601068 -0.313128
C170  C     C_R   0.038589 0.514269 0.601109 -0.313249
C171  C     C_R   0.485759 0.038560 0.601110 -0.313206
C172  C     C_R   0.961376 0.485510 0.601068 -0.313163
C173  C     C_R   0.514204 0.961427 0.398891 -0.313170
C174  C     C_R   0.038669 0.485877 0.398905 -0.313127
C175  C     C_R   0.485573 0.038624 0.398933 -0.313090
C176  C     C_R   0.961327 0.514118 0.398902 -0.313136
Cu1   Cu    Cu3+1 0.000000 0.542440 0.000000 0.984119
Cu2   Cu    Cu3+1 0.457560 0.000000 0.000000 0.984195
Cu3   Cu    Cu3+1 0.000000 0.457560 0.000000 0.984213
Cu4   Cu    Cu3+1 0.542440 0.000000 0.000000 0.984195
Cu5   Cu    Cu3+1 0.500000 0.042440 0.500000 0.984195
Cu6   Cu    Cu3+1 0.957560 0.500000 0.500000 0.984119
Cu7   Cu    Cu3+1 0.500000 0.957560 0.500000 0.984195
Cu8   Cu    Cu3+1 0.042440 0.500000 0.500000 0.984213
Cu9   Cu    Cu3+1 0.500000 0.500000 0.028170 0.995716
Cu10  Cu    Cu3+1 0.500000 0.500000 0.971830 0.995816
Cu11  Cu    Cu3+1 0.000000 0.000000 0.528170 0.995815
Cu12  Cu    Cu3+1 1.000000 0.000000 0.471830 0.995717
H1    H     H_    0.025327 0.431489 0.089621 0.166408
H2    H     H_    0.568387 0.974239 0.089572 0.166173
H3    H     H_    0.974670 0.568500 0.089618 0.166406
H4    H     H_    0.431645 0.025602 0.089644 0.166191
H5    H     H_    0.025877 0.568406 0.910429 0.166398
H6    H     H_    0.568331 0.974335 0.910354 0.166299
H7    H     H_    0.974286 0.431634 0.910352 0.166420
H8    H     H_    0.431636 0.025824 0.910426 0.166285
H9    H     H_    0.525825 0.931633 0.589573 0.166282
H10   H     H_    0.068373 0.525714 0.589646 0.166417
H11   H     H_    0.474336 0.068328 0.589647 0.166302
H12   H     H_    0.931601 0.474126 0.589573 0.166401
H13   H     H_    0.525600 0.931649 0.410355 0.166191
H14   H     H_    0.068503 0.474667 0.410383 0.166409
H15   H     H_    0.474239 0.068391 0.410429 0.166174
H16   H     H_    0.931494 0.525329 0.410378 0.166404
N1    N     N_R   0.999998 0.499994 0.323910 -0.461224
N2    N     N_R   0.499682 0.000079 0.323915 -0.461467
N3    N     N_R   0.999936 0.499690 0.676085 -0.461408
N4    N     N_R   0.500318 0.999921 0.676085 -0.461418
N5    N     N_R   0.499930 0.000312 0.823914 -0.461417
N6    N     N_R   0.000322 0.500080 0.823915 -0.461408
N7    N     N_R   0.500070 0.999688 0.176085 -0.461467
N8    N     N_R   0.000001 0.499989 0.176090 -0.461224
O1    O     O_R   0.061940 0.535840 0.000010 -0.561975
O2    O     O_R   0.464160 0.061940 0.000010 -0.565845
O3    O     O_R   0.938060 0.464160 0.000010 -0.561936
O4    O     O_R   0.535840 0.938060 0.000010 -0.565847
O5    O     O_R   0.061940 0.464160 0.999990 -0.562253
O6    O     O_R   0.464160 0.938060 0.999990 -0.558388
O7    O     O_R   0.938060 0.535840 0.999990 -0.562265
O8    O     O_R   0.535840 0.061940 0.999990 -0.558385
O9    O     O_R   0.561940 0.035840 0.500010 -0.558388
O10   O     O_R   0.964160 0.561940 0.500010 -0.562264
O11   O     O_R   0.438060 0.964160 0.500010 -0.558385
O12   O     O_R   0.035840 0.438060 0.500010 -0.562254
O13   O     O_R   0.561940 0.964160 0.499990 -0.565847
O14   O     O_R   0.964160 0.438060 0.499990 -0.561974
O15   O     O_R   0.438060 0.035840 0.499990 -0.565845
O16   O     O_R   0.035840 0.561940 0.499990 -0.561936
O17   O     O_R   0.499970 0.438000 0.023810 -0.553990
O18   O     O_R   0.562000 0.499970 0.023810 -0.554011
O19   O     O_R   0.500030 0.562000 0.023810 -0.554022
O20   O     O_R   0.438000 0.500030 0.023810 -0.554005
O21   O     O_R   0.499970 0.562000 0.976190 -0.553965
O22   O     O_R   0.562000 0.500030 0.976190 -0.553968
O23   O     O_R   0.500030 0.438000 0.976190 -0.553997
O24   O     O_R   0.438000 0.499970 0.976190 -0.553992
O25   O     O_R   0.999970 0.938000 0.523810 -0.553967
O26   O     O_R   0.062000 0.999970 0.523810 -0.553966
O27   O     O_R   0.000030 0.062000 0.523810 -0.553994
O28   O     O_R   0.938000 0.000030 0.523810 -0.553997
O29   O     O_R   0.999970 0.062000 0.476190 -0.554005
O30   O     O_R   0.062000 0.000030 0.476190 -0.554022
O31   O     O_R   0.000030 0.938000 0.476190 -0.554010
O32   O     O_R   0.938000 0.999970 0.476190 -0.553989
O33   O     O_R   0.999950 0.535840 0.041070 -0.579622
O34   O     O_R   0.464160 0.999950 0.041070 -0.579530
O35   O     O_R   0.000050 0.464160 0.041070 -0.579618
O36   O     O_R   0.535840 0.000050 0.041070 -0.579580
O37   O     O_R   0.999950 0.464160 0.958930 -0.579551
O38   O     O_R   0.464160 0.000050 0.958930 -0.579603
O39   O     O_R   0.000050 0.535840 0.958930 -0.579610
O40   O     O_R   0.535840 0.999950 0.958930 -0.579552
O41   O     O_R   0.499950 0.035840 0.541070 -0.579552
O42   O     O_R   0.964160 0.499950 0.541070 -0.579609
O43   O     O_R   0.500050 0.964160 0.541070 -0.579604
O44   O     O_R   0.035840 0.500050 0.541070 -0.579553
O45   O     O_R   0.499950 0.964160 0.458930 -0.579529
O46   O     O_R   0.964160 0.500050 0.458930 -0.579622
O47   O     O_R   0.500050 0.035840 0.458930 -0.579581
O48   O     O_R   0.035840 0.499950 0.458930 -0.579616
O49   O     O_2   0.947577 0.440167 0.324865 -0.432533
O50   O     O_2   0.559221 0.052850 0.324811 -0.432654
O51   O     O_2   0.052419 0.559822 0.324860 -0.432527
O52   O     O_2   0.440417 0.947023 0.324883 -0.432276
O53   O     O_2   0.947224 0.559163 0.675183 -0.432998
O54   O     O_2   0.440793 0.947134 0.675189 -0.432906
O55   O     O_2   0.052935 0.440493 0.675123 -0.432611
O56   O     O_2   0.559567 0.052993 0.675117 -0.432536
O57   O     O_2   0.447143 0.940787 0.824816 -0.432912
O58   O     O_2   0.940851 0.552795 0.824809 -0.432991
O59   O     O_2   0.553002 0.059561 0.824879 -0.432530
O60   O     O_2   0.059518 0.447080 0.824885 -0.432618
O61   O     O_2   0.552841 0.059228 0.175185 -0.432653
O62   O     O_2   0.940171 0.447570 0.175139 -0.432531
O63   O     O_2   0.447014 0.940424 0.175122 -0.432277
O64   O     O_2   0.059830 0.552408 0.175135 -0.432530
O65   O     O_3   0.082306 0.592519 0.279574 -0.657573
H17   H     H_    0.086279 0.619740 0.267475 0.341244
O66   O     O_3   0.407605 0.917252 0.279615 -0.657611
H18   H     H_    0.380264 0.913403 0.267607 0.341252
O67   O     O_3   0.917693 0.407465 0.279582 -0.657585
H19   H     H_    0.913721 0.380243 0.267486 0.341239
O68   O     O_3   0.583592 0.090944 0.279770 -0.656995
H20   H     H_    0.587057 0.118711 0.268099 0.341352
O69   O     O_3   0.082663 0.407709 0.720394 -0.658077
H21   H     H_    0.086481 0.380372 0.732403 0.340929
O70   O     O_3   0.592391 0.082751 0.720384 -0.658014
H22   H     H_    0.619734 0.086599 0.732392 0.340962
O71   O     O_3   0.909165 0.583502 0.720220 -0.657465
H23   H     H_    0.881402 0.586938 0.731889 0.341024
O72   O     O_3   0.416411 0.909052 0.720230 -0.657390
H24   H     H_    0.412945 0.881286 0.731902 0.341061
O73   O     O_3   0.582762 0.092382 0.779609 -0.658008
H25   H     H_    0.586610 0.119724 0.767600 0.340965
O74   O     O_3   0.092305 0.417353 0.779619 -0.658082
H26   H     H_    0.119643 0.413535 0.767612 0.340926
O75   O     O_3   0.409062 0.916403 0.779776 -0.657394
H27   H     H_    0.381296 0.912936 0.768106 0.341062
O76   O     O_3   0.916519 0.590857 0.779767 -0.657461
H28   H     H_    0.913085 0.618620 0.768096 0.341023
O77   O     O_3   0.417241 0.907615 0.220391 -0.657611
H29   H     H_    0.413392 0.880274 0.232401 0.341252
O78   O     O_3   0.092532 0.582291 0.220419 -0.657576
H30   H     H_    0.119753 0.586263 0.232517 0.341244
O79   O     O_3   0.590935 0.083600 0.220223 -0.656994
H31   H     H_    0.618702 0.087066 0.231893 0.341353
O80   O     O_3   0.907470 0.417687 0.220425 -0.657582
H32   H     H_    0.880248 0.413716 0.232521 0.341239
O81   O     O_3   0.029748 0.423951 0.145900 -0.691069
H33   H     H_    0.038826 0.399717 0.132470 0.334266
O82   O     O_3   0.575923 0.969599 0.145842 -0.691219
H34   H     H_    0.600103 0.960435 0.132396 0.334130
O83   O     O_3   0.970250 0.576030 0.145897 -0.691077
H35   H     H_    0.961171 0.600266 0.132466 0.334261
O84   O     O_3   0.424174 0.029957 0.145930 -0.690876
H36   H     H_    0.399985 0.039206 0.132511 0.334253
O85   O     O_3   0.030530 0.575949 0.854160 -0.690969
H37   H     H_    0.039732 0.600134 0.867605 0.334361
O86   O     O_3   0.575801 0.969980 0.854069 -0.690695
H38   H     H_    0.599982 0.960710 0.867487 0.334401
O87   O     O_3   0.969928 0.424163 0.854067 -0.690628
H39   H     H_    0.960638 0.399968 0.867484 0.334490
O88   O     O_3   0.424103 0.030463 0.854156 -0.691023
H40   H     H_    0.399931 0.039649 0.867601 0.334286
O89   O     O_3   0.530467 0.924096 0.645842 -0.691028
H41   H     H_    0.539651 0.899924 0.632397 0.334280
O90   O     O_3   0.075851 0.530078 0.645931 -0.690632
H42   H     H_    0.100045 0.539365 0.632513 0.334484
O91   O     O_3   0.469984 0.075794 0.645932 -0.690690
H43   H     H_    0.460714 0.099975 0.632514 0.334407
O92   O     O_3   0.924064 0.469479 0.645842 -0.690966
H44   H     H_    0.899877 0.460276 0.632397 0.334367
O93   O     O_3   0.529953 0.924180 0.354069 -0.690878
H45   H     H_    0.539202 0.899991 0.367488 0.334252
O94   O     O_3   0.076036 0.470244 0.354104 -0.691073
H46   H     H_    0.100271 0.461165 0.367535 0.334266
O95   O     O_3   0.469596 0.075930 0.354159 -0.691216
H47   H     H_    0.460433 0.100110 0.367605 0.334130
O96   O     O_3   0.923959 0.529746 0.354099 -0.691073
H48   H     H_    0.899725 0.538827 0.367528 0.334263

loop_
_geom_bond_atom_site_label_1
_geom_bond_atom_site_label_2
_ccdc_geom_bond_type
C142  O78   S    
C119  C143  A    
O72   H24   S    
C34   C42   S    
C14   C170  A    
C64   C72   T    
C76   O38   A    
O95   H47   S    
O77   H29   S    
C141  O77   S    
C9    C73   S    
Cu7   O43   S    
C112  C124  A    
C87   O29   A    
C73   O33   A    
C3    O3    A    
C153  O89   S    
C24   N1    S    
C154  C170  A    
C173  H13   S    
C130  C141  A    
Cu11  O25   S    
Cu2   O34   S    
C156  O92   S    
C158  C174  A    
C89   N1    A    
C159  O95   S    
C97   C115  A    
Cu10  O21   S    
C10   C162  A    
C81   O17   A    
C11   C167  A    
Cu12  O29   S    
C103  C117  A    
C101  C119  A    
C94   O54   S    
C41   C49   T    
Cu5   Cu7   S    
C15   C173  A    
Cu5   O9    S    
O88   H40   S    
Cu1   O1    S    
C94   N4    A    
C121  C128  A    
C95   C109  A    
C8    O14   A    
C123  C126  A    
C129  C142  A    
C27   C35   T    
O93   H45   S    
C16   C80   S    
C8    C32   S    
C99   C113  A    
C7    O11   A    
Cu11  O27   S    
O78   H30   S    
Cu2   O38   S    
C86   O30   A    
C149  C165  A    
C2    C26   S    
C102  O62   S    
C154  O90   S    
C135  O71   S    
C92   O52   S    
C69   C88   S    
C73   O35   A    
Cu4   O36   S    
C14   C172  A    
C6    C30   S    
C63   C71   T    
C2    O2    A    
C113  C137  A    
C36   C44   S    
C89   O49   S    
Cu8   O16   S    
C37   C45   S    
C76   O40   A    
C162  H2    S    
C91   O51   S    
C39   C47   S    
C106  C130  A    
Cu11  O26   S    
C68   C83   S    
C167  H7    S    
C92   C106  A    
C136  O72   S    
Cu5   O47   S    
C79   O47   A    
C78   O44   A    
C7    O15   A    
C151  C167  A    
C158  O94   S    
C86   O26   A    
C5    O13   A    
C84   O20   A    
C96   N4    A    
O94   H46   S    
C95   O55   S    
O90   H42   S    
C132  O68   S    
O87   H39   S    
C11   C165  A    
C160  O96   S    
C21   C153  A    
Cu12  O31   S    
C6    O10   A    
C96   O56   S    
C4    O4    A    
C19   N6    S    
C91   C105  A    
C17   N8    S    
C111  C135  A    
Cu7   O13   S    
Cu11  O28   S    
Cu9   Cu10  S    
Cu5   O15   S    
Cu9   O18   S    
C30   C38   T    
C97   N5    A    
C120  C144  A    
C143  O79   S    
C114  C126  A    
C150  C166  A    
C14   C78   S    
C157  O93   S    
C122  C127  A    
C52   C60   S    
C59   C67   T    
C53   C61   S    
C15   C79   S    
C83   O21   A    
Cu1   Cu3   S    
C55   C63   S    
C19   C151  A    
C56   C64   S    
C35   C43   S    
C104  O64   S    
C144  O80   S    
C44   C52   T    
C13   C169  A    
C45   C53   T    
C155  O91   S    
O65   H17   S    
Cu3   O5    S    
C112  C136  A    
Cu10  O24   S    
Cu6   O46   S    
C87   O27   A    
C148  C164  A    
C100  C114  A    
C103  N7    A    
C109  C123  A    
C65   C84   S    
C152  O88   S    
C150  O86   S    
C156  C172  A    
O73   H25   S    
C145  C161  A    
C71   C86   S    
C74   O36   A    
C79   O45   A    
C149  O85   S    
C106  C122  A    
O71   H23   S    
C21   C155  A    
C9    C161  A    
C60   C68   T    
C42   C50   T    
C4    O6    A    
C77   O41   A    
C89   C107  A    
C110  C134  A    
C104  N8    A    
C29   C37   T    
C131  O67   S    
C72   C87   S    
C169  H9    S    
C99   N5    A    
C16   C174  A    
Cu9   O20   S    
C166  H6    S    
C138  O74   S    
C3    C27   S    
C18   N7    S    
C90   C108  A    
C11   C75   S    
Cu4   O40   S    
C97   O57   S    
C83   O19   A    
C146  O82   S    
C23   C157  A    
C99   O59   S    
C19   C149  A    
C20   C150  A    
C172  H12   S    
C114  C138  A    
C90   O50   S    
Cu6   Cu8   S    
C38   C46   S    
C133  C138  A    
Cu7   O11   S    
Cu3   O3    S    
O68   H20   S    
C163  H3    S    
C164  H4    S    
C70   C85   S    
C25   C33   T    
Cu10  O22   S    
C119  C127  A    
C2    O8    A    
C176  H16   S    
Cu12  O30   S    
C77   O43   A    
C151  O87   S    
C134  C137  A    
C101  N7    A    
C146  C162  A    
Cu8   O48   S    
C21   N4    S    
C84   O24   A    
C7    C31   S    
C74   O34   A    
C93   O53   S    
C88   O28   A    
C174  H14   S    
C48   C56   T    
O75   H27   S    
C9    C163  A    
C110  C124  A    
C90   N2    A    
Cu1   O33   S    
C6    O16   A    
O66   H18   S    
C8    O12   A    
C16   C176  A    
C132  C143  A    
C82   O18   A    
O84   H36   S    
C136  C139  A    
C75   O39   A    
C152  C168  A    
C140  O76   S    
C104  C118  A    
C95   N3    A    
C135  C140  A    
Cu6   O10   S    
Cu2   O2    S    
C111  C123  A    
O80   H32   S    
C50   C58   S    
Cu4   O4    S    
C108  C122  A    
O74   H26   S    
Cu6   O14   S    
C54   C62   S    
C18   C146  A    
C109  C133  A    
C20   C152  A    
C17   C145  A    
O76   H28   S    
O69   H21   S    
O96   H48   S    
C46   C54   T    
C134  O70   S    
C20   N5    S    
C117  C127  A    
Cu5   O41   S    
C93   C111  A    
C133  O69   S    
C82   O22   A    
C12   C76   S    
C1    O1    A    
Cu12  O32   S    
C80   O46   A    
C107  C121  A    
C102  C120  A    
C100  O60   S    
Cu2   O6    S    
C57   C65   T    
C88   O32   A    
Cu2   Cu4   S    
C120  C128  A    
Cu9   O17   S    
C130  O66   S    
C33   C41   S    
C175  H15   S    
Cu11  Cu12  S    
C66   C81   S    
C102  N8    A    
O83   H35   S    
C96   C110  A    
C43   C51   T    
C100  N6    A    
C22   N3    S    
C85   O25   A    
O89   H41   S    
C92   N2    A    
C103  O63   S    
O86   H38   S    
C145  O81   S    
C28   C36   T    
C3    O7    A    
O79   H31   S    
C153  C169  A    
C1    O5    A    
C75   O37   A    
C131  C144  A    
C157  C173  A    
C5    O9    A    
O82   H34   S    
O91   H43   S    
C117  C141  A    
O92   H44   S    
C49   C57   S    
C22   C156  A    
O81   H33   S    
C98   O58   S    
C98   N6    A    
C17   C147  A    
C139  O75   S    
C18   C148  A    
C12   C166  A    
Cu3   O37   S    
C24   C158  A    
C113  C125  A    
Cu1   O39   S    
C85   O31   A    
C94   C112  A    
C40   C48   S    
C171  H11   S    
C58   C66   T    
O70   H22   S    
Cu7   O45   S    
C129  O65   S    
C80   O48   A    
Cu8   O44   S    
C159  C175  A    
C1    C25   S    
C160  C176  A    
C62   C70   T    
C101  O61   S    
C118  C128  A    
C4    C28   S    
C26   C34   T    
C5    C29   S    
Cu9   O19   S    
C13   C77   S    
C108  C132  A    
C91   N1    A    
C78   O42   A    
C161  H1    S    
C105  C129  A    
O67   H19   S    
C23   C159  A    
Cu6   O42   S    
C98   C116  A    
C13   C171  A    
C81   O23   A    
C105  C121  A    
C23   N2    S    
Cu4   O8    S    
C51   C59   S    
Cu1   O7    S    
C93   N3    A    
C170  H10   S    
C47   C55   T    
Cu10  O23   S    
C22   C154  A    
C61   C69   T    
Cu8   O12   S    
C10   C164  A    
C115  C139  A    
C118  C142  A    
C165  H5    S    
C12   C168  A    
Cu3   O35   S    
C24   C160  A    
C115  C125  A    
C15   C175  A    
C107  C131  A    
C137  O73   S    
C148  O84   S    
C10   C74   S    
C31   C39   T    
C32   C40   T    
C147  C163  A    
O85   H37   S    
C155  C171  A    
C67   C82   S    
C168  H8    S    
C116  C126  A    
C147  O83   S    
C124  C125  A    
C116  C140  A    
