data_mof_unit_67762.cif
_audit_creation_date              2012-12-10T16:50:04-0500
_audit_creation_method            fapswitch 2.2
_symmetry_space_group_name_H-M    P1
_symmetry_Int_Tables_number       1
_space_group_crystal_system       triclinic
_cell_length_a                    7.856067
_cell_length_b                    8.718157
_cell_length_c                    10.740585
_cell_angle_alpha                 91.163932
_cell_angle_beta                  86.214819
_cell_angle_gamma                 94.122812
_cell_volume                      732.033482637

loop_
_atom_site_label
_atom_site_type_symbol
_atom_type_description
_atom_site_fract_x
_atom_site_fract_y
_atom_site_fract_z
_atom_type_partial_charge
C1    C     C_R   0.545732 0.793643 0.496046 0.824455
C2    C     C_R   0.389439 0.608914 0.940022 0.100071
C3    C     C_R   0.511346 0.526862 0.870648 -0.164454
C4    C     C_R   0.618631 0.433960 0.926770 -0.341260
C5    C     C_R   0.596662 0.406713 0.053862 0.470584
C6    C     C_R   0.481708 0.494533 0.126204 -0.218965
C7    C     C_2   0.571219 0.956671 0.498486 0.135985
C8    C     C_2   0.434855 0.043088 0.486979 0.180428
C9    C     C_R   0.504664 0.511209 0.738529 0.864008
C10   C     C_R   0.455318 0.205925 0.503358 0.857523
C11   C     C_R   0.495012 0.497656 0.259945 0.890764
C12   C     C_R   0.293724 0.716711 0.883215 -0.163486
C13   C     C_R   0.154334 0.776388 0.947099 -0.139619
C14   C     C_R   0.113669 0.737686 0.070023 -0.174524
C15   C     C_R   0.218715 0.647472 0.131634 -0.180318
C16   C     C_R   0.363331 0.583689 0.068643 0.039744
H1    H     H_    0.711396 0.373859 0.869106 0.161367
H2    H     H_    0.987386 0.615103 0.594715 0.144006
H3    H     H_    0.325628 0.756024 0.789085 0.142142
H4    H     H_    0.079425 0.853808 0.901361 0.141435
H5    H     H_    0.004819 0.783410 0.120552 0.150744
H6    H     H_    0.175131 0.628985 0.226814 0.188655
N1    N     N_2   0.950330 0.457950 0.466250 0.092556
N2    N     N_2   0.049670 0.542050 0.533750 -0.090612
O1    O     O_R   0.389250 0.738570 0.508280 -0.603840
O2    O     O_R   0.678390 0.711630 0.486650 -0.627338
O3    O     O_R   0.355400 0.513470 0.694050 -0.626477
O4    O     O_R   0.644540 0.486530 0.672420 -0.652706
O5    O     O_R   0.321610 0.288370 0.513350 -0.568913
O6    O     O_R   0.610750 0.261430 0.491720 -0.606801
O7    O     O_R   0.355460 0.513470 0.327580 -0.608385
O8    O     O_R   0.644600 0.486530 0.305950 -0.627378
Zn1   Zn    Zn3+2 0.306930 0.517990 0.514440 0.983398
Zn2   Zn    Zn3+2 0.693070 0.482010 0.485560 0.950823
O9    O     O_3   0.679514 0.292578 0.110834 -0.675167
C17   C     C_3   0.711086 0.165229 0.030370 0.047898
H7    H     H_    0.832193 0.191585 0.973556 0.144213
H8    H     H_    0.605011 0.139831 0.967312 0.155596
C18   C     C_3   0.731263 0.020450 0.105220 -0.346067
H9    H     H_    0.859009 0.025787 0.142915 0.198888
H10   H     H_    0.637677 0.010325 0.186168 0.237063
C19   C     C_3   0.705828 0.876071 0.024157 -0.985250
H11   H     H_    0.576961 0.869353 0.988294 0.268033
H12   H     H_    0.717588 0.772061 0.079856 0.271003
H13   H     H_    0.799943 0.878495 0.942916 0.256795
O10   O     O_3   0.738052 0.021239 0.500590 -0.629816
C20   C     C_3   0.802428 0.005420 0.619144 0.081330
H14   H     H_    0.855041 0.890896 0.624435 0.169633
H15   H     H_    0.703011 0.018022 0.697232 0.079482
C21   C     C_3   0.945816 0.131398 0.633805 -0.192915
H16   H     H_    0.022953 0.143957 0.544009 0.307364
H17   H     H_    0.889097 0.242328 0.657272 0.208099
C22   C     C_3   0.064610 0.095310 0.733977 -1.010723
H18   H     H_    0.990434 0.075450 0.823860 0.239891
H19   H     H_    0.160316 0.193713 0.745832 0.284516
H20   H     H_    0.133381 0.991682 0.706506 0.278859
O11   O     O_3   0.275970 0.982655 0.452684 -0.639750
C23   C     C_3   0.279768 0.960152 0.321223 0.099290
H21   H     H_    0.152153 0.907363 0.299762 0.182518
H22   H     H_    0.375707 0.877958 0.288513 0.130589
C24   C     C_3   0.312371 0.111479 0.249556 -0.398740
H23   H     H_    0.234304 0.197430 0.295010 0.287291
H24   H     H_    0.445637 0.158455 0.255852 0.221382
C25   C     C_3   0.274329 0.093838 0.112643 -0.940444
H25   H     H_    0.354870 0.008272 0.065932 0.284654
H26   H     H_    0.300201 0.205516 0.065109 0.268382
H27   H     H_    0.138754 0.056206 0.103304 0.251836
O12   O     O_3   0.037040 0.365606 0.387378 -0.551249
C26   C     C_3   0.939882 0.334655 0.284649 -0.044896
H28   H     H_    0.009125 0.264228 0.214847 0.121598
H29   H     H_    0.923336 0.442648 0.235356 0.180358
H30   H     H_    0.819786 0.266310 0.312511 0.234845

loop_
_geom_bond_atom_site_label_1
_geom_bond_atom_site_label_2
_ccdc_geom_bond_type
N1    O12   S    
C24   C25   S    
C21   H17   S    
N1    N2    D    
O7    Zn1   S    
C3    C9    S    
C8    O11   S    
C26   H30   S    
C18   H10   S    
C2    C16   A    
C1    O2    A    
C10   O6    A    
N2    Zn1   S    
N1    Zn2   S    
C2    C12   A    
C25   H25   S    
C23   C24   S    
C17   H8    S    
C2    C3    A    
C11   O7    A    
C7    C8    D    
C20   H15   S    
C25   H26   S    
C1    C7    S    
C22   H18   S    
O3    Zn1   S    
C1    O1    A    
C10   O5    A    
C9    O3    A    
O11   C23   S    
C5    C6    A    
C17   C18   S    
C19   H12   S    
H2    N2    S    
C4    H1    S    
C5    O9    S    
C12   H3    S    
C17   H7    S    
C11   O8    A    
C21   H16   S    
C20   C21   S    
C26   H28   S    
C22   H19   S    
C24   H23   S    
C21   C22   S    
C19   H11   S    
O6    Zn2   S    
C6    C16   A    
C15   C16   A    
C7    O10   S    
O5    Zn1   S    
C18   H9    S    
C12   C13   A    
C14   H5    S    
C8    C10   S    
O10   C20   S    
C22   H20   S    
C6    C11   S    
C26   H29   S    
C18   C19   S    
C14   C15   A    
O12   C26   S    
O9    C17   S    
C13   H4    S    
O4    Zn2   S    
C23   H21   S    
C13   C14   A    
C23   H22   S    
O2    Zn2   S    
C15   H6    S    
C25   H27   S    
C3    C4    A    
C20   H14   S    
C9    O4    A    
O1    Zn1   S    
C4    C5    A    
C24   H24   S    
C19   H13   S    
O8    Zn2   S    
