data_mof_unit_37322.cif
_audit_creation_date              2012-12-11T14:46:04-0500
_audit_creation_method            fapswitch 2.2
_symmetry_space_group_name_H-M    P1
_symmetry_Int_Tables_number       1
_space_group_crystal_system       triclinic
_cell_length_a                    10.925061
_cell_length_b                    10.925362
_cell_length_c                    18.85825
_cell_angle_alpha                 89.832648
_cell_angle_beta                  90.074943
_cell_angle_gamma                 119.910951
_cell_volume                      1951.09703355

loop_
_atom_site_label
_atom_site_type_symbol
_atom_type_description
_atom_site_fract_x
_atom_site_fract_y
_atom_site_fract_z
_atom_type_partial_charge
C1    C     C_R   0.864965 0.637118 0.603739 0.546763
C2    C     C_R   0.422719 0.625146 0.777497 -0.116009
C3    C     C_R   0.400822 0.615887 0.705318 -0.129839
C4    C     C_R   0.322314 0.671399 0.675427 0.027392
C5    C     C_R   0.838916 0.162272 0.821238 -0.033296
C6    C     C_R   0.087296 0.222863 0.824240 -0.089406
C7    C     C_R   0.208374 0.243233 0.789541 -0.124003
C8    C     C_R   0.204764 0.217979 0.717133 -0.129998
C9    C     C_R   0.082156 0.179949 0.678388 -0.081379
C10   C     C_R   0.961353 0.170508 0.711233 0.011448
C11   C     C_R   0.961528 0.182530 0.786246 -0.002060
C12   C     C_R   0.270043 0.632423 0.603864 0.545349
C13   C     C_R   0.715942 0.116105 0.707775 0.012832
C14   C     C_R   0.724218 0.151208 0.779718 0.028971
C15   C     C_R   0.585516 0.063645 0.671909 -0.067800
C16   C     C_R   0.474683 0.072786 0.702616 -0.118408
C17   C     C_R   0.491521 0.131318 0.769595 -0.140406
C18   C     C_R   0.615584 0.172530 0.807441 -0.073446
C19   C     C_R   0.841170 0.149906 0.671482 -0.042604
C20   C     C_R   0.727523 0.534345 0.713948 -0.138642
C21   C     C_R   0.718213 0.545789 0.786981 -0.156779
C22   C     C_R   0.803354 0.675887 0.819676 0.029048
C23   C     C_R   0.860738 0.221399 0.601638 0.532863
C24   C     C_R   0.888373 0.796348 0.778434 -0.128468
C25   C     C_R   0.895719 0.785650 0.706163 -0.145171
C26   C     C_R   0.820980 0.653842 0.673859 0.022356
C27   C     C_R   0.374187 0.590918 0.292533 -0.136373
C28   C     C_R   0.385405 0.595762 0.220199 -0.125506
C29   C     C_R   0.368112 0.695425 0.180777 0.037799
C30   C     C_R   0.342424 0.793265 0.215698 -0.152383
C31   C     C_R   0.325496 0.784706 0.289157 -0.141956
C32   C     C_R   0.335791 0.679221 0.327245 0.033032
C33   C     C_R   0.713560 0.114480 0.293144 -0.133061
C34   C     C_R   0.869322 0.637067 0.395658 0.547104
C35   C     C_R   0.703644 0.098206 0.220777 -0.121813
C36   C     C_R   0.823547 0.129793 0.180018 0.037055
C37   C     C_R   0.952653 0.170703 0.213268 -0.137117
C38   C     C_R   0.963639 0.190836 0.286360 -0.129210
C39   C     C_R   0.844665 0.167579 0.326029 0.030111
C40   C     C_R   0.960028 0.740205 0.279599 -0.124687
C41   C     C_R   0.949080 0.739245 0.207179 -0.129125
C42   C     C_R   0.818766 0.652827 0.174589 0.031632
C43   C     C_R   0.703512 0.554494 0.215052 -0.134022
C44   C     C_R   0.716276 0.551438 0.288460 -0.134631
C45   C     C_R   0.274114 0.636217 0.397317 0.546449
C46   C     C_R   0.843741 0.647959 0.321084 0.036998
C47   C     C_R   0.807528 0.105787 0.895063 0.530751
C48   C     C_R   0.400228 0.702595 0.895205 0.546033
C49   C     C_R   0.794178 0.696483 0.894956 0.545727
C50   C     C_R   0.802661 0.098790 0.104829 0.548540
C51   C     C_R   0.401681 0.706548 0.105704 0.548645
C52   C     C_R   0.798338 0.692632 0.103938 0.549894
C53   C     C_R   0.862119 0.227830 0.396285 0.545880
C54   C     C_R   0.270736 0.741587 0.718063 -0.125283
C55   C     C_R   0.295749 0.753765 0.790585 -0.130456
C56   C     C_R   0.368058 0.691544 0.820505 0.040315
Cr1   Cr    Cr6+3 0.791660 0.390250 0.499930 1.012494
Cr2   Cr    Cr6+3 0.098520 0.708290 0.500540 1.001855
Cr3   Cr    Cr6+3 0.109770 0.401430 0.499480 1.007654
Cr4   Cr    Cr6+3 0.874790 0.925890 0.000070 1.010687
Cr5   Cr    Cr6+3 0.574120 0.948670 0.999300 1.012671
Cr6   Cr    Cr6+3 0.551420 0.625320 0.000920 1.003856
H1    H     H_    0.206123 0.781830 0.695938 0.138657
H2    H     H_    0.377463 0.038450 0.673578 0.103067
H3    H     H_    0.571667 0.021487 0.618720 0.122474
H4    H     H_    0.407643 0.142677 0.792876 0.100475
H5    H     H_    0.668158 0.431135 0.689737 0.146302
H6    H     H_    0.647369 0.453794 0.817884 0.109099
H7    H     H_    0.950069 0.899948 0.801941 0.153645
H8    H     H_    0.966844 0.879147 0.676211 0.129329
H9    H     H_    0.385292 0.510195 0.320519 0.124269
H10   H     H_    0.408982 0.520756 0.195427 0.129874
H11   H     H_    0.333541 0.873882 0.186391 0.108444
H12   H     H_    0.255582 0.807362 0.823240 0.120328
H13   H     H_    0.620083 0.093849 0.322663 0.128768
H14   H     H_    0.600879 0.060259 0.196837 0.138792
H15   H     H_    0.044723 0.190476 0.182766 0.118424
H16   H     H_    0.066347 0.232054 0.310978 0.132150
H17   H     H_    0.061486 0.812302 0.302792 0.130747
H18   H     H_    0.040957 0.814061 0.177247 0.130172
H19   H     H_    0.602901 0.484750 0.190438 0.115973
H20   H     H_    0.627215 0.475382 0.319550 0.115615
H21   H     H_    0.482400 0.579708 0.799856 0.140303
H22   H     H_    0.439955 0.560319 0.673419 0.127509
H23   H     H_    0.304963 0.278282 0.819199 0.103317
H24   H     H_    0.297702 0.229270 0.690681 0.102895
H25   H     H_    0.094703 0.244974 0.880463 0.129374
H26   H     H_    0.082367 0.155157 0.622965 0.126977
H27   H     H_    0.626243 0.223751 0.857874 0.132210
O1    O     O_R   0.766500 0.250040 0.579790 -0.518344
O2    O     O_R   0.218690 0.701900 0.425960 -0.508916
O3    O     O_R   0.249490 0.516440 0.419420 -0.528225
O4    O     O_R   0.982880 0.281910 0.424890 -0.509308
O5    O     O_3   0.999980 0.499990 0.499980 -0.237495
O6    O     O_R   0.895110 0.806860 0.920430 -0.525434
O7    O     O_R   0.872260 0.046970 0.925000 -0.506251
O8    O     O_R   0.691430 0.085060 0.918550 -0.522810
O9    O     O_R   0.451490 0.822460 0.925250 -0.495489
O10   O     O_R   0.413330 0.603360 0.920440 -0.530476
O11   O     O_R   0.676110 0.626250 0.926750 -0.511579
O12   O     O_R   0.798570 0.516780 0.574780 -0.503560
O13   O     O_R   0.895350 0.809870 0.080950 -0.522725
O14   O     O_R   0.872490 0.049760 0.073800 -0.502367
O15   O     O_R   0.691680 0.088070 0.079070 -0.529365
O16   O     O_R   0.451720 0.825250 0.074050 -0.508125
O17   O     O_R   0.413580 0.606370 0.080960 -0.528536
O18   O     O_R   0.676340 0.629040 0.075550 -0.507166
O19   O     O_3   0.666780 0.833290 0.000090 -0.245789
O20   O     O_R   0.984000 0.732950 0.581090 -0.530464
O21   O     O_R   0.218600 0.700890 0.574760 -0.513735
O22   O     O_R   0.249390 0.515350 0.579940 -0.516181
O23   O     O_R   0.982790 0.280900 0.573700 -0.504483
O24   O     O_R   0.766600 0.251130 0.419260 -0.525339
O25   O     O_R   0.798660 0.517790 0.425980 -0.502498
O26   O     O_R   0.984100 0.734040 0.420570 -0.529212
H28   H     H_    0.298134 0.855631 0.315538 0.115815

loop_
_geom_bond_atom_site_label_1
_geom_bond_atom_site_label_2
_ccdc_geom_bond_type
C55   C56   A    
C50   O15   A    
Cr2   O20   S    
C41   C42   A    
C14   C18   A    
C20   H5    S    
C35   C36   A    
C41   H18   S    
C12   O21   A    
C27   H9    S    
C7    C8    A    
C39   C53   S    
C40   C46   A    
C23   O23   A    
C5    C47   S    
C52   O13   A    
C17   H4    S    
C33   C39   A    
C28   C29   A    
C5    C11   A    
C44   H20   S    
C9    H26   S    
C29   C51   S    
C38   C39   A    
Cr3   O4    S    
Cr6   O19   S    
C54   H1    S    
C15   C16   A    
C15   H3    S    
C32   C45   S    
C45   O3    A    
Cr5   O19   S    
C1    O20   A    
C55   H12   S    
C33   H13   S    
Cr5   O9    S    
C52   O18   A    
C44   C46   A    
C8    C9    A    
Cr3   O22   S    
C47   O7    A    
C34   C46   S    
Cr3   O5    S    
C4    C12   S    
Cr4   O14   S    
Cr5   O16   S    
Cr2   O2    S    
Cr4   O19   S    
Cr3   O3    S    
C50   O14   A    
C21   C22   A    
C2    H21   S    
C28   H10   S    
Cr4   O13   S    
C53   O24   A    
C24   H7    S    
C17   C18   A    
C35   H14   S    
C23   O1    A    
Cr1   O1    S    
C13   C19   A    
C53   O4    A    
Cr5   O15   S    
C24   C25   A    
C6    C11   A    
C30   H11   S    
C16   C17   A    
Cr1   O24   S    
Cr6   O18   S    
C38   H16   S    
C25   C26   A    
C37   H15   S    
C6    H25   S    
C19   C23   S    
C43   C44   A    
C37   C38   A    
C31   C32   A    
C10   C19   A    
C51   O16   A    
Cr3   O23   S    
C40   H17   S    
C49   O6    A    
C5    C14   A    
C6    C7    A    
C22   C49   S    
Cr6   O11   S    
Cr4   O7    S    
C40   C41   A    
Cr1   O5    S    
C13   C15   A    
C21   H6    S    
C1    C26   S    
C43   H19   S    
C22   C24   A    
C42   C43   A    
C3    C4    A    
C1    O12   A    
C31   H28   S    
C27   C28   A    
C36   C50   S    
C9    C10   A    
C48   C56   S    
C48   O10   A    
C54   C55   A    
C36   C37   A    
C4    C54   A    
C27   C32   A    
Cr2   O21   S    
C18   H27   S    
Cr5   O8    S    
Cr1   O25   S    
Cr6   O17   S    
C34   O25   A    
Cr1   O12   S    
C47   O8    A    
C2    C3    A    
C34   O26   A    
C2    C56   A    
C49   O11   A    
C30   C31   A    
Cr2   O26   S    
C7    H23   S    
C20   C26   A    
C51   O17   A    
C33   C35   A    
C8    H24   S    
C48   O9    A    
Cr2   O5    S    
C45   O2    A    
C10   C11   A    
C29   C30   A    
Cr6   O10   S    
Cr4   O6    S    
C20   C21   A    
C3    H22   S    
C25   H8    S    
C16   H2    S    
C13   C14   A    
C12   O22   A    
C42   C52   S    
