data_mof_unit_28605.cif
_audit_creation_date              2012-12-11T16:34:03-0500
_audit_creation_method            fapswitch 2.2
_symmetry_space_group_name_H-M    P1
_symmetry_Int_Tables_number       1
_space_group_crystal_system       triclinic
_cell_length_a                    8.337768
_cell_length_b                    17.414982
_cell_length_c                    26.986663
_cell_angle_alpha                 95.725176
_cell_angle_beta                  93.198833
_cell_angle_gamma                 83.027016
_cell_volume                      3866.34604942

loop_
_atom_site_label
_atom_site_type_symbol
_atom_type_description
_atom_site_fract_x
_atom_site_fract_y
_atom_site_fract_z
_atom_type_partial_charge
Ba1   Ba    Ba6+2 0.856110 0.463800 0.523550 1.708019
Ba2   Ba    Ba6+2 0.333710 0.536130 0.476450 1.692292
Br1   Br    Br    0.836596 0.793663 0.615435 -0.638390
Br2   Br    Br    0.362089 0.710102 0.687974 -0.529632
Br3   Br    Br    0.509871 0.569813 0.618282 -0.565400
Br4   Br    Br    0.869516 0.801786 0.273174 -0.467674
Br5   Br    Br    0.545080 0.902863 0.363542 -0.557596
C1    C     C_3   0.746630 0.171936 0.654689 -0.335772
C2    C     C_R   0.904327 0.575813 0.176490 0.580555
C3    C     C_2   0.754259 0.552681 0.271824 -0.068884
C4    C     C_3   0.196987 0.259563 0.656234 0.320457
C5    C     C_3   0.735670 0.577662 0.326529 -0.054225
C6    C     C_1   0.981071 0.489096 0.342896 0.030219
C7    C     C_2   0.018869 0.484747 0.295044 -0.110542
C8    C     C_2   0.897450 0.515819 0.255952 0.187032
C9    C     C_R   0.010817 0.502339 0.101197 -0.079794
C10   C     C_R   0.037664 0.435733 0.127620 -0.038039
C11   C     C_R   0.101699 0.365390 0.102422 -0.053357
C12   C     C_3   0.709250 0.249677 0.632888 0.372062
C13   C     C_R   0.944511 0.572785 0.126081 -0.032349
C14   C     C_2   0.847646 0.529612 0.360148 -0.293708
C15   C     C_2   0.312564 0.446182 0.637691 -0.200684
C16   C     C_3   0.192629 0.216598 0.702381 -0.320292
C17   C     C_R   0.136960 0.421715 0.972223 0.019315
C18   C     C_R   0.072469 0.563810 0.973704 0.019904
C19   C     C_R   0.123129 0.490863 0.947491 0.052395
C20   C     C_R   0.178048 0.350154 0.943599 -0.099202
C21   C     C_R   0.209057 0.346878 0.893195 -0.056110
C22   C     C_R   0.202317 0.414756 0.868894 -0.025542
C23   C     C_3   0.535594 0.673151 0.643143 0.644830
C24   C     C_R   0.159973 0.486965 0.895953 -0.079201
C25   C     C_R   0.153826 0.555168 0.871422 -0.046095
C26   C     C_R   0.193916 0.550337 0.820644 0.607229
C27   C     C_R   0.236041 0.411461 0.817900 0.586163
C28   C     C_3   0.201494 0.300564 0.418022 0.294544
C29   C     C_2   0.415060 0.429170 0.726706 -0.069571
C30   C     C_3   0.439629 0.405842 0.671977 -0.080405
C31   C     C_1   0.198405 0.500910 0.655169 0.089066
C32   C     C_2   0.166650 0.511693 0.703428 -0.056409
C33   C     C_2   0.278572 0.473695 0.742025 0.218801
C34   C     C_3   0.685122 0.672816 0.678109 -0.196238
C35   C     C_R   0.107640 0.426110 0.024259 0.019632
C36   C     C_R   0.049012 0.498488 0.049766 0.052398
C37   C     C_R   0.027413 0.567057 0.024336 0.019103
C38   C     C_R   0.135497 0.360515 0.052045 -0.096717
C39   C     C_R   0.918354 0.639264 0.100040 -0.045405
C40   C     C_3   0.220997 0.213002 0.405065 -0.342106
C41   C     C_R   0.069496 0.631248 0.948147 -0.094076
C42   C     C_R   0.109624 0.626903 0.898360 -0.048098
C43   C     C_R   0.959237 0.636676 0.050542 -0.098838
C44   C     C_R   0.417768 0.280393 0.522107 -0.288586
C45   C     C_3   0.039690 0.702067 0.341377 0.335919
C46   C     C_R   0.556741 0.255276 0.495881 0.051274
C47   C     C_R   0.614929 0.175826 0.490721 -0.118616
C48   C     C_R   0.531513 0.121749 0.511149 -0.008637
C49   C     C_R   0.387387 0.147554 0.535504 -0.125251
C50   C     C_R   0.329442 0.226838 0.540051 -0.002248
C51   C     C_R   0.586815 0.835567 0.509908 -0.053578
C52   C     C_3   0.009098 0.714922 0.593379 0.517689
C53   C     C_R   0.637088 0.755446 0.504753 0.065050
C54   C     C_R   0.874381 0.778432 0.462575 0.008470
C55   C     C_R   0.825189 0.858680 0.468076 -0.056866
C56   C     C_3   0.046694 0.723743 0.288401 0.148976
C57   C     C_R   0.680283 0.887488 0.491397 0.037839
C58   C     C_1   0.630507 0.970350 0.498267 0.062026
C59   C     C_1   0.586819 0.039439 0.504164 0.034592
C60   C     C_R   0.777343 0.727309 0.479533 -0.278915
C61   C     C_3   0.142667 0.765020 0.589154 -0.215783
C62   C     C_3   0.682659 0.370119 0.375569 0.297552
C63   C     C_3   0.679854 0.351609 0.319271 -0.337409
C64   C     C_3   0.498364 0.742284 0.353907 0.260698
C65   C     C_3   0.433246 0.818190 0.332444 0.090189
C66   C     C_R   0.000045 0.440756 0.178668 0.600991
H1    H     H_    0.770337 0.246830 0.597133 0.089845
H2    H     H_    0.878602 0.158450 0.662219 0.151296
H3    H     H_    0.770474 0.301101 0.309103 0.141453
H4    H     H_    0.557732 0.337793 0.305393 0.137783
H5    H     H_    0.576693 0.258725 0.624860 -0.105411
H6    H     H_    0.704135 0.125236 0.627894 0.079330
H7    H     H_    0.693012 0.731311 0.698040 0.166271
H8    H     H_    0.683047 0.630537 0.706262 0.108910
H9    H     H_    0.793128 0.656691 0.657053 0.154066
H10   H     H_    0.683583 0.173592 0.690031 0.113404
H11   H     H_    0.292911 0.231005 0.729100 0.134143
H12   H     H_    0.303226 0.197214 0.373724 0.144715
H13   H     H_    0.124615 0.648378 0.345189 0.042790
H14   H     H_    0.914932 0.690783 0.347720 -0.043192
H15   H     H_    0.040606 0.671018 0.262287 0.064465
H16   H     H_    0.162296 0.746412 0.282979 0.088669
H17   H     H_    0.631150 0.733214 0.349212 0.028581
H18   H     H_    0.473843 0.747739 0.394283 0.069484
H19   H     H_    0.162197 0.322545 0.666290 0.050100
H20   H     H_    0.450513 0.812818 0.291679 0.131543
H21   H     H_    0.138812 0.459815 0.284117 0.127502
H22   H     H_    0.125768 0.313183 0.121639 0.129574
H23   H     H_    0.272637 0.182954 0.437585 0.069377
H24   H     H_    0.498947 0.401692 0.753652 0.099873
H25   H     H_    0.239492 0.290285 0.873245 0.123987
H26   H     H_    0.660470 0.574008 0.245410 0.123169
H27   H     H_    0.865999 0.694328 0.118003 0.145275
H28   H     H_    0.039918 0.689011 0.965911 0.077692
H29   H     H_    0.322623 0.249214 0.643590 -0.053610
H30   H     H_    0.053510 0.544407 0.715004 0.109489
H31   H     H_    0.931930 0.690348 0.033504 0.079001
H32   H     H_    0.832849 0.542089 0.399939 0.079362
H33   H     H_    0.321151 0.430838 0.597990 0.091719
H34   H     H_    0.101377 0.193044 0.394094 0.137517
H35   H     H_    0.479940 0.857529 0.530336 0.082837
H36   H     H_    0.317663 0.106122 0.549186 0.084613
H37   H     H_    0.900152 0.898348 0.454875 0.099639
H38   H     H_    0.721590 0.156098 0.469708 0.100837
H39   H     H_    0.370378 0.341195 0.524618 0.062620
H40   H     H_    0.817409 0.665608 0.476268 0.059305
H41   H     H_    0.208091 0.152868 0.692024 0.112970
H42   H     H_    0.321672 0.319698 0.427791 0.001792
H43   H     H_    0.122254 0.314648 0.450197 0.065814
H44   H     H_    0.595381 0.422428 0.384500 0.077038
H45   H     H_    0.977375 0.683972 0.556894 -0.049137
H46   H     H_    0.708834 0.402191 0.301081 0.067856
H47   H     H_    0.302746 0.832676 0.339222 0.128864
H48   H     H_    0.183772 0.294943 0.958765 0.074876
H49   H     H_    0.186873 0.304319 0.036188 0.075493
H50   H     H_    0.105469 0.680560 0.880917 0.134874
H51   H     H_    0.075470 0.233407 0.720472 0.148031
H52   H     H_    0.145552 0.812782 0.619682 0.162621
H53   H     H_    0.131507 0.790751 0.553075 0.075910
H54   H     H_    0.255856 0.729032 0.594255 0.164282
H55   H     H_    0.805921 0.381812 0.388853 0.007295
N1    N     N_R   0.934694 0.510555 0.202988 -0.426572
N2    N     N_R   0.235537 0.478859 0.794309 -0.427909
O1    O     O_2   0.910880 0.540430 0.617910 -0.462149
O2    O     O_2   0.212149 0.773039 0.464617 -0.485519
O3    O     O_3   0.084960 0.762987 0.375112 -0.580374
O4    O     O_3   0.142880 0.540370 0.557740 -0.473110
O5    O     O_3   0.562610 0.408580 0.475460 -0.478707
O6    O     O_2   0.365880 0.685750 0.523280 -0.460531
O7    O     O_3   0.540828 0.725125 0.605896 -0.602560
O8    O     O_2   0.421663 0.529676 0.323048 -0.492694
O9    O     O_3   0.421679 0.680925 0.328681 -0.621050
O10   O     O_2   0.022998 0.382538 0.201085 -0.587214
O11   O     O_2   0.264557 0.348136 0.794334 -0.624141
O12   O     O_3   0.640412 0.306037 0.397205 -0.628007
O13   O     O_2   0.842426 0.637220 0.196765 -0.576058
O14   O     O_2   0.193471 0.609860 0.800164 -0.547703
O15   O     O_3   0.675650 0.402220 0.588450 -0.439914
O16   O     O_2   0.754656 0.460169 0.680117 -0.455280
O17   O     O_3   0.054803 0.664048 0.630781 -0.587111
O18   O     O_3   0.764665 0.308972 0.666593 -0.585377
O19   O     O_2   0.823810 0.314230 0.476690 -0.459675
O20   O     O_3   0.086630 0.363340 0.564170 -0.489065
O21   O     O_2   0.001286 0.225600 0.526067 -0.485333
O22   O     O_3   0.087038 0.231377 0.619714 -0.591033
O23   O     O_2   0.278810 0.459550 0.382060 -0.456122
O24   O     O_3   0.046820 0.459570 0.442260 -0.499180
O25   O     O_3   0.514050 0.597710 0.411540 -0.474959
O26   O     O_3   0.133363 0.335911 0.376314 -0.621527
O27   O     O_3   0.627090 0.591350 0.524530 -0.425800
O28   O     O_3   0.103080 0.636600 0.435820 -0.490297
P1    P     P_3+3 0.078810 0.562990 0.610370 1.052533
P2    P     P_3+3 0.645380 0.325580 0.462150 0.995730
P3    P     P_3+3 0.127303 0.261789 0.562377 0.942954
P4    P     P_3+3 0.110900 0.436950 0.389630 0.996594
P5    P     P_3+3 0.068786 0.738052 0.435636 0.976303
P6    P     P_3+3 0.657212 0.397247 0.652394 1.022379
P7    P     P_3+3 0.547801 0.688803 0.541305 1.022125
P8    P     P_3+3 0.523016 0.593646 0.346845 0.940704

loop_
_geom_bond_atom_site_label_1
_geom_bond_atom_site_label_2
_ccdc_geom_bond_type
C26   N2    Am   
C48   C49   A    
C27   O11   D    
C43   H31   S    
C44   H39   S    
C11   H22   S    
C56   H15   S    
C12   H5    S    
C1    H10   S    
C17   C35   A    
Ba1   O15   S    
C17   C20   A    
O17   P1    S    
Ba2   P4    S    
C34   H7    S    
O7    P7    S    
C20   H48   S    
Br2   C23   S    
C6    P4    S    
C14   H32   S    
C46   C47   A    
Ba2   O4    S    
C40   H12   S    
C29   C30   S    
C17   C19   A    
C31   P1    S    
C3    C8    D    
C5    P8    S    
C31   C32   D    
O6    P7    D    
C41   H28   S    
O25   P8    S    
C37   C43   A    
C15   C31   D    
C49   C50   A    
Ba1   Ba2   S    
C62   H44   S    
C53   P7    S    
C55   C57   A    
C4    H19   S    
C53   C60   A    
C9    C10   A    
O21   P3    D    
C55   H37   S    
C1    H6    S    
C40   H23   S    
C23   C34   S    
Ba1   O19   S    
C29   H24   S    
C44   C50   A    
O22   P3    S    
C9    C13   A    
O4    P1    S    
O26   P4    S    
C19   C24   A    
Ba2   O24   S    
C23   O7    S    
C6    C7    D    
C63   H4    S    
C10   C66   A    
C45   O3    S    
C56   H16   S    
Ba1   O24   S    
C45   H13   S    
O3    P5    S    
C18   C37   A    
Ba1   O20   S    
C45   H14   S    
C26   O14   D    
C2    O13   D    
C66   N1    Am   
C1    C12   S    
C16   H11   S    
O18   P6    S    
C29   C33   D    
C28   O26   S    
C62   H55   S    
O27   P7    S    
C32   C33   S    
C64   O9    S    
C51   C57   A    
C62   O12   S    
C15   H33   S    
C15   C30   S    
O16   P6    D    
C5    C14   S    
C1    H2    S    
Ba2   O6    S    
C44   C46   A    
C35   C38   A    
Br4   C56   S    
O9    P8    S    
C36   C37   A    
C52   C61   S    
C54   C60   A    
C2    C13   A    
C39   H27   S    
C24   C25   A    
C8    N1    S    
Ba1   P1    S    
C63   H46   S    
Ba2   O28   S    
C34   H8    S    
C65   H47   S    
C10   C11   A    
C6    C14   D    
C28   H43   S    
Ba2   O25   S    
O1    P1    D    
C9    C36   A    
C3    C5    S    
O28   P5    S    
C30   P6    S    
C52   O17   S    
C65   H20   S    
C41   C42   A    
C66   O10   D    
Ba2   O23   S    
C40   H34   S    
C63   H3    S    
C35   C36   A    
Ba1   O4    S    
C11   C38   A    
C61   H53   S    
C49   H36   S    
Br5   C65   S    
C48   C59   S    
Br3   C23   S    
C21   H25   S    
O20   P3    S    
C33   N2    S    
C47   C48   A    
C21   C22   A    
C46   P2    S    
O5    P2    S    
C54   P5    S    
O24   P4    S    
Ba1   P2    S    
C12   O18   S    
O12   P2    S    
Ba1   O1    S    
C45   C56   S    
C32   H30   S    
C16   H51   S    
O15   P6    S    
C2    N1    Am   
C38   H49   S    
C52   H45   S    
C51   C53   A    
C39   C43   A    
Ba2   O5    S    
O23   P4    D    
O8    P8    D    
C25   C26   A    
Ba1   O27   S    
C18   C19   A    
O2    P5    D    
C64   C65   S    
C22   C24   A    
C57   C58   S    
C16   H41   S    
C64   H17   S    
Ba2   O27   S    
C34   H9    S    
C22   C27   A    
C4    C16   S    
C50   P3    S    
C47   H38   S    
C3    H26   S    
C4    H29   S    
C51   H35   S    
C12   H1    S    
C60   H40   S    
C54   C55   A    
O19   P2    D    
C62   C63   S    
C25   C42   A    
C61   H54   S    
C4    O22   S    
C64   H18   S    
C28   H42   S    
C27   N2    Am   
C58   C59   T    
C20   C21   A    
C7    C8    S    
C28   C40   S    
Ba1   O5    S    
C18   C41   A    
C61   H52   S    
C7    H21   S    
C13   C39   A    
Br1   C52   S    
C42   H50   S    
