data_mof_unit_14246.cif
_audit_creation_date              2013-03-05T15:46:53-0500
_audit_creation_method            fapswitch 2.2
_symmetry_space_group_name_H-M    P1
_symmetry_Int_Tables_number       1
_space_group_crystal_system       triclinic
_cell_length_a                    15.089967
_cell_length_b                    15.086726
_cell_length_c                    14.9083
_cell_angle_alpha                 108.80484
_cell_angle_beta                  109.896083
_cell_angle_gamma                 110.393925
_cell_volume                      2590.11382358

loop_
_atom_site_label
_atom_site_type_symbol
_atom_site_description
_atom_site_fract_x
_atom_site_fract_y
_atom_site_fract_z
_atom_type_partial_charge
C1    C     C_R   0.247703 0.060707 0.968717 -0.048697
C2    C     C_R   0.803893 0.004380 0.093722 -0.149434
N1    N     N_R   0.293810 0.002730 0.945950 -0.077477
N2    N     N_R   0.706190 0.997270 0.054050 -0.078427
C3    C     C_R   0.748454 0.222352 0.314705 -0.123712
C4    C     C_R   0.195278 0.790229 0.699491 -0.086567
N3    N     N_R   0.706160 0.152130 0.208910 -0.051627
N4    N     N_R   0.293840 0.847870 0.791090 -0.049763
C5    C     C_R   0.410164 0.904795 0.209159 -0.072425
C6    C     C_R   0.589009 0.023346 0.776192 -0.104065
N5    N     N_R   0.443140 0.945920 0.152090 -0.050725
N6    N     N_R   0.556860 0.054080 0.847910 -0.048298
C7    C     C_R   0.591853 0.296611 0.991565 -0.112848
C8    C     C_R   0.405344 0.684376 0.946551 -0.228297
H1    H     H_    0.676787 0.353735 0.022468 0.126829
H2    H     H_    0.319965 0.620202 0.900062 0.136290
N7    N     N_R   0.556830 0.208940 0.002760 -0.075162
N8    N     N_R   0.443170 0.791060 0.997240 -0.070673
C9    C     C_R   0.592397 0.999618 0.302118 -0.135857
C10   C     C_R   0.405284 0.934072 0.685324 -0.074634
H3    H     H_    0.677269 0.027603 0.354255 0.181089
H4    H     H_    0.319288 0.884533 0.624313 0.175273
N9    N     N_R   0.556790 0.002750 0.208910 -0.064500
N10   N     N_R   0.443210 0.997250 0.791090 -0.068620
C11   C     C_R   0.410167 0.204365 0.898607 0.543686
C12   C     C_R   0.589331 0.775677 0.043553 0.499190
N11   N     N_R   0.443180 0.152110 0.945950 -0.082577
N12   N     N_R   0.556820 0.847890 0.054050 -0.112990
C13   C     C_R   0.747686 0.313524 0.222265 -0.075807
C14   C     C_R   0.196346 0.699182 0.790657 -0.092542
N13   N     N_R   0.706170 0.208950 0.152090 -0.044220
N14   N     N_R   0.293830 0.791050 0.847910 -0.042361
C15   C     C_R   0.241555 0.964449 0.056147 0.534803
C16   C     C_R   0.802895 0.096740 0.004345 0.511328
N15   N     N_R   0.293800 0.945910 0.002760 -0.082774
N16   N     N_R   0.706200 0.054090 0.997240 -0.076863
C17   C     C_R   0.213456 0.037622 0.037251 -0.090998
C18   C     C_R   0.865336 0.066898 0.064239 -0.103495
C19   C     C_R   0.773441 0.324466 0.325444 0.036460
C20   C     C_R   0.131698 0.696854 0.697373 0.042501
C21   C     C_R   0.501896 0.937661 0.304793 0.075377
C22   C     C_R   0.495049 0.945627 0.673004 0.078688
C23   C     C_R   0.501546 0.294227 0.924596 -0.013981
C24   C     C_R   0.496325 0.673565 0.973224 0.145560
Ni1   Ni    Ni4+2 0.369690 0.999990 0.869700 0.262869
Ni2   Ni    Ni4+2 0.630310 0.000010 0.130300 0.200790
Ni3   Ni    Ni4+2 0.369670 0.869670 0.000000 0.241078
Ni4   Ni    Ni4+2 0.630330 0.130330 0.000000 0.261410
C25   C     C_R   0.586377 0.263396 0.679852 0.605986
C26   C     C_R   0.365026 0.609719 0.203831 0.610904
C27   C     C_R   0.588472 0.336583 0.767924 -0.201234
C28   C     C_R   0.382482 0.583236 0.115059 -0.263973
C29   C     C_R   0.495825 0.346068 0.753866 -0.138504
C30   C     C_R   0.487005 0.605610 0.131750 -0.124315
C31   C     C_R   0.398991 0.280820 0.647855 0.550021
C32   C     C_R   0.577580 0.662575 0.240867 0.591327
C33   C     C_R   0.398515 0.209306 0.559835 -0.143696
C34   C     C_R   0.559393 0.689335 0.329192 -0.158143
C35   C     C_R   0.490627 0.199805 0.575310 -0.410042
C36   C     C_R   0.453886 0.660404 0.311018 -0.396381
C37   C     C_R   0.498331 0.515039 0.866094 0.488998
C38   C     C_R   0.497074 0.449896 0.023830 0.488916
C39   C     C_R   0.493638 0.574371 0.957112 -0.053845
C40   C     C_R   0.502741 0.391229 0.933975 -0.092685
C41   C     C_R   0.492614 0.543129 0.036046 -0.180366
C42   C     C_R   0.500523 0.419439 0.852701 -0.190649
C43   C     C_R   0.869839 0.526375 0.428605 -0.137604
C44   C     C_R   0.963525 0.522073 0.622621 -0.138088
C45   C     C_R   0.962240 0.619992 0.521971 -0.132420
C46   C     C_R   0.871274 0.428452 0.529136 -0.144067
H5    H     H_    0.996485 0.692260 0.515874 0.129571
H6    H     H_    0.838995 0.355061 0.533977 0.125059
C47   C     C_R   0.015996 0.614830 0.615881 0.126454
C48   C     C_R   0.832339 0.427346 0.428759 0.120286
C49   C     C_R   0.592415 0.933533 0.570434 -0.444757
C50   C     C_R   0.398771 0.850751 0.379285 -0.444124
H7    H     H_    0.667944 0.965414 0.644454 0.154314
H8    H     H_    0.322147 0.816969 0.305933 0.174767
C51   C     C_R   0.597385 0.936317 0.479606 0.537789
C52   C     C_R   0.393978 0.842015 0.467651 0.520038
C53   C     C_R   0.500368 0.906149 0.387862 0.031612
C54   C     C_R   0.492663 0.899655 0.568827 0.049411
C55   C     C_R   0.145110 0.108220 0.152015 -0.319097
C56   C     C_R   0.945627 0.016042 0.960532 -0.370058
C57   C     C_R   0.060680 0.117972 0.162150 0.577400
C58   C     C_R   0.029224 0.005323 0.950747 0.580278
C59   C     C_R   0.960651 0.070503 0.064612 -0.086570
C60   C     C_R   0.128643 0.052179 0.047386 -0.052897
H9    H     H_    0.232402 0.109251 0.932741 0.192410
H10   H     H_    0.834435 0.977748 0.149897 0.167159
O1    O     O_3   0.678571 0.255371 0.698691 -0.742668
H11   H     H_    0.663302 0.199253 0.628954 0.315278
O2    O     O_3   0.259810 0.581026 0.182814 -0.749103
H12   H     H_    0.260682 0.602251 0.253497 0.323837
H13   H     H_    0.662377 0.385276 0.848481 0.169388
H14   H     H_    0.312542 0.537546 0.032056 0.168920
O3    O     O_3   0.303037 0.282207 0.626333 -0.725355
H15   H     H_    0.310461 0.329592 0.695447 0.318663
O4    O     O_3   0.682809 0.687108 0.264527 -0.732186
H16   H     H_    0.685707 0.667448 0.195983 0.352465
H17   H     H_    0.325245 0.159280 0.478798 0.179232
H18   H     H_    0.627157 0.729980 0.412544 0.176858
O5    O     O_3   0.500534 0.553311 0.793528 -0.734651
H19   H     H_    0.515220 0.510852 0.740421 0.334890
O6    O     O_3   0.495976 0.412411 0.097481 -0.757018
H20   H     H_    0.461661 0.439174 0.136915 0.326288
H21   H     H_    0.836369 0.530195 0.354244 0.134901
H22   H     H_    0.998655 0.517155 0.695947 0.123881
O7    O     O_3   0.695622 0.970453 0.481006 -0.782537
H23   H     H_    0.753918 0.986543 0.550943 0.328197
O8    O     O_3   0.294581 0.781033 0.457143 -0.785185
H24   H     H_    0.234358 0.746128 0.380353 0.326339
H25   H     H_    0.223050 0.143199 0.225253 0.177455
H26   H     H_    0.867009 0.978442 0.886822 0.150830
H27   H     H_    0.759424 0.200981 0.378380 0.104306
H28   H     H_    0.166977 0.822602 0.648343 0.109347
O9    O     O_3   0.079315 0.173594 0.266760 -0.728257
H29   H     H_    0.016309 0.182712 0.261885 0.321704
O10   O     O_3   0.014724 0.946361 0.848776 -0.751027
H30   H     H_    0.939766 0.919120 0.790139 0.318403
H31   H     H_    0.327384 0.840136 0.173789 0.168264
H32   H     H_    0.673249 0.054007 0.796917 0.165580
O11   O     O_3   0.303305 0.160333 0.818947 -0.777212
H33   H     H_    0.301747 0.211020 0.790415 0.320994
O12   O     O_3   0.691180 0.796986 0.111728 -0.764705
H34   H     H_    0.725638 0.867267 0.179404 0.312486
H35   H     H_    0.757157 0.375908 0.199758 0.106384
H36   H     H_    0.169662 0.647911 0.823662 0.097711
O13   O     O_3   0.206996 0.905258 0.103210 -0.782599
H37   H     H_    0.166520 0.931835 0.133478 0.323388
O14   O     O_3   0.839356 0.177990 0.979746 -0.768279
H38   H     H_    0.917995 0.205020 0.003772 0.329630
H39   H     H_    0.487059 0.142570 0.505872 0.161209
H40   H     H_    0.441808 0.678254 0.380778 0.171969

loop_
_geom_bond_atom_site_label_1
_geom_bond_atom_site_label_2
_geom_bond_distance
_ccdc_geom_bond_type
C39   C41   1.404309 A    
O2    H12   0.991574 S    
C6    C22   1.394843 A    
C55   H25   1.084352 S    
C17   C60   1.419545 S    
N5    Ni3   1.847212 S    
O8    H24   0.991697 S    
C22   C54   1.464429 S    
C56   C59   1.393892 A    
N6    Ni4   1.847214 S    
N15   Ni3   1.885403 S    
N8    Ni3   1.885385 S    
C11   C23   1.372717 A    
N2    N16   1.385715 A    
O3    H15   0.987935 S    
C28   H14   1.083707 S    
C12   C24   1.375701 A    
O11   H33   0.990797 S    
C30   C41   1.483977 S    
N2    Ni2   1.869125 S    
N12   Ni2   1.864222 S    
N10   Ni1   1.868589 S    
C37   O5    1.385166 S    
C56   C58   1.375114 A    
C1    N1    1.325823 A    
C58   C60   1.399735 A    
C33   C35   1.395609 A    
C34   C36   1.394465 A    
C20   C47   1.461813 S    
C2    H10   1.076332 S    
C19   C48   1.461841 S    
C45   H5    1.080378 S    
C8    N8    1.330194 A    
N4    Ni1   1.863550 S    
C38   C40   1.396963 A    
C37   C42   1.404734 A    
C13   H35   1.077643 S    
C10   N10   1.326268 A    
C25   C27   1.398908 A    
C46   C48   1.401241 A    
C5    H31   1.077415 S    
N7    Ni4   1.885386 S    
C45   C47   1.401959 A    
C58   O10   1.384333 S    
C34   H18   1.082909 S    
C16   N16   1.323187 A    
C1    C17   1.376829 A    
N11   Ni1   1.864222 S    
C29   C31   1.422909 A    
C55   C60   1.396147 A    
N9    Ni2   1.868587 S    
C3    H27   1.077051 S    
C31   O3    1.381723 S    
C25   O1    1.379253 S    
C28   C30   1.404003 A    
C23   C40   1.417575 S    
C14   H36   1.079687 S    
C57   C59   1.409631 A    
C24   C39   1.420646 S    
C30   C32   1.421166 A    
N3    N13   1.385835 A    
C51   O7    1.379527 S    
N4    N14   1.385835 A    
N3    Ni2   1.863550 S    
N8    N12   1.382761 A    
C52   C54   1.404272 A    
O1    H11   0.992123 S    
C3    N3    1.335565 A    
C4    N4    1.335554 A    
C44   C47   1.402825 A    
N1    Ni1   1.869124 S    
C15   C17   1.386816 A    
C43   C45   1.384030 A    
C12   O12   1.371214 S    
N7    N11   1.382759 A    
C9    N9    1.331804 A    
C5    N5    1.330309 A    
C2    C18   1.370264 A    
C26   C28   1.396502 A    
O4    H16   0.989024 S    
N1    N15   1.385715 A    
C35   H39   1.083291 S    
C21   C53   1.466825 S    
C13   C19   1.388915 A    
C37   C39   1.404991 A    
C14   C20   1.381378 A    
C49   C54   1.399626 A    
C43   C48   1.402226 A    
C57   O9    1.381601 S    
C29   C42   1.491346 S    
C11   O11   1.375992 S    
C4    H28   1.079910 S    
C6    N6    1.335551 A    
C55   C57   1.383838 A    
C10   H4    1.073462 S    
C16   O14   1.377263 S    
N13   Ni4   1.847068 S    
C31   C33   1.400535 A    
O12   H34   0.990749 S    
N14   Ni3   1.847071 S    
C8    H2    1.080691 S    
O14   H38   0.990981 S    
C36   H40   1.081676 S    
C7    C23   1.368127 A    
C8    C24   1.376905 A    
O13   H37   0.989477 S    
C15   O13   1.374816 S    
C3    C19   1.391481 A    
C1    H9    1.078952 S    
C38   C41   1.387566 A    
C9    H3    1.075483 S    
C16   C18   1.367475 A    
C12   N12   1.329261 A    
C50   C52   1.388616 A    
C50   H8    1.077918 S    
C6    H32   1.075210 S    
C50   C53   1.403536 A    
C10   C22   1.387205 A    
O10   H30   0.991913 S    
C26   O2    1.378888 S    
C5    C21   1.384676 A    
C11   N11   1.327010 A    
C33   H17   1.083078 S    
O6    H20   0.988249 S    
N6    N10   1.382758 A    
C51   C53   1.411581 A    
C25   C35   1.405115 A    
C7    N7    1.331088 A    
C18   C59   1.418295 S    
C26   C36   1.405507 A    
C56   H26   1.085620 S    
C7    H1    1.081641 S    
C13   N13   1.333048 A    
O9    H29   0.989297 S    
C14   N14   1.332366 A    
C43   H21   1.080626 S    
C2    N2    1.338036 A    
C52   O8    1.380601 S    
N5    N9    1.382758 A    
C15   N15   1.330592 A    
C32   C34   1.397375 A    
N16   Ni4   1.885402 S    
C4    C20   1.383741 A    
C44   C46   1.383949 A    
C49   H7    1.080639 S    
C27   H13   1.083667 S    
O5    H19   0.988784 S    
C46   H6    1.080738 S    
C44   H22   1.080202 S    
C32   O4    1.381244 S    
C27   C29   1.406495 A    
O7    H23   0.991759 S    
C49   C51   1.394475 A    
C38   O6    1.389932 S    
C9    C21   1.382666 A    
C40   C42   1.401834 A    
