data_mof_unit_63245.cif
_audit_creation_date              2012-12-10T19:40:09-0500
_audit_creation_method            fapswitch 2.2
_symmetry_space_group_name_H-M    P1
_symmetry_Int_Tables_number       1
_space_group_crystal_system       triclinic
_cell_length_a                    30.598731
_cell_length_b                    21.640864
_cell_length_c                    21.62614
_cell_angle_alpha                 90.22302
_cell_angle_beta                  134.9305
_cell_angle_gamma                 89.937584
_cell_volume                      10138.26649

loop_
_atom_site_label
_atom_site_type_symbol
_atom_type_description
_atom_site_fract_x
_atom_site_fract_y
_atom_site_fract_z
_atom_type_partial_charge
C1    C     C_R   0.120368 0.499720 0.120226 0.906795
C2    C     C_3   0.402137 0.785409 0.963296 -0.502850
C3    C     C_R   0.001253 0.314924 0.000585 -0.086166
C4    C     C_R   0.498307 0.185415 0.998277 -0.093974
C5    C     C_R   0.500539 0.814555 0.998639 -0.067187
C6    C     C_3   0.968728 0.110274 0.182316 -0.554089
C7    C     C_3   0.477454 0.612603 0.190950 -0.565467
C8    C     C_R   0.031115 0.718071 0.982531 -0.208972
C9    C     C_R   0.049241 0.282968 0.018691 -0.214506
C10   C     C_R   0.457947 0.217296 0.918341 -0.220922
C11   C     C_R   0.553119 0.783141 0.030613 -0.214720
C12   C     C_R   0.031220 0.782807 0.982721 -0.220218
C13   C     C_R   0.219534 0.485910 0.272672 0.157835
C14   C     C_R   0.049474 0.218210 0.019239 -0.211146
C15   C     C_R   0.457721 0.282052 0.918328 -0.214190
C16   C     C_R   0.552957 0.718807 0.029417 -0.205775
C17   C     C_R   0.000149 0.814900 0.998900 -0.082983
C18   C     C_R   0.000747 0.185823 0.999229 -0.108690
C19   C     C_R   0.499188 0.314507 0.998194 -0.094913
C20   C     C_R   0.499670 0.686574 0.994566 -0.113447
C21   C     C_R   0.970963 0.781543 0.015515 0.108277
C22   C     C_R   0.953976 0.219570 0.980040 0.137381
C23   C     C_R   0.538424 0.281154 0.074943 0.135677
C24   C     C_R   0.719642 0.000472 0.274261 0.166345
C25   C     C_R   0.445290 0.719212 0.951514 0.148838
C26   C     C_3   0.616242 0.414547 0.445895 0.110657
C27   C     C_3   0.663770 0.402024 0.442404 -0.388298
C28   C     C_3   0.729462 0.411553 0.531831 -0.934040
C29   C     C_3   0.121695 0.923605 0.453208 0.110228
C30   C     C_3   0.171097 0.915102 0.452595 -0.387388
C31   C     C_3   0.235338 0.929720 0.541989 -0.926189
C32   C     C_R   0.186551 0.495373 0.185311 -0.188314
C33   C     C_R   0.686435 0.994263 0.186231 -0.185332
C34   C     C_R   0.218272 0.497836 0.160376 -0.291350
C35   C     C_R   0.717867 0.981597 0.162321 -0.296534
C36   C     C_R   0.282587 0.499371 0.223720 0.370233
C37   C     C_R   0.782181 0.983414 0.224977 0.370483
C38   C     C_R   0.314545 0.498222 0.312375 -0.220635
C39   C     C_R   0.620338 0.999408 0.120314 0.903428
C40   C     C_R   0.814416 0.998112 0.312022 -0.217406
C41   C     C_R   0.282890 0.486723 0.335396 0.063197
C42   C     C_R   0.783006 0.002099 0.336521 0.038659
C43   C     C_3   0.286481 0.520011 0.399456 -0.531713
C44   C     C_3   0.786000 0.051328 0.388022 -0.496224
C45   C     C_3   0.216425 0.519319 0.330056 -0.423606
C46   C     C_3   0.715977 0.049503 0.319265 -0.442334
C47   C     C_R   0.000273 0.620077 0.000318 0.879953
C48   C     C_R   0.999961 0.380174 0.999821 0.881844
C49   C     C_R   0.499859 0.119944 0.999940 0.878727
C50   C     C_3   0.935213 0.786720 0.038318 -0.473062
C51   C     C_R   0.500418 0.880066 0.000188 0.876691
C52   C     C_R   0.781574 0.547108 0.806384 0.123464
C53   C     C_R   0.281791 0.049919 0.800505 0.109458
C54   C     C_R   0.814991 0.498892 0.814792 -0.078034
C55   C     C_R   0.315139 0.999014 0.814978 -0.070579
C56   C     C_R   0.783049 0.448875 0.756276 -0.226781
C57   C     C_R   0.283268 0.946157 0.762847 -0.227711
C58   C     C_R   0.718378 0.448618 0.691933 -0.222456
C59   C     C_R   0.218610 0.945951 0.698429 -0.221787
C60   C     C_R   0.685932 0.499347 0.684594 -0.102278
C61   C     C_3   0.894685 0.215324 0.955461 -0.464655
C62   C     C_R   0.186083 0.999272 0.684861 -0.105240
C63   C     C_R   0.719718 0.547886 0.742990 0.141792
C64   C     C_R   0.219928 0.050422 0.737293 0.144003
C65   C     C_3   0.715419 0.609038 0.770256 -0.453843
C66   C     C_3   0.215780 0.114902 0.757223 -0.456292
C67   C     C_3   0.786547 0.608316 0.842522 -0.525683
C68   C     C_3   0.286923 0.114327 0.829379 -0.510711
C69   C     C_R   0.000144 0.000712 0.880087 0.875151
C70   C     C_R   0.500156 0.499488 0.880165 0.876483
C71   C     C_R   0.999959 0.880181 0.000028 0.879038
C72   C     C_3   0.588156 0.286089 0.171951 -0.487083
C73   C     C_R   0.000103 0.120069 0.999767 0.876360
C74   C     C_R   0.499869 0.380047 0.999799 0.876924
C75   C     C_R   0.500013 0.620364 0.999511 0.872494
C76   C     C_R   0.880185 0.500234 0.880205 0.880111
C77   C     C_R   0.380236 0.000341 0.880257 0.879227
C78   C     C_R   0.999904 0.999936 0.119792 0.917068
C79   C     C_R   0.499879 0.500230 0.119732 0.920007
C80   C     C_R   0.502038 0.499802 0.381775 0.980121
C81   C     C_R   0.001872 0.999821 0.381646 0.976142
C82   C     C_R   0.380095 0.499811 0.380032 0.988575
C83   C     C_3   0.401532 0.715250 0.961035 -0.458198
C84   C     C_R   0.880063 0.999804 0.379129 0.986208
C85   C     C_R   0.500363 0.500169 0.620683 0.865853
C86   C     C_R   0.000030 0.000015 0.620253 0.867310
C87   C     C_R   0.620118 0.499964 0.619778 0.850511
C88   C     C_R   0.120170 0.999955 0.619837 0.849869
C89   C     C_R   0.974963 0.951352 0.756965 0.099331
C90   C     C_R   0.484448 0.552649 0.767240 0.102801
C91   C     C_R   0.001524 0.000303 0.815739 -0.079075
C92   C     C_R   0.501666 0.499710 0.816086 -0.073959
C93   C     C_R   0.036419 0.044789 0.819064 -0.213875
C94   C     C_3   0.936483 0.715528 0.040668 -0.467804
C95   C     C_R   0.529098 0.450407 0.811738 -0.220810
C96   C     C_R   0.529875 0.450659 0.748168 -0.208865
C97   C     C_R   0.036501 0.044863 0.754777 -0.212804
C98   C     C_R   0.504633 0.501058 0.691082 -0.104506
C99   C     C_R   0.003227 0.999247 0.689445 -0.095527
C100  C     C_R   0.972583 0.719650 0.018253 0.128718
C101  C     C_R   0.954883 0.281463 0.982344 0.118759
C102  C     C_R   0.537128 0.219257 0.075010 0.134135
C103  C     C_R   0.445755 0.782651 0.953566 0.090497
C104  C     C_R   0.486184 0.553456 0.705512 0.153893
C105  C     C_3   0.895599 0.286527 0.957447 -0.504352
C106  C     C_R   0.976343 0.950496 0.694881 0.150839
C107  C     C_3   0.427592 0.589484 0.642870 -0.484787
C108  C     C_3   0.912349 0.924980 0.626581 -0.491143
C109  C     C_3   0.910787 0.926214 0.695217 -0.479546
C110  C     C_3   0.425702 0.588416 0.711162 -0.491150
C111  C     C_R   0.965946 0.041522 0.184200 0.154742
C112  C     C_R   0.469064 0.544327 0.187224 0.150634
C113  C     C_R   0.999235 0.997645 0.184641 -0.176474
C114  C     C_R   0.499079 0.498126 0.184389 -0.173577
C115  C     C_R   0.029893 0.950086 0.246094 -0.306324
C116  C     C_3   0.587186 0.214875 0.171977 -0.491947
C117  C     C_R   0.526045 0.448384 0.241992 -0.297774
C118  C     C_R   0.528976 0.448541 0.309248 0.490906
C119  C     C_R   0.032782 0.950585 0.313364 0.490760
C120  C     C_R   0.502912 0.498773 0.316304 -0.261000
C121  C     C_R   0.003134 0.998842 0.316647 -0.251471
C122  C     C_R   0.471907 0.545200 0.253486 0.264530
C123  C     C_R   0.968912 0.042754 0.250493 0.252750
C124  C     C_3   0.481666 0.613641 0.265087 -0.431540
C125  C     C_3   0.972821 0.111701 0.256391 -0.444564
C126  C     C_R   0.001431 0.685814 0.001038 -0.105707
H1    H     H_    0.054612 0.693539 0.969171 0.168371
H2    H     H_    0.308091 0.905375 0.772572 0.144276
H3    H     H_    0.694142 0.409375 0.648209 0.156879
H4    H     H_    0.194492 0.904602 0.659579 0.160667
H5    H     H_    0.694059 0.605518 0.795508 0.204312
H6    H     H_    0.695858 0.645231 0.720147 0.208500
H7    H     H_    0.194573 0.116981 0.782802 0.202232
H8    H     H_    0.196117 0.147189 0.702958 0.206850
H9    H     H_    0.806292 0.604711 0.909535 0.213122
H10   H     H_    0.808037 0.643749 0.833714 0.200677
H11   H     H_    0.306824 0.116289 0.896606 0.217332
H12   H     H_    0.086375 0.307811 0.033244 0.158978
H13   H     H_    0.308377 0.145947 0.816545 0.202116
H14   H     H_    0.060791 0.080863 0.868381 0.152362
H15   H     H_    0.546958 0.410825 0.854313 0.150206
H16   H     H_    0.548194 0.411034 0.741896 0.169537
H17   H     H_    0.061006 0.080974 0.754796 0.162272
H18   H     H_    0.389541 0.562780 0.582954 0.194199
H19   H     H_    0.435183 0.636468 0.631269 0.209760
H20   H     H_    0.911686 0.877435 0.606293 0.211796
H21   H     H_    0.879427 0.957727 0.572004 0.192096
H22   H     H_    0.909094 0.879388 0.714411 0.203857
H23   H     H_    0.426562 0.192403 0.856798 0.156726
H24   H     H_    0.877031 0.959871 0.680639 0.217555
H25   H     H_    0.386524 0.561035 0.690855 0.217574
H26   H     H_    0.432265 0.634775 0.739075 0.204576
H27   H     H_    0.053072 0.913887 0.243467 0.166720
H28   H     H_    0.546497 0.410642 0.236538 0.158993
H29   H     H_    0.054633 0.807529 0.969456 0.154771
H30   H     H_    0.086854 0.193772 0.034025 0.167078
H31   H     H_    0.426257 0.306493 0.856737 0.159910
H32   H     H_    0.594750 0.694596 0.058279 0.174349
H33   H     H_    0.528227 0.626737 0.329025 0.188335
H34   H     H_    0.594719 0.808131 0.059846 0.152648
H35   H     H_    0.442680 0.638570 0.248264 0.242447
H36   H     H_    0.018107 0.128690 0.319091 0.193100
H37   H     H_    0.931764 0.132971 0.237625 0.230935
H38   H     H_    0.011284 0.127061 0.201458 0.203827
H39   H     H_    0.924883 0.129821 0.120631 0.214273
H40   H     H_    0.521222 0.625883 0.211292 0.204734
H41   H     H_    0.435339 0.635688 0.131061 0.218455
H42   H     H_    0.888410 0.806248 0.984048 0.218537
H43   H     H_    0.856839 0.195501 0.889026 0.211752
H44   H     H_    0.571612 0.307617 0.199111 0.201193
H45   H     H_    0.195668 0.566090 0.305242 0.201849
H46   H     H_    0.356127 0.695555 0.901839 0.208997
H47   H     H_    0.962537 0.808588 0.103364 0.210496
H48   H     H_    0.900659 0.194277 0.007774 0.196294
H49   H     H_    0.631467 0.305820 0.195983 0.210979
H50   H     H_    0.422801 0.693931 0.023766 0.195411
H51   H     H_    0.890439 0.693973 0.987558 0.198065
H52   H     H_    0.858568 0.307829 0.892084 0.199196
H53   H     H_    0.570553 0.195245 0.199772 0.216405
H54   H     H_    0.357138 0.806243 0.905302 0.201560
H55   H     H_    0.964146 0.696286 0.106972 0.215481
H56   H     H_    0.196775 0.489982 0.347660 0.201529
H57   H     H_    0.901912 0.306558 0.010741 0.215371
H58   H     H_    0.629738 0.193533 0.195326 0.192757
H59   H     H_    0.423695 0.804871 0.027356 0.220412
H60   H     H_    0.193146 0.501640 0.092192 0.217802
H61   H     H_    0.692411 0.973593 0.094515 0.216965
H62   H     H_    0.306486 0.567180 0.415126 0.208085
H63   H     H_    0.307210 0.490895 0.456923 0.204177
H64   H     H_    0.805041 0.095636 0.389347 0.216456
H65   H     H_    0.807327 0.034546 0.452846 0.196542
H66   H     H_    0.627052 0.384564 0.496763 0.171084
H67   H     H_    0.694240 0.092736 0.280554 0.190784
H68   H     H_    0.620396 0.463204 0.466836 0.089189
H69   H     H_    0.658613 0.353724 0.420315 0.236404
H70   H     H_    0.655764 0.433855 0.395052 0.217906
H71   H     H_    0.735637 0.459617 0.555201 0.271266
H72   H     H_    0.762792 0.403233 0.527019 0.267591
H73   H     H_    0.739514 0.378726 0.579911 0.259707
H74   H     H_    0.134082 0.894567 0.505882 0.171988
H75   H     H_    0.121655 0.972395 0.470022 0.087738
H76   H     H_    0.170150 0.866616 0.434525 0.236838
H77   H     H_    0.161336 0.946333 0.403400 0.218777
H78   H     H_    0.696956 0.031543 0.344431 0.203490
H79   H     H_    0.237261 0.977935 0.561667 0.269719
H80   H     H_    0.269975 0.924529 0.539112 0.266113
H81   H     H_    0.247277 0.897417 0.591852 0.262880
H82   H     H_    0.331538 0.606240 0.209663 0.344006
H83   H     H_    0.820894 0.074232 0.174454 0.345483
H84   H     H_    0.807825 0.410178 0.761111 0.147834
O1    O     O_R   0.091640 0.500000 0.143360 -0.624441
O2    O     O_R   0.551700 0.500000 0.143310 -0.630382
O3    O     O_R   0.499940 0.551750 0.408310 -0.617333
O4    O     O_R   0.499940 0.448250 0.408310 -0.564570
O5    O     O_R   0.999940 0.051750 0.408310 -0.632902
O6    O     O_R   0.999940 0.948250 0.408310 -0.554708
O7    O     O_R   0.408380 0.551720 0.408370 -0.608901
O8    O     O_R   0.408380 0.448280 0.408370 -0.604519
O9    O     O_R   0.908380 0.051720 0.408370 -0.620051
O10   O     O_R   0.908380 0.948280 0.408370 -0.597666
O11   O     O_R   0.500050 0.551670 0.591650 -0.627368
O12   O     O_R   0.591640 0.000000 0.143360 -0.623712
O13   O     O_R   0.500050 0.448330 0.591650 -0.629817
O14   O     O_R   0.000050 0.051670 0.591650 -0.629909
O15   O     O_R   0.000050 0.948330 0.591650 -0.624177
O16   O     O_R   0.591610 0.551710 0.591590 -0.631068
O17   O     O_R   0.591610 0.448290 0.591590 -0.639160
O18   O     O_R   0.091610 0.051710 0.591590 -0.631679
O19   O     O_R   0.091610 0.948290 0.591590 -0.637645
O20   O     O_R   0.091570 0.500000 0.039860 -0.624777
O21   O     O_R   0.591570 0.000000 0.039860 -0.622238
O22   O     O_R   0.000030 0.591610 0.051750 -0.624488
O23   O     O_R   0.051710 0.908380 0.051700 -0.622802
O24   O     O_R   0.000030 0.408390 0.051750 -0.621345
O25   O     O_R   0.500030 0.091610 0.051750 -0.623448
O26   O     O_R   0.500030 0.908390 0.051750 -0.623182
O27   O     O_R   0.999970 0.591600 0.948260 -0.624112
O28   O     O_R   0.999970 0.408400 0.948260 -0.621046
O29   O     O_R   0.499970 0.091600 0.948260 -0.621720
O30   O     O_R   0.499970 0.908400 0.948260 -0.619545
O31   O     O_R   0.908410 0.500000 0.960140 -0.622806
O32   O     O_R   0.408410 1.000000 0.960140 -0.620355
O33   O     O_R   0.908350 0.500000 0.856640 -0.620149
O34   O     O_R   0.051710 0.091620 0.051700 -0.627361
O35   O     O_R   0.408350 1.000000 0.856640 -0.623061
O36   O     O_R   0.948280 1.000000 0.856590 -0.624373
O37   O     O_R   0.448280 0.500000 0.856590 -0.626937
O38   O     O_R   0.051720 0.000000 0.960100 -0.623504
O39   O     O_R   0.551720 0.500000 0.960100 -0.619507
O40   O     O_R   0.948270 0.908380 0.948190 -0.620671
O41   O     O_R   0.948270 0.091620 0.948190 -0.622550
O42   O     O_R   0.448270 0.408380 0.948190 -0.619763
O43   O     O_R   0.448270 0.591620 0.948190 -0.621993
O44   O     O_3   0.555994 0.398741 0.365647 -0.617680
O45   O     O_R   0.551710 0.408380 0.051700 -0.626289
O46   O     O_3   0.063339 0.903008 0.373532 -0.619186
O47   O     O_2   0.364403 0.453752 0.225157 -0.273838
O48   O     O_2   0.276451 0.508868 0.093078 -0.300656
O49   O     O_3   0.362313 0.573269 0.232964 -0.570114
O50   O     O_2   0.867834 0.926028 0.241878 -0.256454
O51   O     O_2   0.775098 0.960656 0.095055 -0.299352
O52   O     O_3   0.854735 0.043571 0.209562 -0.582695
O53   O     O_R   0.551710 0.591620 0.051700 -0.625523
O54   O     O_R   0.948260 0.000000 0.039800 -0.609151
O55   O     O_R   0.448260 0.500000 0.039800 -0.604498
O56   O     O_R   0.051700 1.000000 0.143310 -0.627793
S1    S     S_3+6 0.321305 0.507334 0.190913 0.012387
S2    S     S_3+6 0.820026 0.976054 0.190739 0.015501
Zn1   Zn    Zn3+2 0.000030 0.500000 0.069110 0.949164
Zn2   Zn    Zn3+2 0.500000 0.430940 0.499990 1.000860
Zn3   Zn    Zn3+2 0.000000 0.069060 0.499990 0.952737
Zn4   Zn    Zn3+2 0.000000 0.930940 0.499990 1.013251
Zn5   Zn    Zn3+2 0.500030 1.000000 0.069110 0.952567
Zn6   Zn    Zn3+2 0.999950 0.500000 0.930890 0.967442
Zn7   Zn    Zn3+2 0.499950 1.000000 0.930890 0.968330
Zn8   Zn    Zn3+2 0.930930 1.000000 0.930840 0.961952
Zn9   Zn    Zn3+2 0.430930 0.500000 0.930840 0.967619
Zn10  Zn    Zn3+2 0.069060 1.000000 0.069060 0.953914
Zn11  Zn    Zn3+2 0.569060 0.500000 0.069060 0.951163
Zn12  Zn    Zn3+2 0.500000 0.569060 0.499990 0.963413

loop_
_geom_bond_atom_site_label_1
_geom_bond_atom_site_label_2
_ccdc_geom_bond_type
O45   Zn11  S    
C66   C68   S    
C5    C103  A    
C59   H4    S    
O29   Zn7   S    
C86   C99   S    
C1    O1    A    
C24   C42   A    
C6    C111  S    
C14   C18   A    
C13   C32   A    
C19   C23   A    
C125  H36   S    
O47   S1    D    
C7    C124  S    
C9    C14   A    
C119  O46   S    
C57   H2    S    
C112  C114  A    
C68   H11   S    
H83   O52   S    
C88   O18   A    
O56   Zn10  S    
C15   C19   A    
O23   Zn10  S    
C73   O34   A    
O9    Zn3   S    
C26   C27   S    
O8    Zn2   S    
C22   C101  A    
C86   O14   A    
C47   C126  S    
C60   C63   A    
C100  C126  A    
C78   O56   A    
O31   Zn1   S    
C35   C37   A    
C31   H79   S    
C37   C40   A    
C110  H26   S    
C10   C15   A    
C44   H65   S    
O52   S2    S    
C30   C31   S    
C63   C65   S    
O19   Zn4   S    
O53   Zn11  S    
C57   C59   A    
C23   C102  A    
C20   C25   A    
C58   H3    S    
C58   C60   A    
C124  H33   S    
C89   C109  S    
C3    C48   S    
C108  C109  S    
O4    Zn2   S    
O26   Zn5   S    
C9    H12   S    
C72   H49   S    
C34   H60   S    
C53   C68   S    
C40   C84   S    
C97   H17   S    
C62   C64   A    
C85   C98   S    
C118  O44   S    
C79   O55   A    
C66   H8    S    
C1    O20   A    
C29   O46   S    
O7    Zn12  S    
C95   C96   A    
C44   C46   S    
C48   O28   A    
C65   C67   S    
C4    C102  A    
C12   C17   A    
C11   H34   S    
C39   O12   A    
C51   O30   A    
C94   H55   S    
O40   Zn8   S    
O50   S2    D    
C121  C123  A    
C84   O10   A    
C39   O21   A    
C105  H52   S    
C71   O40   A    
O38   Zn10  S    
C74   O45   A    
C15   H31   S    
C16   C20   A    
C70   O37   A    
C108  H21   S    
C44   H64   S    
C3    C101  A    
O27   Zn6   S    
C46   H78   S    
C88   O19   A    
O3    Zn12  S    
C70   C92   S    
H82   O49   S    
C47   O27   A    
C83   H50   S    
C115  H27   S    
C73   O41   A    
C41   C43   S    
C122  C124  S    
C2    C83   S    
C125  H37   S    
C42   C44   S    
O10   Zn4   S    
O48   S1    D    
C45   H45   S    
C13   C41   A    
C21   C50   S    
C65   H5    S    
C60   C87   S    
C120  C122  A    
C45   H56   S    
C108  H20   S    
C55   C77   S    
C119  C121  A    
C96   H16   S    
C101  C105  S    
C79   O2    A    
C30   H76   S    
C10   H23   S    
C75   O53   A    
C28   H73   S    
C29   H75   S    
O16   Zn12  S    
C16   H32   S    
C77   O32   A    
C76   O33   A    
C102  C116  S    
O41   Zn8   S    
O32   Zn5   S    
C38   C41   A    
C110  H25   S    
C26   O44   S    
C21   C100  A    
C26   H66   S    
C25   C103  A    
C80   O4    A    
C47   O22   A    
C36   S1    S    
C32   C34   A    
C111  C123  A    
C53   C64   A    
C52   C63   A    
C92   C95   A    
C28   H72   S    
O39   Zn11  S    
C20   C75   S    
C96   C98   A    
C51   O26   A    
C94   H51   S    
C72   H44   S    
O13   Zn2   S    
O37   Zn9   S    
C67   H9    S    
O42   Zn9   S    
O15   Zn4   S    
C31   H81   S    
C29   C30   S    
C30   H77   S    
C84   O9    A    
C91   C93   A    
C66   H7    S    
C43   C45   S    
C11   C16   A    
C68   H13   S    
C69   O38   A    
C90   C92   A    
C82   O8    A    
C94   C100  S    
C8    C12   A    
C87   O16   A    
C83   H46   S    
O34   Zn10  S    
O21   Zn7   S    
C111  C113  A    
C33   C39   S    
C105  H57   S    
C8    H1    S    
C3    C9    A    
C85   O13   A    
O33   Zn6   S    
C90   C104  A    
C52   C67   S    
O43   Zn9   S    
O51   S2    D    
C54   C76   S    
C29   H74   S    
O20   Zn6   S    
C43   H62   S    
C8    C126  A    
C7    H40   S    
C6    H38   S    
C95   H15   S    
C18   C73   S    
C87   O17   A    
C49   O29   A    
C55   C57   A    
C5    C11   A    
C50   H42   S    
O25   Zn5   S    
C107  C110  S    
C78   O54   A    
C80   C120  S    
C79   C114  S    
C109  H22   S    
C89   C91   A    
C90   C110  S    
C12   H29   S    
C4    C10   A    
C26   H68   S    
C93   C97   A    
C27   C28   S    
C65   H6    S    
C61   C105  S    
O24   Zn1   S    
O1    Zn1   S    
C124  H35   S    
C37   S2    S    
C31   H80   S    
C99   C106  A    
C7    H41   S    
C59   C62   A    
C97   C99   A    
C14   H30   S    
C18   C22   A    
C53   C55   A    
C70   O39   A    
C23   C72   S    
C19   C74   S    
C50   C94   S    
C61   H48   S    
C24   C33   A    
C6    C125  S    
C40   C42   A    
C75   O43   A    
O18   Zn3   S    
C74   O42   A    
C46   H67   S    
C54   C56   A    
C17   C71   S    
C80   O3    A    
C107  H19   S    
C112  C122  A    
C72   C116  S    
C115  C119  A    
C28   H71   S    
C2    H54   S    
O30   Zn7   S    
C4    C49   S    
O35   Zn7   S    
C89   C106  A    
C24   C46   S    
C7    C112  S    
O36   Zn8   S    
C67   H10   S    
C2    H59   S    
C49   O25   A    
C93   H14   S    
O28   Zn6   S    
C117  C118  A    
C22   C61   S    
C13   C45   S    
C81   O6    A    
C113  C115  A    
O55   Zn9   S    
C50   H47   S    
C81   O5    A    
C82   O7    A    
C62   C88   S    
C2    C103  S    
O12   Zn5   S    
O49   S1    S    
C98   C104  A    
C116  H58   S    
C36   C38   A    
C33   C35   A    
C34   C36   A    
C56   C58   A    
C56   H84   S    
C109  H24   S    
C77   O35   A    
C1    C32   S    
C106  C108  S    
O17   Zn2   S    
C118  C120  A    
C6    H39   S    
C114  C117  A    
C123  C125  S    
C61   H43   S    
C76   O31   A    
O54   Zn8   S    
O2    Zn11  S    
C69   O36   A    
C48   O24   A    
C27   H69   S    
C43   H63   S    
C35   H61   S    
C52   C54   A    
C116  H53   S    
C81   C121  S    
C117  H28   S    
C25   C83   S    
C86   O15   A    
O22   Zn1   S    
C5    C51   S    
O11   Zn12  S    
C27   H70   S    
O5    Zn3   S    
C107  H18   S    
C69   C91   S    
C85   O11   A    
C78   C113  S    
O6    Zn4   S    
C104  C107  S    
C38   C82   S    
C71   O23   A    
C64   C66   S    
O14   Zn3   S    
C17   C21   A    
