data_mof_unit_27356.cif
_audit_creation_date              2012-12-10T16:56:34-0500
_audit_creation_method            fapswitch 2.2
_symmetry_space_group_name_H-M    P1
_symmetry_Int_Tables_number       1
_space_group_crystal_system       triclinic
_cell_length_a                    7.772128
_cell_length_b                    8.577846
_cell_length_c                    15.734151
_cell_angle_alpha                 90.873906
_cell_angle_beta                  85.930963
_cell_angle_gamma                 93.646498
_cell_volume                      1044.14296263

loop_
_atom_site_label
_atom_site_type_symbol
_atom_type_description
_atom_site_fract_x
_atom_site_fract_y
_atom_site_fract_z
_atom_type_partial_charge
C1    C     C_R   0.545772 0.794723 0.497808 0.962059
C2    C     C_3   0.371289 0.404035 0.030731 0.396509
C3    C     C_1   0.506555 0.498196 0.750377 -0.149083
C4    C     C_1   0.493445 0.501805 0.249622 -0.149084
C5    C     C_3   0.352317 0.546125 0.975481 0.393928
C6    C     C_3   0.647687 0.453878 0.024518 0.394005
C7    C     C_3   0.504631 0.496234 0.916227 -0.003562
C8    C     C_3   0.495370 0.503768 0.083773 -0.003542
C9    C     C_1   0.507263 0.496939 0.825498 0.117280
C10   C     C_1   0.492737 0.503062 0.174502 0.117287
C11   C     C_R   0.454228 0.205277 0.502191 0.962060
C12   C     C_R   0.502227 0.499862 0.661846 0.893648
C13   C     C_R   0.497773 0.500138 0.338154 0.893646
C14   C     C_2   0.569850 0.958210 0.496555 -0.364112
C15   C     C_2   0.430150 0.041790 0.503445 -0.364112
C16   C     C_3   0.475953 0.649314 0.028771 -0.437509
C17   C     C_3   0.524050 0.350689 0.971230 -0.437314
C18   C     C_3   0.628713 0.595968 0.969269 0.396433
H1    H     H_    0.456307 0.769804 0.052600 0.197669
H2    H     H_    0.125997 0.619085 0.999424 0.359183
H3    H     H_    0.543695 0.230198 0.947400 0.197670
H4    H     H_    0.701794 0.009263 0.489981 0.183484
H5    H     H_    0.298206 0.990737 0.510019 0.183484
H6    H     H_    0.013409 0.382109 0.436474 0.200871
H7    H     H_    0.986591 0.617891 0.563526 0.200871
H8    H     H_    0.819720 0.743958 0.983820 0.348373
H9    H     H_    0.180162 0.256178 0.016176 0.348401
H10   H     H_    0.874127 0.381175 0.000572 0.359233
N1    N     N_2   0.950320 0.457950 0.477300 -0.169191
N2    N     N_2   0.049680 0.542050 0.522700 -0.169191
O1    O     O_R   0.389250 0.738570 0.505570 -0.613145
O2    O     O_3   0.233882 0.306926 0.065645 -0.716790
O3    O     O_3   0.803646 0.409439 0.052847 -0.721279
O4    O     O_3   0.196353 0.590562 0.947157 -0.721307
O5    O     O_R   0.610750 0.261430 0.494430 -0.613144
O6    O     O_R   0.678390 0.711630 0.491020 -0.629656
O7    O     O_R   0.321610 0.288370 0.508980 -0.629656
O8    O     O_R   0.355460 0.513480 0.630490 -0.600372
O9    O     O_R   0.644540 0.486520 0.369510 -0.600371
O10   O     O_R   0.644600 0.486540 0.615950 -0.619147
O11   O     O_R   0.355400 0.513460 0.384050 -0.619146
O12   O     O_3   0.766123 0.693073 0.934355 -0.716811
Zn1   Zn    Zn3+2 0.306940 0.517990 0.509710 0.970714
Zn2   Zn    Zn3+2 0.693060 0.482010 0.490290 0.970715

loop_
_geom_bond_atom_site_label_1
_geom_bond_atom_site_label_2
_ccdc_geom_bond_type
C12   O10   A    
O7    Zn1   S    
N1    N2    D    
C3    C9    T    
C1    C14   S    
C6    O3    S    
O10   Zn2   S    
C7    C18   S    
H2    O4    S    
C5    O4    S    
C14   H4    S    
C13   O11   A    
O8    Zn1   S    
C8    C16   S    
C2    C17   S    
O5    Zn2   S    
O11   Zn1   S    
O9    Zn2   S    
O1    Zn1   S    
C16   H1    S    
C2    O2    S    
C15   H5    S    
H10   O3    S    
C5    C7    S    
C18   O12   S    
N1    Zn2   S    
C12   O8    A    
C6    C18   S    
C2    C8    S    
N2    Zn1   S    
C13   O9    A    
C2    C5    S    
O6    Zn2   S    
C4    C10   T    
C7    C9    S    
C1    O1    A    
H8    O12   S    
C16   C18   S    
H7    N2    S    
C11   O7    A    
C6    C17   S    
C14   C15   D    
C5    C16   S    
C6    C8    S    
C3    C12   S    
H9    O2    S    
H6    N1    S    
C11   C15   S    
C11   O5    A    
C8    C10   S    
C17   H3    S    
C4    C13   S    
C1    O6    A    
C7    C17   S    
