data_mof_unit_21235.cif
_audit_creation_date              2013-03-05T16:46:59-0500
_audit_creation_method            fapswitch 2.2
_symmetry_space_group_name_H-M    P1
_symmetry_Int_Tables_number       1
_space_group_crystal_system       triclinic
_cell_length_a                    15.015024
_cell_length_b                    8.93208
_cell_length_c                    8.099958
_cell_angle_alpha                 90.002515
_cell_angle_beta                  90.000023
_cell_angle_gamma                 90.000026
_cell_volume                      1086.32907022

loop_
_atom_site_label
_atom_site_type_symbol
_atom_site_description
_atom_site_fract_x
_atom_site_fract_y
_atom_site_fract_z
_atom_type_partial_charge
O1    O     O_R   0.500000 0.285350 0.636850 -0.615549
O2    O     O_R   0.500000 0.714650 0.363150 -0.615549
O3    O     O_R   0.500000 0.714650 0.636850 -0.609528
O4    O     O_R   0.500000 0.285350 0.363150 -0.609528
C1    C     C_R   0.500000 0.217975 0.499999 0.941062
C2    C     C_R   0.500000 0.782025 0.500001 0.941063
O5    O     O_R   0.367850 0.500000 0.636890 -0.617541
O6    O     O_R   0.632150 0.500000 0.363110 -0.617540
O7    O     O_R   0.632150 0.500000 0.636890 -0.617540
O8    O     O_R   0.367850 0.500000 0.363110 -0.617541
C3    C     C_R   0.326252 0.500000 0.500000 0.883003
C4    C     C_R   0.673748 0.500000 0.500000 0.883002
Zn1   Zn    Zn3+2 0.500000 0.500000 0.682780 1.033382
Zn2   Zn    Zn3+2 0.500000 0.500000 0.317220 1.033382
N1    N     N_1   0.500000 0.500000 0.073640 -0.015754
N2    N     N_1   0.500000 0.500000 0.926360 -0.015754
C5    C     C_R   0.814574 0.557038 0.364192 -0.111522
C6    C     C_R   0.185425 0.442962 0.635809 -0.111519
C7    C     C_R   0.814574 0.442961 0.635807 -0.111521
C8    C     C_R   0.185425 0.557036 0.364190 -0.111521
C9    C     C_R   0.769314 0.500000 0.500000 -0.115694
C10   C     C_R   0.230685 0.500000 0.500000 -0.115694
C11   C     C_R   0.907055 0.440765 0.637718 0.002980
C12   C     C_R   0.092945 0.559232 0.362279 0.002978
C13   C     C_R   0.907055 0.559234 0.362280 0.002980
C14   C     C_R   0.092945 0.440765 0.637719 0.002980
C15   C     C_R   0.953607 0.499999 0.499999 -0.026869
C16   C     C_R   0.046393 0.499999 0.499999 -0.026870
C17   C     C_R   0.953487 0.380322 0.773575 0.359414
C18   C     C_R   0.046513 0.619673 0.226421 0.359416
C19   C     C_R   0.953487 0.619674 0.226422 0.359413
C20   C     C_R   0.046513 0.380323 0.773576 0.359417
C21   C     C_1   0.500000 0.065189 0.499998 -0.157052
C22   C     C_1   0.500000 0.934811 0.500002 -0.157052
H1    H     H_    0.776611 0.601259 0.261666 0.207409
H2    H     H_    0.223389 0.398743 0.738337 0.207410
H3    H     H_    0.776611 0.398741 0.738334 0.207409
H4    H     H_    0.223389 0.601255 0.261662 0.207410
Cl1   Cl    Cl    0.896371 0.302355 0.944964 -0.499242
Cl2   Cl    Cl    0.103629 0.697635 0.055027 -0.499243
Cl3   Cl    Cl    0.896371 0.697640 0.055032 -0.499242
Cl4   Cl    Cl    0.103629 0.302357 0.944967 -0.499242

loop_
_geom_bond_atom_site_label_1
_geom_bond_atom_site_label_2
_geom_bond_distance
_ccdc_geom_bond_type
O3    Zn1   1.953048 S    
C13   C19   1.410155 A    
C7    C11   1.388819 A    
C14   C20   1.410152 A    
C11   C15   1.418783 A    
C13   C15   1.418783 A    
C5    H1    1.081953 S    
C7    H3    1.081953 S    
C3    C10   1.434936 S    
C14   C16   1.418786 A    
C6    C14   1.388819 A    
O6    C4    1.272620 A    
O3    C2    1.261318 A    
C5    C13   1.388819 A    
C17   Cl1   1.774194 S    
C21   C22   1.164542 T    
C18   Cl2   1.774206 S    
O5    C3    1.272620 A    
O2    C2    1.261289 A    
C2    C22   1.364699 S    
O1    C1    1.261289 A    
C11   C17   1.410153 A    
C7    C9    1.389792 A    
C8    C10   1.389798 A    
C17   C20   1.396791 A    
O4    Zn2   1.953048 S    
C18   C19   1.396791 A    
O2    Zn2   1.953016 S    
O7    C4    1.272620 A    
C12   C18   1.410154 A    
O1    Zn1   1.953016 S    
O8    C3    1.272620 A    
N1    N2    1.192961 T    
C12   C16   1.418786 A    
O5    Zn1   2.018751 S    
C8    H4    1.081957 S    
O8    Zn2   2.018751 S    
Zn1   N2    1.972988 S    
C15   C16   1.393184 A    
O7    Zn1   2.018750 S    
Zn2   N1    1.972988 S    
O6    Zn2   2.018750 S    
C19   Cl3   1.774194 S    
C6    C10   1.389797 A    
C6    H2    1.081957 S    
C4    C9    1.434935 S    
C20   Cl4   1.774199 S    
C5    C9    1.389793 A    
C8    C12   1.388819 A    
O4    C1    1.261318 A    
C1    C21   1.364699 S    
