data_mof_unit_25232.cif
_audit_creation_date              2012-12-10T17:17:51-0500
_audit_creation_method            fapswitch 2.2
_symmetry_space_group_name_H-M    P1
_symmetry_Int_Tables_number       1
_space_group_crystal_system       triclinic
_cell_length_a                    14.792622
_cell_length_b                    16.230584
_cell_length_c                    9.74278
_cell_angle_alpha                 90.762323
_cell_angle_beta                  89.110509
_cell_angle_gamma                 89.990626
_cell_volume                      2338.68318984

loop_
_atom_site_label
_atom_site_type_symbol
_atom_type_description
_atom_site_fract_x
_atom_site_fract_y
_atom_site_fract_z
_atom_type_partial_charge
C1    C     C_R   0.385436 0.877670 0.500779 0.905356
C2    C     C_R   0.377851 0.115552 0.500734 0.898695
C3    C     C_R   0.885435 0.377671 0.500780 0.905338
C4    C     C_R   0.877851 0.615553 0.500734 0.898679
C5    C     C_R   0.306873 0.241086 0.407096 0.311502
C6    C     C_R   0.301912 0.765487 0.378041 0.301991
C7    C     C_R   0.806863 0.741080 0.407079 0.311485
C8    C     C_R   0.801920 0.265481 0.378049 0.301977
C9    C     C_R   0.731301 0.789970 0.389013 0.440717
C10   C     C_R   0.729352 0.210485 0.370688 0.368567
C11   C     C_R   0.231315 0.289979 0.389026 0.440725
C12   C     C_R   0.229345 0.710489 0.370683 0.368567
C13   C     C_R   0.671222 0.802015 0.499680 -0.193263
C14   C     C_R   0.675001 0.194821 0.488829 -0.211181
C15   C     C_R   0.171221 0.302014 0.499679 -0.193284
C16   C     C_R   0.174999 0.694822 0.488827 -0.211183
C17   C     C_R   0.672445 0.969642 0.117432 0.400921
C18   C     C_R   0.172453 0.469664 0.117434 0.400949
C19   C     C_R   0.738019 0.938017 0.021485 0.303025
C20   C     C_R   0.238035 0.438052 0.021486 0.303091
C21   C     C_R   0.727010 0.950397 0.881894 0.220467
C22   C     C_R   0.227019 0.450423 0.881894 0.220491
C23   C     C_R   0.660517 0.004600 0.846368 0.382722
C24   C     C_R   0.160518 0.504616 0.846368 0.382707
C25   C     C_R   0.579905 0.999622 0.921469 -0.083537
C26   C     C_R   0.079905 0.499627 0.921469 -0.083543
C27   C     C_R   0.582543 0.991945 0.068943 0.051098
C28   C     C_R   0.082545 0.491953 0.068944 0.051096
C29   C     C_R   0.421579 0.006887 0.074815 0.148554
C30   C     C_R   0.921578 0.506883 0.074815 0.148583
C31   C     C_R   0.614334 0.122088 0.497868 0.911026
C32   C     C_R   0.612406 0.876406 0.499756 0.880038
C33   C     C_R   0.114333 0.622089 0.497868 0.911023
C34   C     C_R   0.112406 0.376406 0.499756 0.880036
C35   C     C_R   0.423088 0.005316 0.927660 0.509698
C36   C     C_R   0.923088 0.505315 0.927660 0.509713
C37   C     C_R   0.194412 0.092958 0.636299 0.441024
C38   C     C_R   0.279644 0.820749 0.755100 0.510725
C39   C     C_R   0.694415 0.592969 0.636317 0.441103
C40   C     C_R   0.779641 0.320753 0.755103 0.510695
C41   C     C_R   0.132498 0.092953 0.744640 -0.125668
C42   C     C_R   0.206767 0.836736 0.843442 -0.050040
C43   C     C_R   0.632512 0.592969 0.744674 -0.125684
C44   C     C_R   0.706764 0.336738 0.843444 -0.050060
C45   C     C_R   0.592110 0.666369 0.789570 0.073275
C46   C     C_R   0.619465 0.314028 0.806866 0.065499
C47   C     C_R   0.092090 0.166350 0.789533 0.073282
C48   C     C_R   0.119467 0.814033 0.806859 0.065497
C49   C     C_R   0.604089 0.737960 0.711665 -0.120273
C50   C     C_R   0.608502 0.263941 0.690583 -0.055905
C51   C     C_R   0.104073 0.237945 0.711639 -0.120284
C52   C     C_R   0.108502 0.763946 0.690577 -0.055911
C53   C     C_R   0.666598 0.738586 0.600230 -0.027515
C54   C     C_R   0.682455 0.248465 0.601005 -0.009190
C55   C     C_R   0.166590 0.238577 0.600216 -0.027521
C56   C     C_R   0.182455 0.748466 0.601002 -0.009190
C57   C     C_R   0.223084 0.168159 0.580383 -0.033993
C58   C     C_R   0.263942 0.791610 0.620197 -0.004528
C59   C     C_R   0.723089 0.668166 0.580397 -0.033945
C60   C     C_R   0.763941 0.291612 0.620201 -0.004547
C61   C     C_R   0.302578 0.175793 0.498926 -0.219051
C62   C     C_R   0.320741 0.807264 0.502934 -0.215115
C63   C     C_R   0.802577 0.675795 0.498926 -0.219033
C64   C     C_R   0.820742 0.307263 0.502939 -0.215123
Cu1   Cu    Cu3+1 0.499990 0.000000 0.640660 1.065774
Cu2   Cu    Cu3+1 0.999990 0.500000 0.640660 1.065775
Cu3   Cu    Cu3+1 0.500010 0.000000 0.359340 1.078560
Cu4   Cu    Cu3+1 0.000010 0.500000 0.359340 1.078567
H1    H     H_    0.117140 0.035482 0.795258 0.171560
H2    H     H_    0.219391 0.864379 0.942129 0.174775
H3    H     H_    0.617155 0.535498 0.795296 0.171552
H4    H     H_    0.719387 0.364385 0.942127 0.174766
H5    H     H_    0.565195 0.791477 0.740687 0.207235
H6    H     H_    0.542139 0.239580 0.667668 0.146214
H7    H     H_    0.065175 0.291461 0.740658 0.207241
H8    H     H_    0.042138 0.739588 0.667661 0.146209
N1    N     N_R   0.501200 0.000000 0.147910 -0.183800
N2    N     N_R   0.001200 0.500000 0.147910 -0.183799
N3    N     N_R   0.501270 0.000000 0.852040 -0.205278
N4    N     N_R   0.001270 0.500000 0.852040 -0.205274
O1    O     O_R   0.409820 0.909830 0.618810 -0.506168
O2    O     O_R   0.409820 0.090170 0.618810 -0.534435
O3    O     O_R   0.909820 0.409830 0.618810 -0.506177
O4    O     O_R   0.909820 0.590170 0.618810 -0.534446
O5    O     O_R   0.409840 0.909830 0.381240 -0.570065
O6    O     O_R   0.409840 0.090170 0.381240 -0.587329
O7    O     O_R   0.909840 0.409830 0.381240 -0.570083
O8    O     O_R   0.909840 0.590170 0.381240 -0.587316
O9    O     O_R   0.590170 0.090170 0.618760 -0.555183
O10   O     O_R   0.590170 0.909830 0.618760 -0.605849
O11   O     O_R   0.090170 0.590170 0.618760 -0.555185
O12   O     O_R   0.090170 0.409830 0.618760 -0.605842
O13   O     O_R   0.590190 0.090180 0.381190 -0.498009
O14   O     O_R   0.590190 0.909820 0.381190 -0.500979
O15   O     O_R   0.090190 0.590180 0.381190 -0.498008
O16   O     O_R   0.090190 0.409820 0.381190 -0.500967
Cl1   Cl    Cl    0.404793 0.262576 0.312268 -0.597210
Cl2   Cl    Cl    0.369380 0.778350 0.227071 -0.557760
Cl3   Cl    Cl    0.904772 0.762556 0.312216 -0.597172
Cl4   Cl    Cl    0.869403 0.278331 0.227093 -0.557774
Cl5   Cl    Cl    0.812414 0.925716 0.759906 -0.551343
Cl6   Cl    Cl    0.312424 0.425749 0.759904 -0.551292
Cl7   Cl    Cl    0.705970 0.104629 0.836695 -0.595651
Cl8   Cl    Cl    0.205959 0.604650 0.836711 -0.595613
Cl9   Cl    Cl    0.322168 0.008075 0.839395 -0.652256
Cl10  Cl    Cl    0.822167 0.508076 0.839396 -0.652259
Cl11  Cl    Cl    0.218617 0.997662 0.556621 -0.691601
Cl12  Cl    Cl    0.384684 0.810532 0.834296 -0.641217
Cl13  Cl    Cl    0.718599 0.497677 0.556607 -0.691565
Cl14  Cl    Cl    0.884681 0.310539 0.834303 -0.641235
C65   C     C_3   0.541010 0.667548 0.923926 -0.382302
C66   C     C_3   0.456553 0.612323 0.922560 -0.312369
C67   C     C_3   0.429817 0.586837 0.067769 -0.570476
H9    H     H_    0.469415 0.532028 0.097307 0.228891
H10   H     H_    0.443608 0.636361 0.143496 0.290978
H11   H     H_    0.356753 0.572110 0.072363 0.312767
H12   H     H_    0.399798 0.645854 0.875966 0.312037
H13   H     H_    0.467538 0.555431 0.859964 0.237527
H14   H     H_    0.588410 0.645807 0.001691 0.218902
H15   H     H_    0.522408 0.731191 0.956108 0.274278
C68   C     C_3   0.539960 0.336879 0.897352 -0.396043
C69   C     C_3   0.542343 0.290990 0.033844 -0.243802
C70   C     C_3   0.575656 0.345498 0.152704 -0.607502
H16   H     H_    0.577438 0.309644 0.248534 0.286182
H17   H     H_    0.529807 0.398832 0.169670 0.271866
H18   H     H_    0.644892 0.368521 0.133955 0.217792
H19   H     H_    0.473233 0.268913 0.057880 0.287257
H20   H     H_    0.584391 0.234682 0.023409 0.275227
H21   H     H_    0.538504 0.404817 0.913791 0.219826
H22   H     H_    0.476163 0.320646 0.844453 0.244576
C71   C     C_3   0.040978 0.167515 0.923876 -0.382348
C72   C     C_3   0.956513 0.112305 0.922463 -0.312391
C73   C     C_3   0.929759 0.086799 0.067654 -0.570418
H23   H     H_    0.969372 0.031999 0.097195 0.228879
H24   H     H_    0.943519 0.136322 0.143395 0.291014
H25   H     H_    0.856700 0.072054 0.072214 0.312731
H26   H     H_    0.899768 0.145853 0.875872 0.312036
H27   H     H_    0.967494 0.055422 0.859845 0.237555
H28   H     H_    0.088365 0.145743 0.001637 0.218835
H29   H     H_    0.022390 0.231156 0.956088 0.274287
C74   C     C_3   0.039962 0.836887 0.897343 -0.396077
C75   C     C_3   0.042343 0.790996 0.033833 -0.243794
C76   C     C_3   0.075643 0.845506 0.152699 -0.607469
H30   H     H_    0.077425 0.809650 0.248528 0.286181
H31   H     H_    0.029786 0.898834 0.169662 0.271850
H32   H     H_    0.144876 0.868537 0.133955 0.217780
H33   H     H_    0.973235 0.768910 0.057856 0.287276
H34   H     H_    0.084399 0.734693 0.023401 0.275239
H35   H     H_    0.038510 0.904825 0.913783 0.219808
H36   H     H_    0.976165 0.820657 0.844443 0.244595
Cl15  Cl    Cl    0.688071 0.789692 0.222194 -0.600985
Cl16  Cl    Cl    0.700783 0.174612 0.204899 -0.550172
Cl17  Cl    Cl    0.188115 0.289734 0.222191 -0.600941
Cl18  Cl    Cl    0.200771 0.674618 0.204895 -0.550187
C77   C     C_3   0.328895 0.003905 0.145135 -0.327259
C78   C     C_3   0.272032 0.082911 0.136959 -0.335732
C79   C     C_3   0.177428 0.067155 0.196621 -0.826596
H37   H     H_    0.138595 0.027625 0.124765 0.240067
H38   H     H_    0.180905 0.035616 0.296100 0.299192
H39   H     H_    0.140754 0.125765 0.214788 0.286507
H40   H     H_    0.304797 0.132589 0.196026 0.285579
H41   H     H_    0.265252 0.105997 0.031430 0.270051
H42   H     H_    0.290824 0.950999 0.101768 0.218282
H43   H     H_    0.332691 0.991409 0.253345 0.268061
C80   C     C_3   0.828897 0.503880 0.145134 -0.327314
C81   C     C_3   0.772004 0.582868 0.136975 -0.335616
C82   C     C_3   0.677385 0.567056 0.196539 -0.826719
H44   H     H_    0.638564 0.527628 0.124518 0.240054
H45   H     H_    0.680824 0.535374 0.295899 0.299185
H46   H     H_    0.640724 0.625656 0.214898 0.286520
H47   H     H_    0.804723 0.632536 0.196124 0.285552
H48   H     H_    0.765262 0.605991 0.031462 0.270052
H49   H     H_    0.790844 0.450962 0.101769 0.218311
H50   H     H_    0.832696 0.491393 0.253344 0.268051
Cl19  Cl    Cl    0.723450 0.993658 0.275559 -0.464609
Cl20  Cl    Cl    0.223450 0.493667 0.275572 -0.464595
Cl21  Cl    Cl    0.841620 0.895692 0.073428 -0.513681
Cl22  Cl    Cl    0.341646 0.395743 0.073429 -0.513700

loop_
_geom_bond_atom_site_label_1
_geom_bond_atom_site_label_2
_ccdc_geom_bond_type
C58   C62   A    
C76   H32   S    
Cu2   Cu4   S    
C81   H48   S    
C80   C81   S    
Cu1   N3    S    
C13   C32   S    
C32   O14   A    
C65   C66   S    
Cu3   N1    S    
C14   C31   S    
C1    C62   S    
C53   C59   A    
C74   H35   S    
C70   H16   S    
C82   H45   S    
C54   C60   A    
C3    C64   S    
Cu1   O9    S    
C4    C63   S    
C50   C54   A    
C7    Cl3   S    
C37   C41   A    
C40   C60   A    
C6    Cl2   S    
C22   C24   A    
C78   C79   S    
C19   C21   A    
C34   O16   A    
C37   Cl11  S    
C50   H6    S    
C6    C12   A    
C66   H12   S    
C70   H17   S    
C17   Cl19  S    
C72   H27   S    
C76   H30   S    
C42   H2    S    
C65   H14   S    
C73   H24   S    
C69   H19   S    
C9    C13   A    
C71   H29   S    
C10   Cl16  S    
Cu2   O3    S    
C38   C58   A    
C11   C15   A    
C79   H37   S    
C32   O10   A    
C12   C16   A    
C72   C73   S    
C31   O9    A    
C73   H25   S    
C46   C68   S    
C44   H4    S    
C28   N2    A    
C19   Cl21  S    
C15   C34   S    
C51   C55   A    
C2    C61   S    
C29   C77   S    
C67   H11   S    
C21   Cl5   S    
C78   H41   S    
C81   H47   S    
C79   H38   S    
Cu4   N2    S    
C33   O15   A    
C66   C67   S    
C44   C46   A    
C74   H36   S    
C82   H46   S    
C13   C53   A    
C1    O5    A    
Cu1   O10   S    
C23   Cl7   S    
Cu3   O5    S    
Cu4   O15   S    
C39   Cl13  S    
C3    O7    A    
C17   C27   A    
C75   H34   S    
Cu4   O7    S    
C18   C28   A    
C10   C14   A    
C68   H21   S    
C82   H44   S    
C70   H18   S    
C40   Cl14  S    
Cu1   Cu3   S    
C80   H50   S    
C31   O13   A    
C37   C57   A    
C36   Cl10  S    
C26   N4    A    
C47   C71   S    
C65   H15   S    
C24   Cl8   S    
C15   C55   A    
C16   C56   A    
C35   Cl9   S    
C47   C51   A    
C16   C33   S    
Cu3   O14   S    
Cu1   O1    S    
C4    O4    A    
C45   C49   A    
C39   C59   A    
Cu1   O2    S    
C41   C47   A    
C1    O1    A    
C5    C61   A    
C68   H22   S    
C42   C48   A    
C57   C61   A    
C43   C45   A    
C7    C63   A    
C68   C69   S    
C8    C64   A    
C14   C54   A    
C5    Cl1   S    
C78   H40   S    
C79   H39   S    
C55   C57   A    
C36   N4    A    
C73   H23   S    
Cu4   O8    S    
C49   H5    S    
C2    O2    A    
C20   C22   A    
C40   C44   A    
C71   C72   S    
C51   H7    S    
C41   H1    S    
C67   H9    S    
C76   H31   S    
C46   C50   A    
C9    Cl15  S    
Cu3   O6    S    
C43   H3    S    
C25   N3    A    
C26   C28   A    
C75   H33   S    
C24   C26   A    
C30   C80   S    
C12   Cl18  S    
C52   H8    S    
Cu2   O12   S    
C45   C65   S    
C69   H20   S    
C5    C11   A    
Cu2   O11   S    
C4    O8    A    
C77   H43   S    
C25   C27   A    
Cu2   N4    S    
C29   C35   A    
C59   C63   A    
C22   Cl6   S    
C30   C36   A    
C60   C64   A    
C77   H42   S    
C6    C62   A    
C21   C23   A    
C72   H26   S    
C74   C75   S    
C3    O3    A    
C8    Cl4   S    
C81   C82   S    
C49   C53   A    
C35   N3    A    
C17   C19   A    
C56   C58   A    
C48   C74   S    
C2    O6    A    
C18   C20   A    
C23   C25   A    
C38   Cl12  S    
C34   O12   A    
C71   H28   S    
C11   Cl17  S    
Cu2   O4    S    
C30   N2    A    
C38   C42   A    
C7    C9    A    
C48   C52   A    
C29   N1    A    
C39   C43   A    
C8    C10   A    
C77   C78   S    
Cu3   O13   S    
C27   N1    A    
C66   H13   S    
C75   C76   S    
C69   C70   S    
C80   H49   S    
C20   Cl22  S    
C52   C56   A    
Cu4   O16   S    
C67   H10   S    
C33   O11   A    
C18   Cl20  S    
