data_mof_unit_65274.cif
_audit_creation_date              2012-12-10T21:06:16-0500
_audit_creation_method            fapswitch 2.2
_symmetry_space_group_name_H-M    P1
_symmetry_Int_Tables_number       1
_space_group_crystal_system       triclinic
_cell_length_a                    15.071103
_cell_length_b                    15.847095
_cell_length_c                    16.883833
_cell_angle_alpha                 89.45332
_cell_angle_beta                  95.294303
_cell_angle_gamma                 90.094897
_cell_volume                      4015.03309889

loop_
_atom_site_label
_atom_site_type_symbol
_atom_type_description
_atom_site_fract_x
_atom_site_fract_y
_atom_site_fract_z
_atom_type_partial_charge
C1    C     C_R   0.499914 0.338870 0.499927 0.918238
C2    C     C_R   0.500086 0.661130 0.500072 0.918240
C3    C     C_R   0.500181 0.913141 0.500168 0.163675
C4    C     C_R   0.499819 0.086859 0.499831 0.163675
C5    C     C_R   0.452771 0.955635 0.554761 -0.165790
C6    C     C_R   0.547229 0.044365 0.445239 -0.165790
C7    C     C_1   0.500237 0.824357 0.500239 -0.058916
C8    C     C_1   0.499763 0.175643 0.499761 -0.058916
C9    C     C_1   0.499787 0.250482 0.499799 -0.156002
C10   C     C_1   0.500213 0.749518 0.500201 -0.156002
C11   C     C_R   0.960164 0.524277 0.567824 -0.163718
C12   C     C_R   0.039836 0.475723 0.432176 -0.163719
C13   C     C_R   0.905039 0.499974 0.499991 0.070841
C14   C     C_R   0.094961 0.500026 0.500009 0.070842
C15   C     C_R   0.946079 0.475694 0.432167 -0.145319
C16   C     C_R   0.053921 0.524306 0.567833 -0.145321
C17   C     C_1   0.807170 0.499969 0.499976 0.067803
C18   C     C_1   0.192830 0.500031 0.500024 0.067801
C19   C     C_R   0.512096 0.501416 0.653358 0.897683
C20   C     C_R   0.487904 0.498583 0.346642 0.897678
C21   C     C_R   0.521307 0.505293 0.738938 -0.076538
C22   C     C_R   0.478693 0.494698 0.261062 -0.076539
C23   C     C_R   0.466678 0.558767 0.779230 0.120021
C24   C     C_R   0.533322 0.441221 0.220774 0.120024
C25   C     C_R   0.473220 0.556322 0.861533 -0.176991
C26   C     C_R   0.526775 0.443654 0.138471 -0.176991
C27   C     C_R   0.533420 0.500608 0.903789 0.288650
C28   C     C_R   0.466569 0.499358 0.096211 0.288646
C29   C     C_R   0.591604 0.452296 0.863520 -0.179858
C30   C     C_R   0.408384 0.547672 0.136477 -0.179858
C31   C     C_R   0.585551 0.454367 0.781146 -0.251142
C32   C     C_R   0.414443 0.545613 0.218851 -0.251145
C33   C     C_R   0.547408 0.956863 0.445408 -0.182895
C34   C     C_R   0.452592 0.043137 0.554592 -0.182895
H1    H     H_    0.569364 0.402759 0.107627 0.171795
H2    H     H_    0.430631 0.597216 0.892380 0.171794
H3    H     H_    0.628850 0.414127 0.750279 0.166491
H4    H     H_    0.371144 0.585855 0.249714 0.166493
H5    H     H_    0.583757 0.078763 0.402915 0.157288
H6    H     H_    0.416243 0.921237 0.597085 0.157288
H7    H     H_    0.584045 0.923414 0.403190 0.147325
H8    H     H_    0.415955 0.076586 0.596809 0.147325
H9    H     H_    0.094444 0.543356 0.620994 0.150593
H10   H     H_    0.905556 0.456644 0.379006 0.150594
H11   H     H_    0.930682 0.543305 0.620984 0.139714
H12   H     H_    0.069318 0.456695 0.379016 0.139714
N1    N     N_2   0.535707 0.490261 0.986684 -0.189567
N2    N     N_2   0.464281 0.509701 0.013315 -0.189568
N3    N     N_1   0.270550 0.500020 0.500020 -0.078179
N4    N     N_1   0.729450 0.499980 0.499980 -0.078178
O1    O     O_R   0.573650 0.378020 0.500000 -0.596625
O2    O     O_R   0.426350 0.621980 0.500000 -0.596625
O3    O     O_R   0.426310 0.378020 0.499960 -0.613252
O4    O     O_R   0.573690 0.621980 0.500040 -0.613252
O5    O     O_R   0.581880 0.499230 0.616150 -0.623092
O6    O     O_R   0.418120 0.500770 0.383850 -0.623091
O7    O     O_R   0.434550 0.499230 0.616110 -0.586566
O8    O     O_R   0.565450 0.500770 0.383890 -0.586566
Zn1   Zn    Zn3+2 0.598370 0.500000 0.500020 1.004009
Zn2   Zn    Zn3+2 0.401630 0.500000 0.499980 1.004008
I1    I     I_    0.623799 0.352456 0.278735 -0.372738
I2    I     I_    0.376209 0.647542 0.721275 -0.372739
H13   H     H_    0.639176 0.410591 0.895982 0.153068
H14   H     H_    0.360808 0.589371 0.104011 0.153068

loop_
_geom_bond_atom_site_label_1
_geom_bond_atom_site_label_2
_ccdc_geom_bond_type
C17   N4    T    
C7    C10   T    
C29   H13   S    
C24   I1    S    
C32   H4    S    
C27   C29   A    
C11   C13   A    
C11   C16   A    
C14   C18   S    
C26   C28   A    
N1    N2    D    
C34   H8    S    
C12   C15   A    
C4    C8    S    
C20   O6    A    
C33   H7    S    
C5    C34   A    
C28   C30   A    
C1    C9    S    
C29   C31   A    
C6    C33   A    
C23   C25   A    
C19   O7    A    
C30   C32   A    
C21   C31   A    
C16   H9    S    
C30   H14   S    
N3    Zn2   S    
C2    O2    A    
N4    Zn1   S    
C22   C24   A    
C12   H12   S    
C19   C21   S    
O3    Zn2   S    
C20   C22   S    
C15   H10   S    
C3    C7    S    
C14   C16   A    
O4    Zn1   S    
C21   C23   A    
C13   C15   A    
C24   C26   A    
C4    C34   A    
C11   H11   S    
C25   C27   A    
C3    C33   A    
C25   H2    S    
C19   O5    A    
C13   C17   S    
C2    C10   S    
O5    Zn1   S    
C26   H1    S    
C22   C32   A    
O1    Zn1   S    
C4    C6    A    
C2    O4    A    
C5    H6    S    
C27   N1    S    
C1    O3    A    
C6    H5    S    
C28   N2    S    
O7    Zn2   S    
C1    O1    A    
O2    Zn2   S    
O8    Zn1   S    
C20   O8    A    
C23   I2    S    
C31   H3    S    
O6    Zn2   S    
C18   N3    T    
C12   C14   A    
C8    C9    T    
C3    C5    A    
