data_mof_unit_10261.cif
_audit_creation_date              2012-12-10T19:26:44-0500
_audit_creation_method            fapswitch 2.2
_symmetry_space_group_name_H-M    P1
_symmetry_Int_Tables_number       1
_space_group_crystal_system       triclinic
_cell_length_a                    19.031309
_cell_length_b                    10.533947
_cell_length_c                    9.768664
_cell_angle_alpha                 90.733597
_cell_angle_beta                  89.691439
_cell_angle_gamma                 89.770502
_cell_volume                      1958.16579152

loop_
_atom_site_label
_atom_site_type_symbol
_atom_type_description
_atom_site_fract_x
_atom_site_fract_y
_atom_site_fract_z
_atom_type_partial_charge
C1    C     C_R   0.501563 0.257751 0.499686 0.877611
C2    C     C_3   0.550055 0.038547 0.409997 0.174550
C3    C     C_3   0.498408 0.385156 0.047344 -0.125361
C4    C     C_3   0.501831 0.614866 0.952664 -0.127908
C5    C     C_3   0.554130 0.439098 0.949415 -0.137181
C6    C     C_3   0.446031 0.560885 0.050448 -0.141261
C7    C     C_3   0.444708 0.446493 0.952782 0.275637
C8    C     C_3   0.555418 0.553384 0.047283 0.273369
C9    C     C_R   0.365644 0.503689 0.500654 0.855721
C10   C     C_R   0.634210 0.498420 0.499706 0.856961
C11   C     C_R   0.251893 0.432943 0.585163 -0.278559
C12   C     C_R   0.499447 0.742354 0.500234 0.870754
C13   C     C_R   0.737713 0.617355 0.436174 -0.282144
C14   C     C_R   0.179162 0.444345 0.599844 0.202885
C15   C     C_R   0.808811 0.646393 0.447820 0.200814
C16   C     C_R   0.144564 0.544723 0.532782 0.009406
C17   C     C_R   0.851833 0.565209 0.525567 0.025819
C18   C     C_R   0.182721 0.630880 0.454670 -0.210689
C19   C     C_R   0.823390 0.458792 0.589946 -0.212276
C20   C     C_R   0.255240 0.619535 0.439671 0.166251
C21   C     C_R   0.752558 0.428670 0.576408 0.164584
C22   C     C_R   0.289799 0.517902 0.504632 -0.103602
C23   C     C_3   0.517612 0.040971 0.626228 0.203284
C24   C     C_R   0.709618 0.511045 0.500627 -0.095395
C25   C     C_R   0.927610 0.579154 0.530880 0.291345
C26   C     C_R   0.068634 0.559669 0.534277 0.280944
C27   C     C_3   0.378847 0.384005 0.894744 -0.397197
C28   C     C_3   0.337046 0.317161 0.005932 -0.942307
C29   C     C_3   0.621748 0.613837 0.105781 -0.397081
C30   C     C_3   0.665485 0.676540 0.994611 -0.927863
C31   C     C_3   0.141006 0.345641 0.683088 -0.416024
C32   C     C_3   0.141413 0.381242 0.835055 -0.827998
C33   C     C_3   0.835547 0.767123 0.382969 -0.417701
C34   C     C_3   0.484975 0.959422 0.373154 0.197832
C35   C     C_3   0.851004 0.868812 0.491301 -0.860223
C36   C     C_3   0.293037 0.721342 0.360210 -0.429773
C37   C     C_3   0.274433 0.714322 0.208322 -0.854060
C38   C     C_3   0.725271 0.308091 0.641525 -0.424922
C39   C     C_3   0.759491 0.189512 0.578154 -0.892155
C40   C     C_3   0.540738 0.093702 0.766186 -0.363881
C41   C     C_3   0.564565 0.989555 0.862042 -0.923265
C42   C     C_3   0.464554 0.907442 0.231204 -0.365452
C43   C     C_3   0.435826 0.009740 0.138274 -0.932445
C44   C     C_3   0.395277 0.910558 0.685010 -0.380261
C45   C     C_3   0.565169 0.955143 0.535613 -0.254231
C46   C     C_3   0.350872 0.016598 0.749441 -0.901321
C47   C     C_3   0.606427 0.091451 0.314056 -0.373825
C48   C     C_3   0.656428 0.988347 0.260987 -0.914757
C49   C     C_3   0.437258 0.044979 0.463739 -0.260806
C50   C     C_3   0.499469 0.877351 0.499128 -0.164879
C51   C     C_3   0.502842 0.122866 0.500393 -0.162025
C52   C     C_3   0.452387 0.961939 0.589661 0.171026
H1    H     H_    0.279252 0.356334 0.635911 0.149196
H2    H     H_    0.713557 0.718066 0.040648 0.259235
H3    H     H_    0.681282 0.605647 0.914936 0.274968
H4    H     H_    0.634953 0.753587 0.946458 0.265722
H5    H     H_    0.606804 0.685800 0.184700 0.217643
H6    H     H_    0.654263 0.539040 0.153611 0.228768
H7    H     H_    0.196168 0.391887 0.871742 0.256839
H8    H     H_    0.112954 0.472036 0.853595 0.274779
H9    H     H_    0.115316 0.305594 0.894681 0.248361
H10   H     H_    0.086194 0.332388 0.647717 0.215138
H11   H     H_    0.167154 0.251707 0.669066 0.197358
H12   H     H_    0.703162 0.680908 0.381300 0.145911
H13   H     H_    0.803085 0.889087 0.553415 0.258059
H14   H     H_    0.893908 0.837708 0.559844 0.265982
H15   H     H_    0.867495 0.957673 0.440536 0.253737
H16   H     H_    0.882950 0.748138 0.319541 0.224443
H17   H     H_    0.795734 0.806320 0.311933 0.201767
H18   H     H_    0.283575 0.616850 0.167268 0.261123
H19   H     H_    0.218424 0.739920 0.192786 0.257982
H20   H     H_    0.307222 0.782122 0.150161 0.242829
H21   H     H_    0.277793 0.816287 0.401877 0.199845
H22   H     H_    0.350599 0.714697 0.371668 0.205658
H23   H     H_    0.155602 0.709009 0.406204 0.158435
H24   H     H_    0.754345 0.189995 0.464996 0.268277
H25   H     H_    0.816028 0.184315 0.604949 0.262369
H26   H     H_    0.733126 0.103471 0.617833 0.252045
H27   H     H_    0.735973 0.311313 0.753232 0.208354
H28   H     H_    0.667782 0.297492 0.629324 0.202391
H29   H     H_    0.616639 0.913383 0.564076 0.148347
H30   H     H_    0.385697 0.086546 0.435619 0.147856
H31   H     H_    0.520506 0.924842 0.884237 0.264376
H32   H     H_    0.608869 0.935228 0.815528 0.261196
H33   H     H_    0.582664 0.032616 0.959944 0.259335
H34   H     H_    0.857256 0.396377 0.647686 0.161040
H35   H     H_    0.585491 0.159275 0.750576 0.203723
H36   H     H_    0.497246 0.148335 0.814999 0.215247
H37   H     H_    0.389757 0.057399 0.186706 0.264575
H38   H     H_    0.477003 0.080177 0.115971 0.263504
H39   H     H_    0.418665 0.965726 0.040248 0.258184
H40   H     H_    0.510506 0.860835 0.181368 0.213759
H41   H     H_    0.423215 0.835099 0.243301 0.213403
H42   H     H_    0.383323 0.077311 0.817210 0.265265
H43   H     H_    0.326575 0.075913 0.669186 0.254511
H44   H     H_    0.308329 0.974543 0.812234 0.255191
H45   H     H_    0.370121 0.244893 0.056206 0.269774
H46   H     H_    0.360422 0.846840 0.624820 0.192352
H47   H     H_    0.419728 0.853792 0.766992 0.212036
H48   H     H_    0.683488 0.941729 0.347402 0.260478
H49   H     H_    0.627620 0.916100 0.200345 0.263217
H50   H     H_    0.696799 0.031584 0.193891 0.256020
H51   H     H_    0.581087 0.138885 0.226405 0.209003
H52   H     H_    0.637217 0.163971 0.370904 0.202431
H53   H     H_    0.599598 0.388468 0.902022 0.124919
H54   H     H_    0.401375 0.612935 0.097741 0.139025
H55   H     H_    0.497702 0.289489 0.092431 0.125240
H56   H     H_    0.318004 0.386929 0.084028 0.273437
H57   H     H_    0.503111 0.710742 0.907862 0.127844
H58   H     H_    0.291268 0.268222 0.959643 0.261132
H59   H     H_    0.344957 0.457948 0.848927 0.226437
H60   H     H_    0.394299 0.313875 0.814255 0.223464
N1    N     N_R   0.034447 0.577459 0.414772 -0.176145
N2    N     N_R   0.961878 0.563712 0.650890 -0.181391
N3    N     N_R   0.964943 0.585910 0.412988 -0.179581
N4    N     N_R   0.031494 0.555293 0.652707 -0.173254
N5    N     N_3   0.499950 0.500030 0.863290 -0.104102
N6    N     N_3   0.500050 0.499970 0.136710 -0.103114
O1    O     O_R   0.500000 0.313960 0.616610 -0.643346
O2    O     O_R   0.500000 0.686040 0.383390 -0.644344
O3    O     O_R   0.500030 0.313950 0.383350 -0.613447
O4    O     O_R   0.499970 0.686050 0.616650 -0.612723
O5    O     O_R   0.398120 0.499990 0.616660 -0.631235
O6    O     O_R   0.601880 0.500010 0.383340 -0.631673
O7    O     O_R   0.398150 0.499980 0.383410 -0.600691
O8    O     O_R   0.601850 0.500020 0.616590 -0.613470
Zn1   Zn    Zn3+2 0.499980 0.500010 0.655740 0.915942
Zn2   Zn    Zn3+2 0.500020 0.499990 0.344260 0.919069

loop_
_geom_bond_atom_site_label_1
_geom_bond_atom_site_label_2
_ccdc_geom_bond_type
C28   H45   S    
C4    H57   S    
C18   H23   S    
C23   C45   S    
C42   H41   S    
C7    N5    S    
C34   C42   S    
C14   C31   S    
C4    C8    S    
C19   H34   S    
C8    N6    S    
C5    H53   S    
C30   H2    S    
O8    Zn1   S    
C8    C29   S    
C39   H25   S    
C40   H35   S    
C36   C37   S    
C19   C21   A    
C32   H9    S    
C3    C7    S    
C25   N3    A    
C38   C39   S    
C33   C35   S    
C11   C14   A    
C9    C22   S    
C38   H27   S    
C35   H13   S    
C23   C40   S    
C41   H31   S    
C7    C27   S    
C1    O1    A    
O4    Zn1   S    
C17   C19   A    
C12   O2    A    
C44   H46   S    
C21   C38   S    
C47   C48   S    
C49   C51   S    
O7    Zn2   S    
C50   C52   S    
C18   C20   A    
C11   H1    S    
C33   H17   S    
O6    Zn2   S    
C2    C34   S    
C27   H59   S    
C37   H18   S    
C31   H10   S    
C43   H39   S    
N6    Zn2   S    
C44   C46   S    
C1    O3    A    
C2    C45   S    
C16   C26   S    
C48   H48   S    
C34   C50   S    
C43   H38   S    
C47   H51   S    
C46   H43   S    
C39   H26   S    
C31   H11   S    
O3    Zn2   S    
C4    C6    S    
C2    C51   S    
C35   H14   S    
C3    H55   S    
C41   H32   S    
C30   H4    S    
C9    O7    A    
C13   C24   A    
C5    N5    S    
N2    N4    A    
C49   H30   S    
C29   C30   S    
C3    N6    S    
N5    Zn1   S    
C23   C51   S    
C31   C32   S    
C46   H42   S    
C35   H15   S    
C49   C52   S    
C48   H50   S    
C6    H54   S    
C46   H44   S    
C43   H37   S    
C39   H24   S    
C1    C51   S    
C36   H22   S    
C9    O5    A    
C40   C41   S    
C29   H5    S    
C27   H60   S    
C13   C15   A    
C14   C16   A    
C4    N5    S    
C37   H20   S    
C42   C43   S    
C32   H8    S    
O5    Zn1   S    
C15   C17   A    
C34   C49   S    
C47   H52   S    
C45   H29   S    
C20   C22   A    
C3    C5    S    
C5    C8    S    
C12   C50   S    
O2    Zn2   S    
C6    C7    S    
C2    C47   S    
C41   H33   S    
C30   H3    S    
C11   C22   A    
C10   O6    A    
C28   H58   S    
C40   H36   S    
C37   H19   S    
C26   N1    A    
C17   C25   S    
C25   N2    A    
C44   C52   S    
C23   C52   S    
C13   H12   S    
C38   H28   S    
C45   C50   S    
C28   H56   S    
C48   H49   S    
C44   H47   S    
C15   C33   S    
C42   H40   S    
C26   N4    A    
C36   H21   S    
C20   C36   S    
C12   O4    A    
C29   H6    S    
C16   C18   A    
C21   C24   A    
C27   C28   S    
C10   C24   S    
C32   H7    S    
C10   O8    A    
C6    N6    S    
C33   H16   S    
N1    N3    A    
O1    Zn1   S    
