data_mof_unit_47282.cif
_audit_creation_date              2013-03-05T15:55:03-0500
_audit_creation_method            fapswitch 2.2
_symmetry_space_group_name_H-M    P1
_symmetry_Int_Tables_number       1
_space_group_crystal_system       triclinic
_cell_length_a                    14.856614
_cell_length_b                    15.037439
_cell_length_c                    14.992796
_cell_angle_alpha                 109.993613
_cell_angle_beta                  109.702834
_cell_angle_gamma                 109.129131
_cell_volume                      2565.12026884

loop_
_atom_site_label
_atom_site_type_symbol
_atom_site_description
_atom_site_fract_x
_atom_site_fract_y
_atom_site_fract_z
_atom_type_partial_charge
C1    C     C_R   0.184769 0.279343 0.251023 -0.133135
H1    H     H_    0.124002 0.303598 0.249707 0.116420
N1    N     N_R   0.291070 0.347930 0.293870 -0.041599
C2    C     C_R   0.598252 0.506392 0.803909 -0.157666
H2    H     H_    0.663985 0.489009 0.832068 0.118788
N2    N     N_R   0.554050 0.497220 0.706150 -0.042686
C3    C     C_R   0.452774 0.185601 0.407155 -0.138693
H3    H     H_    0.414379 0.123520 0.323380 0.100335
N3    N     N_R   0.497240 0.291100 0.443210 -0.041329
C4    C     C_R   0.289537 0.594837 0.589103 -0.091493
H4    H     H_    0.319897 0.651321 0.673856 0.133182
N4    N     N_R   0.347890 0.554050 0.556810 -0.043940
C5    C     C_R   0.535549 0.275745 0.590945 -0.123680
H5    H     H_    0.566709 0.295909 0.675682 0.100807
N5    N     N_R   0.554050 0.347900 0.556830 -0.043184
C6    C     C_R   0.200944 0.505429 0.406916 -0.153595
H6    H     H_    0.153846 0.481977 0.322522 0.124490
N6    N     N_R   0.291070 0.497250 0.443190 -0.044867
C7    C     C_R   0.503255 0.594021 0.803728 -0.112085
H7    H     H_    0.477618 0.652541 0.831334 0.110116
N7    N     N_R   0.497240 0.554030 0.706140 -0.040512
C8    C     C_R   0.272233 0.184442 0.236940 -0.129183
H8    H     H_    0.286372 0.117480 0.207108 0.083921
N8    N     N_R   0.347890 0.291110 0.293870 -0.039670
C9    C     C_R   0.170435 0.175594 0.216008 0.068090
C10   C     C_R   0.567819 0.566296 0.867429 0.070456
C11   C     C_R   0.469273 0.172654 0.496671 0.081014
C12   C     C_R   0.197961 0.568886 0.496189 0.051430
C13   C     C_R   0.403076 0.705460 0.407065 -0.226744
H9    H     H_    0.339164 0.669435 0.323101 0.153415
N9    N     N_R   0.445950 0.652100 0.443170 -0.060420
C14   C     C_R   0.816203 0.563886 0.595083 -0.133574
H10   H     H_    0.877766 0.615397 0.681073 0.122855
N10   N     N_R   0.708930 0.502750 0.556810 -0.044599
C15   C     C_R   0.548213 0.456822 0.232971 -0.139721
H11   H     H_    0.586636 0.412103 0.208720 0.099857
N11   N     N_R   0.502760 0.445970 0.293860 -0.041988
C16   C     C_R   0.707816 0.799255 0.803449 -0.121105
H12   H     H_    0.671698 0.845342 0.832482 0.175980
N12   N     N_R   0.652110 0.708890 0.706130 -0.046180
C17   C     C_R   0.801282 0.710723 0.805066 -0.120141
H13   H     H_    0.853637 0.679668 0.834708 0.128594
N13   N     N_R   0.708930 0.652070 0.706130 -0.047511
C18   C     C_R   0.464259 0.556036 0.240945 -0.112176
H14   H     H_    0.432684 0.609447 0.231520 0.106293
N14   N     N_R   0.445950 0.502780 0.293850 -0.040355
C19   C     C_R   0.498827 0.801658 0.589323 0.367088
N15   N     N_R   0.502760 0.708900 0.556790 -0.091739
C20   C     C_R   0.727423 0.466295 0.412214 -0.120980
H15   H     H_    0.711967 0.421169 0.330686 0.086482
N16   N     N_R   0.652110 0.445950 0.443190 -0.042105
Ni1   Ni    Ni4+2 0.369690 0.500010 0.369700 0.214890
Ni2   Ni    Ni4+2 0.630310 0.499990 0.630300 0.214670
Ni3   Ni    Ni4+2 0.500000 0.369720 0.369720 0.214103
Ni4   Ni    Ni4+2 0.500000 0.630280 0.630280 0.259594
C21   C     C_R   0.434444 0.800226 0.496485 -0.065094
C22   C     C_R   0.829954 0.548032 0.505199 0.059615
C23   C     C_R   0.532090 0.531091 0.204674 0.068598
C24   C     C_R   0.801896 0.803408 0.867948 0.043895
H16   H     H_    0.929312 0.411834 0.979474 0.147172
C25   C     C_R   0.025334 0.554507 0.142464 0.616497
C26   C     C_R   0.052916 0.594141 0.252974 -0.319369
H17   H     H_    0.109080 0.680279 0.313239 0.170065
C27   C     C_R   0.003855 0.522973 0.284745 0.055462
C28   C     C_R   0.927946 0.412079 0.205434 -0.198440
H18   H     H_    0.887376 0.356841 0.228161 0.128209
C29   C     C_R   0.902623 0.372466 0.096231 -0.172549
H19   H     H_    0.843650 0.287098 0.035330 0.171721
C30   C     C_R   0.951140 0.443327 0.064817 -0.262042
C31   C     C_R   0.928290 0.563993 0.403953 -0.231678
H20   H     H_    0.851510 0.527170 0.328831 0.124593
C32   C     C_R   0.932966 0.599347 0.505197 0.049313
C33   C     C_R   0.037404 0.669986 0.602073 0.033674
C34   C     C_R   0.129120 0.670404 0.595754 -0.234527
H21   H     H_    0.208509 0.718013 0.670604 0.140480
C35   C     C_R   0.117314 0.606153 0.494514 0.057685
C36   C     C_R   0.019525 0.566479 0.396616 0.077280
C37   C     C_R   0.008101 0.817301 0.706012 -0.141506
H22   H     H_    0.956079 0.808743 0.629168 0.120907
C38   C     C_R   0.030538 0.898224 0.804779 -0.093984
H23   H     H_    0.995304 0.950792 0.803857 0.118888
C39   C     C_R   0.099865 0.912535 0.904858 -0.117404
H24   H     H_    0.119369 0.977128 0.981119 0.122151
C40   C     C_R   0.144603 0.844151 0.906457 -0.070218
H25   H     H_    0.197395 0.854767 0.984190 0.135992
C41   C     C_R   0.122570 0.763142 0.807865 -0.150277
H26   H     H_    0.158699 0.711450 0.810457 0.124684
C42   C     C_R   0.054713 0.749578 0.706682 0.094079
C43   C     C_R   0.658566 0.554458 0.031873 0.191074
C44   C     C_R   0.606063 0.601119 0.982967 0.027272
C45   C     C_R   0.570542 0.663506 0.040385 -0.191681
H27   H     H_    0.538267 0.709315 0.011725 0.135690
C46   C     C_R   0.558029 0.651229 0.124436 -0.187783
H28   H     H_    0.518111 0.689492 0.158404 0.135255
C47   C     C_R   0.581125 0.576681 0.150179 0.028408
C48   C     C_R   0.645203 0.541417 0.113946 0.157938
C49   C     C_3   0.640990 0.433412 0.072719 -0.524238
C50   C     C_3   0.656448 0.447985 0.983616 -0.499289
H29   H     H_    0.712457 0.435472 0.131577 0.200733
H30   H     H_    0.558564 0.363007 0.038294 0.202257
H31   H     H_    0.737279 0.459571 0.991785 0.215696
H32   H     H_    0.583126 0.384946 0.900586 0.194626
C51   C     C_R   0.373702 0.879858 0.389304 0.256465
C52   C     C_R   0.398647 0.876491 0.486058 -0.003607
C53   C     C_R   0.406531 0.958603 0.574485 -0.122229
H33   H     H_    0.413283 0.953294 0.646250 0.186483
C54   C     C_R   0.420724 0.055867 0.576026 -0.198614
H34   H     H_    0.440253 0.124306 0.649590 0.139123
C55   C     C_R   0.422746 0.067115 0.487390 0.006555
C56   C     C_R   0.384845 0.973844 0.389539 0.191191
C57   C     C_3   0.429891 0.957577 0.313073 -0.528978
C58   C     C_3   0.418752 0.854987 0.313943 -0.481471
H35   H     H_    0.372666 0.940633 0.231100 0.212272
H36   H     H_    0.517286 0.021371 0.351754 0.199314
H37   H     H_    0.356406 0.779862 0.232704 0.252017
H38   H     H_    0.499891 0.860175 0.353968 0.190224
C59   C     C_R   0.966063 0.073860 0.121030 0.180588
C60   C     C_R   0.066313 0.075406 0.163579 0.012719
C61   C     C_R   0.062938 0.974690 0.138115 -0.199395
H39   H     H_    0.136913 0.971321 0.176510 0.161453
C62   C     C_R   0.967858 0.878240 0.047531 -0.146280
H40   H     H_    0.972071 0.804139 0.018885 0.206135
C63   C     C_R   0.877263 0.883892 0.984804 0.006673
C64   C     C_R   0.872315 0.978976 0.032336 0.130461
C65   C     C_3   0.832777 0.039964 0.983348 -0.442225
C66   C     C_3   0.935176 0.143479 0.080541 -0.560716
H41   H     H_    0.831914 0.023046 0.904713 0.216143
H42   H     H_    0.755824 0.034414 0.982101 0.224753
H43   H     H_    0.991478 0.184912 0.056344 0.210746
H44   H     H_    0.917323 0.196778 0.135822 0.200083
N17   N     N_R   0.532829 0.874188 0.699981 0.198566
O1    O     O_R   0.606116 0.976867 0.749112 -0.449508
O2    O     O_R   0.491128 0.838109 0.752236 -0.486755
S1    S     S_3+6 0.078140 0.643236 0.098420 -0.094898
O3    O     O_2   0.132887 0.760493 0.186428 -0.314714
O4    O     O_2   0.161066 0.623469 0.071663 -0.350533
O5    O     O_3   0.974202 0.618033 0.984785 -0.570950
H45   H     H_    0.965746 0.557505 0.922528 0.342866

loop_
_geom_bond_atom_site_label_1
_geom_bond_atom_site_label_2
_geom_bond_distance
_ccdc_geom_bond_type
C6    C12   1.377785 A    
N15   Ni4   1.871590 S    
C46   H28   1.081216 S    
C54   C55   1.404562 A    
C17   H13   1.080504 S    
C47   C48   1.401841 A    
N9    Ni1   1.861475 S    
C9    C60   1.457189 S    
S1    O5    1.682764 S    
C49   C50   1.503156 S    
N6    Ni1   1.856687 S    
C3    H3    1.067959 S    
C53   C54   1.398450 A    
N10   N16   1.380884 A    
C26   H17   1.083225 S    
C34   C35   1.405258 A    
C51   C56   1.366640 A    
N5    Ni2   1.861475 S    
C15   N11   1.327155 A    
C59   C64   1.376661 A    
C40   C41   1.398970 A    
C16   H12   1.073601 S    
C41   C42   1.407727 A    
C66   H44   1.110401 S    
N8    Ni3   1.842434 S    
N14   Ni1   1.857093 S    
C3    C11   1.373808 A    
C1    H1    1.075711 S    
C33   C34   1.395540 A    
C20   H15   1.071783 S    
C7    C10   1.386600 A    
C56   C57   1.501620 S    
C26   C27   1.405308 A    
C60   C61   1.408520 A    
N13   Ni2   1.860833 S    
N12   N13   1.383965 A    
C15   H11   1.065166 S    
C18   C23   1.389153 A    
C6    H6    1.072902 S    
C20   N16   1.335817 A    
C8    C9    1.386720 A    
C65   H42   1.111909 S    
C54   H34   1.082637 S    
C31   H20   1.081478 S    
C59   C66   1.495547 S    
C46   C47   1.407849 A    
C5    H5    1.080878 S    
C31   C36   1.385953 A    
C1    C9    1.379037 A    
C17   N13   1.341869 A    
N1    N8    1.383966 A    
C14   C22   1.382915 A    
C52   C53   1.406082 A    
C49   H29   1.111292 S    
C18   N14   1.334752 A    
C25   S1    1.759982 S    
C61   C62   1.400032 A    
C24   C63   1.458455 S    
C37   C42   1.407570 A    
C64   C65   1.499446 S    
C34   H21   1.080605 S    
C29   H19   1.082198 S    
C63   C64   1.401802 A    
C35   C36   1.419941 A    
C17   C24   1.385191 A    
C2    N2    1.323588 A    
C43   C44   1.401155 A    
C45   H27   1.081215 S    
N7    Ni4   1.871463 S    
C41   H26   1.083442 S    
C32   C33   1.410881 A    
S1    O4    1.502947 D    
C66   H43   1.112241 S    
C28   C29   1.395661 A    
C50   H32   1.112108 S    
N2    N7    1.383724 A    
C19   N17   1.426064 S    
C51   C58   1.499816 S    
C29   C30   1.394824 A    
C14   N10   1.332939 A    
C23   C47   1.457840 S    
C33   C42   1.483615 S    
C13   H9    1.081813 S    
C45   C46   1.396848 A    
C19   N15   1.339509 A    
C61   H39   1.082431 S    
N12   Ni4   1.842433 S    
C48   C49   1.498189 S    
C57   H35   1.112441 S    
C40   H25   1.083162 S    
C21   C52   1.445248 S    
C62   H40   1.080079 S    
C4    N4    1.338134 A    
N11   Ni3   1.871462 S    
C38   C39   1.396554 A    
C28   H18   1.083169 S    
C39   C40   1.397813 A    
N9    N15   1.380885 A    
C15   C23   1.383997 A    
C65   C66   1.504282 S    
C8    N8    1.341654 A    
N2    Ni2   1.857093 S    
N17   O1    1.300669 A    
C12   C35   1.476348 S    
C58   H38   1.112594 S    
C49   H30   1.112342 S    
C18   H14   1.079328 S    
O5    H45   0.990210 S    
C4    C12   1.395055 A    
C3    N3    1.315792 A    
C57   C58   1.501792 S    
C7    N7    1.336142 A    
C37   H22   1.083642 S    
C38   H23   1.082986 S    
N17   O2    1.299857 A    
C20   C22   1.394216 A    
C2    C10   1.376026 A    
N1    Ni1   1.860833 S    
S1    O3    1.502349 D    
C13   C21   1.371981 A    
C10   C44   1.455598 S    
C50   H31   1.112017 S    
C53   H33   1.079508 S    
C43   C50   1.499136 S    
N16   Ni3   1.842425 S    
C25   C30   1.400499 A    
C14   H10   1.075338 S    
C7    H7    1.080592 S    
C5    N5    1.339129 A    
N3    N5    1.380884 A    
C13   N9    1.319876 A    
C55   C56   1.398154 A    
C27   C28   1.404926 A    
C16   N12   1.324103 A    
C44   C45   1.406490 A    
H16   C30   1.082510 S    
C43   C48   1.377039 A    
C57   H36   1.112607 S    
C37   C38   1.397767 A    
C22   C32   1.470935 S    
C25   C26   1.405405 A    
C62   C63   1.406907 A    
N4    Ni4   1.842425 S    
C4    H4    1.078856 S    
C16   C24   1.372127 A    
C2    H2    1.079374 S    
C11   C55   1.442566 S    
N10   Ni2   1.856689 S    
C6    N6    1.329058 A    
C39   H24   1.080457 S    
N4    N6    1.380884 A    
C51   C52   1.394362 A    
C65   H41   1.112387 S    
C27   C36   1.477141 S    
C8    H8    1.073345 S    
C5    C11   1.390436 A    
C31   C32   1.394431 A    
N3    Ni3   1.871591 S    
C1    N1    1.328851 A    
N11   N14   1.383721 A    
C59   C60   1.397227 A    
C58   H37   1.109161 S    
C19   C21   1.386025 A    
