data_mof_unit_30085.cif
_audit_creation_date              2012-12-10T17:47:16-0500
_audit_creation_method            fapswitch 2.2
_symmetry_space_group_name_H-M    P1
_symmetry_Int_Tables_number       1
_space_group_crystal_system       triclinic
_cell_length_a                    11.704378
_cell_length_b                    14.74945
_cell_length_c                    14.599609
_cell_angle_alpha                 65.251605
_cell_angle_beta                  103.490189
_cell_angle_gamma                 102.812088
_cell_volume                      2203.65618756

loop_
_atom_site_label
_atom_site_type_symbol
_atom_type_description
_atom_site_fract_x
_atom_site_fract_y
_atom_site_fract_z
_atom_type_partial_charge
C1    C     C_R   0.481884 0.119373 0.311287 0.785218
C2    C     C_R   0.513975 0.880859 0.688340 0.786750
C3    C     C_R   0.451151 0.325632 0.996341 0.097029
C4    C     C_R   0.515183 0.677077 0.002245 0.102374
C5    C     C_R   0.491040 0.467062 0.052413 0.034374
C6    C     C_R   0.481906 0.535282 0.948581 0.031339
C7    C     C_R   0.447770 0.496421 0.871372 -0.279334
C8    C     C_R   0.519555 0.507107 0.129056 -0.291955
C9    C     C_R   0.435423 0.393706 0.894072 0.232787
C10   C     C_R   0.528160 0.610121 0.105034 0.229545
C11   C     C_R   0.735481 0.309641 0.619722 0.171230
C12   C     C_R   0.302260 0.720960 0.325631 0.170844
C13   C     C_R   0.688042 0.218255 0.609871 0.006506
C14   C     C_R   0.335185 0.799933 0.359626 -0.020163
C15   C     C_R   0.505797 0.278655 0.521822 0.001649
C16   C     C_R   0.484088 0.714514 0.487647 0.026309
C17   C     C_R   0.549613 0.376701 0.522784 -0.068428
C18   C     C_R   0.460791 0.634012 0.453230 -0.059851
C19   C     C_R   0.666208 0.389363 0.576092 0.059486
C20   C     C_R   0.361990 0.635308 0.375979 0.074754
C21   C     C_R   0.484300 0.462255 0.472834 0.000164
C22   C     C_R   0.530881 0.552783 0.492830 -0.011769
C23   C     C_R   0.284102 0.000261 0.499864 0.820308
C24   C     C_R   0.715863 0.999839 0.499957 0.818964
C25   C     C_R   0.650051 0.562724 0.543298 0.204691
C26   C     C_R   0.379618 0.465076 0.398102 0.210058
C27   C     C_R   0.715031 0.482456 0.581697 -0.225036
C28   C     C_R   0.323873 0.551623 0.349780 -0.245547
C29   C     C_1   0.162469 0.000568 0.499814 -0.196400
C30   C     C_1   0.837435 0.999667 0.499721 -0.198434
C31   C     C_1   0.059906 0.000380 0.499718 -0.008019
C32   C     C_1   0.939963 0.999911 0.499658 -0.007672
C33   C     C_R   0.472093 0.186439 0.201280 -0.085066
C34   C     C_R   0.512575 0.814431 0.797465 -0.084107
C35   C     C_R   0.443339 0.222175 0.019933 -0.211243
C36   C     C_R   0.513538 0.779736 0.975687 -0.221864
C37   C     C_R   0.460018 0.152458 0.121120 0.075214
C38   C     C_R   0.506320 0.848287 0.873860 0.073349
C39   C     C_R   0.476117 0.289566 0.176790 -0.263371
C40   C     C_R   0.511695 0.711377 0.824639 -0.264861
C41   C     C_R   0.473682 0.361270 0.076023 0.049921
C42   C     C_R   0.502217 0.640753 0.924428 0.055998
Cu1   Cu    Cu3+1 0.469550 0.918260 0.475690 0.932442
Cu2   Cu    Cu3+1 0.530450 0.081740 0.524310 0.928058
H1    H     H_    0.521184 0.687397 0.766783 0.153924
H2    H     H_    0.479553 0.312205 0.238459 0.168232
H3    H     H_    0.426978 0.195515 0.958873 0.165451
H4    H     H_    0.513372 0.806619 0.034070 0.164226
H5    H     H_    0.428269 0.544180 0.791663 0.148298
H6    H     H_    0.537276 0.460925 0.209164 0.149012
H7    H     H_    0.806895 0.494473 0.615301 0.195296
H8    H     H_    0.248626 0.552575 0.290075 0.192892
H9    H     H_    0.546899 0.713009 0.554662 0.181296
H10   H     H_    0.416493 0.257929 0.491668 0.198814
H11   H     H_    0.290596 0.866101 0.321628 0.128855
H12   H     H_    0.742112 0.158318 0.639808 0.134801
N1    N     N_R   0.576230 0.204580 0.560790 -0.205393
N2    N     N_R   0.423770 0.795420 0.439210 -0.200575
O1    O     O_R   0.459870 0.022090 0.338120 -0.584745
O2    O     O_R   0.540130 0.977910 0.661880 -0.582801
O3    O     O_R   0.511290 0.160150 0.379180 -0.569577
O4    O     O_R   0.488710 0.839850 0.620820 -0.584218
O5    O     O_R   0.311490 0.930960 0.479480 -0.571607
O6    O     O_R   0.688510 0.069040 0.520520 -0.581953
O7    O     O_R   0.362910 0.069020 0.520540 -0.585183
O8    O     O_R   0.637090 0.930980 0.479460 -0.562697
N3    N     N_2   0.405114 0.359275 0.812707 -0.445484
H13   H     H_    0.336238 0.391681 0.758195 0.255646
C43   C     C_3   0.505512 0.365937 0.767339 -0.705398
H14   H     H_    0.476552 0.329985 0.710973 0.235934
H15   H     H_    0.576205 0.326333 0.826739 0.240003
H16   H     H_    0.541912 0.446146 0.727740 0.232201
N4    N     N_2   0.552750 0.645789 0.185481 -0.446770
H17   H     H_    0.517194 0.596030 0.249596 0.263181
C44   C     C_3   0.676652 0.681249 0.211079 -0.706169
H18   H     H_    0.687484 0.709046 0.272927 0.230993
H19   H     H_    0.709749 0.744198 0.143697 0.235344
H20   H     H_    0.730340 0.618754 0.238492 0.233599
N5    N     N_2   0.712812 0.658231 0.540207 -0.442895
H21   H     H_    0.770668 0.689671 0.487835 0.259218
C45   C     C_3   0.765340 0.663876 0.638290 -0.723824
H22   H     H_    0.792041 0.744227 0.627926 0.240815
H23   H     H_    0.845531 0.625336 0.671169 0.225621
H24   H     H_    0.700271 0.629203 0.692448 0.226420
N6    N     N_2   0.339276 0.389183 0.357393 -0.459638
H25   H     H_    0.347233 0.414791 0.281417 0.252291
C46   C     C_3   0.222649 0.334182 0.377085 -0.712319
H26   H     H_    0.205612 0.269099 0.353821 0.233687
H27   H     H_    0.152831 0.383246 0.332792 0.227811
H28   H     H_    0.217598 0.304836 0.459875 0.236385
C47   C     C_3   0.487483 0.953913 0.852393 -0.381574
C48   C     C_3   0.605932 0.018728 0.869120 -0.322010
C49   C     C_3   0.585924 0.123409 0.852174 -0.863759
H29   H     H_    0.547240 0.163591 0.771420 0.267198
H30   H     H_    0.524879 0.117364 0.902623 0.249601
H31   H     H_    0.671127 0.167327 0.871103 0.238024
H32   H     H_    0.651654 0.982825 0.948700 0.210032
H33   H     H_    0.664395 0.025574 0.815893 0.229371
H34   H     H_    0.437130 0.989726 0.775115 0.217872
H35   H     H_    0.429853 0.949879 0.905227 0.176172
C50   C     C_3   0.468840 0.045158 0.138426 -0.395299
C51   C     C_3   0.597141 0.022606 0.179918 -0.310286
C52   C     C_3   0.605300 0.912249 0.207699 -0.818497
H36   H     H_    0.552199 0.862555 0.268907 0.274718
H37   H     H_    0.572323 0.892942 0.139667 0.245726
H38   H     H_    0.699232 0.898995 0.235520 0.233267
H39   H     H_    0.653827 0.070547 0.120628 0.208710
H40   H     H_    0.633260 0.040491 0.248726 0.225378
H41   H     H_    0.405600 0.990587 0.188406 0.213132
H42   H     H_    0.441161 0.033270 0.065581 0.169203
N7    N     N_2   0.855982 0.323606 0.665916 -0.442549
H43   H     H_    0.911447 0.288193 0.650327 0.250656
C53   C     C_3   0.872421 0.303713 0.773506 -0.733119
H44   H     H_    0.855706 0.221270 0.818241 0.222570
H45   H     H_    0.812320 0.342780 0.788722 0.238089
H46   H     H_    0.965408 0.331838 0.798659 0.237307
N8    N     N_2   0.211879 0.729687 0.239260 -0.443134
H47   H     H_    0.147222 0.770451 0.232865 0.246509
C54   C     C_3   0.256980 0.763665 0.144235 -0.718425
H48   H     H_    0.181859 0.763519 0.081710 0.230749
H49   H     H_    0.317639 0.712787 0.149595 0.251176
H50   H     H_    0.305480 0.841558 0.125094 0.217947

loop_
_geom_bond_atom_site_label_1
_geom_bond_atom_site_label_2
_ccdc_geom_bond_type
C37   C50   S    
C21   C26   A    
C4    C36   A    
C49   H29   S    
N4    C44   S    
N4    H17   S    
N7    H43   S    
Cu1   Cu2   S    
C35   H3    S    
C45   H22   S    
C48   H33   S    
C39   C41   A    
N6    H25   S    
Cu2   O6    S    
C11   C19   A    
C33   C39   A    
C34   C40   A    
C23   C29   S    
C35   C37   A    
N8    C54   S    
C5    C6    A    
C10   N4    S    
C2    O2    A    
C13   N1    A    
C50   H41   S    
C11   C13   A    
C15   C17   A    
C43   H15   S    
C16   H9    S    
Cu1   N2    S    
C22   C25   A    
C51   H40   S    
C47   H35   S    
C19   C27   A    
Cu1   O1    S    
C13   H12   S    
C2    C34   S    
C23   O5    A    
C14   H11   S    
C49   H30   S    
C34   C38   A    
C21   C22   A    
C15   N1    A    
Cu2   O7    S    
C43   H14   S    
C45   H23   S    
C27   H7    S    
C48   H32   S    
C36   H4    S    
C24   C30   S    
C54   H49   S    
C40   H1    S    
C14   N2    A    
N6    C46   S    
C11   N7    S    
N3    H13   S    
C50   C51   S    
C7    H5    S    
N7    C53   S    
C15   H10   S    
C47   C48   S    
N5    C45   S    
C20   C28   A    
C50   H42   S    
C38   C47   S    
C17   C21   A    
C12   N8    S    
N3    C43   S    
C43   H16   S    
C44   H18   S    
C9    N3    S    
C3    C9    A    
C31   C32   S    
C3    C35   A    
Cu2   N1    S    
C12   C20   A    
C51   H39   S    
C52   H37   S    
C16   N2    A    
C44   H19   S    
C39   H2    S    
C16   C18   A    
C1    O1    A    
C12   C14   A    
C49   H31   S    
C46   H27   S    
C4    C10   A    
C8    H6    S    
C45   H24   S    
C53   H44   S    
C54   H50   S    
C7    C9    A    
C5    C41   A    
C3    C41   A    
C18   C22   A    
C26   N6    S    
C1    O3    A    
C5    C8    A    
C54   H48   S    
C6    C7    A    
C24   O8    A    
Cu2   O3    S    
C25   C27   A    
C26   C28   A    
C53   H46   S    
C36   C38   A    
C29   C31   T    
N8    H47   S    
C30   C32   T    
C28   H8    S    
C23   O7    A    
C4    C42   A    
Cu2   O2    S    
Cu1   O8    S    
C40   C42   A    
C48   C49   S    
C17   C19   A    
C24   O6    A    
C52   H38   S    
C18   C20   A    
C51   C52   S    
C44   H20   S    
C33   C37   A    
C25   N5    S    
C1    C33   S    
N5    H21   S    
Cu1   O5    S    
C46   H26   S    
C8    C10   A    
C6    C42   A    
C46   H28   S    
C52   H36   S    
C47   H34   S    
C2    O4    A    
Cu1   O4    S    
C53   H45   S    
