data_mof_unit_23858.cif
_audit_creation_date              2012-10-26T18:54:57-0400
_audit_creation_method            fapswitch 2.2
_symmetry_space_group_name_H-M    P1
_symmetry_Int_Tables_number       1
_space_group_crystal_system       triclinic
_cell_length_a                    10.753159
_cell_length_b                    9.517639
_cell_length_c                    10.851062
_cell_angle_alpha                 89.953239
_cell_angle_beta                  90.280139
_cell_angle_gamma                 90.087705
_cell_volume                      1110.53358903

loop_
_atom_site_label
_atom_site_type_symbol
_atom_type_description
_atom_site_fract_x
_atom_site_fract_y
_atom_site_fract_z
_atom_type_partial_charge
C1    C     C_R   0.262430 0.499882 0.495139 0.547324
C2    C     C_R   0.500158 0.621595 0.937846 0.005789
C3    C     C_R   0.502572 0.498271 0.130256 -0.018341
C4    C     C_R   0.501926 0.498224 0.869992 -0.013713
C5    C     C_R   0.505140 0.370182 0.064848 -0.171383
C6    C     C_R   0.504947 0.370164 0.935664 -0.165725
C7    C     C_3   0.495205 0.778729 0.928742 0.055694
C8    C     C_3   0.496786 0.778750 0.071537 0.056673
C9    C     C_R   0.064904 0.441944 0.384289 0.020023
C10   C     C_R   0.932940 0.440832 0.385254 0.016753
C11   C     C_R   0.871270 0.500020 0.488106 0.020158
C12   C     C_R   0.737579 0.499970 0.496944 0.541942
C13   C     C_R   0.128516 0.499889 0.487233 0.025019
C14   C     C_R   0.936820 0.561675 0.584959 -0.159321
C15   C     C_R   0.064744 0.561150 0.584736 -0.155036
C16   C     C_3   0.263864 0.759572 0.895240 -0.299838
C17   C     C_3   0.728345 0.776483 0.107858 -0.297618
C18   C     C_3   0.137887 0.393687 0.271685 -0.275626
C19   C     C_3   0.170708 0.518235 0.189122 -0.448297
C20   C     C_3   0.857978 0.384784 0.276024 -0.266319
C21   C     C_3   0.840841 0.225449 0.283298 -0.417830
C22   C     C_R   0.424190 0.074330 0.421726 0.011674
C23   C     C_R   0.575955 0.074474 0.578137 0.004483
C24   C     C_R   0.424001 0.925500 0.421907 0.001965
C25   C     C_R   0.576046 0.925636 0.578048 0.000452
C26   C     C_R   0.500592 0.499901 0.262684 0.535078
C27   C     C_R   0.500480 0.499848 0.737391 0.551084
C28   C     C_R   0.501412 0.621625 0.062333 0.007375
Cu1   Cu    Cu3+1 0.500000 0.640660 0.500000 0.913505
Cu2   Cu    Cu3+1 0.500000 0.359340 0.500000 0.915306
H1    H     H_    0.506803 0.270288 0.112724 0.144031
H2    H     H_    0.636896 0.869566 0.640629 0.103304
H3    H     H_    0.390573 0.865792 0.784971 0.267890
H4    H     H_    0.185622 0.824641 0.860422 0.135962
H5    H     H_    0.248394 0.739695 0.994671 0.134434
H6    H     H_    0.263375 0.658343 0.844440 0.146931
H7    H     H_    0.595374 0.878408 0.213483 0.263174
H8    H     H_    0.802889 0.849448 0.138646 0.134663
H9    H     H_    0.744546 0.750913 0.009531 0.133844
H10   H     H_    0.734397 0.679199 0.164131 0.148418
H11   H     H_    0.084961 0.572593 0.157555 0.137048
H12   H     H_    0.506684 0.270256 0.887983 0.145216
H13   H     H_    0.230498 0.594387 0.239458 0.157865
H14   H     H_    0.221933 0.480485 0.106970 0.140144
H15   H     H_    0.224328 0.338533 0.298866 0.161543
H16   H     H_    0.086606 0.315034 0.216266 0.136363
H17   H     H_    0.931753 0.170704 0.286201 0.133322
H18   H     H_    0.787791 0.196060 0.366857 0.185088
H19   H     H_    0.788220 0.188486 0.201175 0.138727
H20   H     H_    0.764849 0.434278 0.270889 0.149000
H21   H     H_    0.901856 0.414144 0.187374 0.128760
H22   H     H_    0.579351 0.825115 0.885443 0.125325
H23   H     H_    0.410158 0.818165 0.114974 0.123285
H24   H     H_    0.888418 0.607985 0.662355 0.108220
H25   H     H_    0.114532 0.607095 0.661934 0.109607
H26   H     H_    0.363574 0.130288 0.358901 0.099443
H27   H     H_    0.636783 0.130611 0.640759 0.110360
H28   H     H_    0.363211 0.869323 0.359268 0.101543
N1    N     N_R   0.500000 0.852070 0.500000 -0.227318
N2    N     N_R   0.500000 0.147940 0.500000 -0.223982
N3    N     N_2   0.380211 0.833522 0.875078 -0.521114
N4    N     N_2   0.608242 0.842997 0.124705 -0.525610
O1    O     O_R   0.319640 0.618740 0.499990 -0.503118
O2    O     O_R   0.680360 0.618740 0.500010 -0.503883
O3    O     O_R   0.319620 0.381170 0.499990 -0.503539
O4    O     O_R   0.680380 0.381170 0.500010 -0.506008
O5    O     O_R   0.499990 0.618810 0.319660 -0.505014
O6    O     O_R   0.500010 0.618810 0.680340 -0.503421
O7    O     O_R   0.499960 0.381240 0.319650 -0.517058
O8    O     O_R   0.500040 0.381240 0.680350 -0.504695

loop_
_geom_bond_atom_site_label_1
_geom_bond_atom_site_label_2
_ccdc_geom_bond_type
C8    H23   S    
C20   H20   S    
C11   C12   S    
Cu1   O1    S    
Cu1   Cu2   S    
C17   N4    S    
Cu1   O6    S    
C9    C10   A    
Cu1   N1    S    
C2    C4    A    
C2    C7    S    
C22   H26   S    
C3    C5    A    
C21   H18   S    
C16   H4    S    
C4    C27   S    
C25   H2    S    
C21   H19   S    
H7    N4    S    
Cu1   O2    S    
C7    C8    S    
C15   H25   S    
C23   C25   A    
C16   H6    S    
Cu2   O4    S    
C27   O8    A    
C12   O4    A    
C24   N1    A    
C5    C6    A    
C26   O5    A    
C1    O1    A    
C4    C6    A    
C3    C28   A    
C14   H24   S    
C19   H13   S    
C7    H22   S    
C20   H21   S    
C17   H8    S    
C13   C15   A    
C16   H5    S    
C22   N2    A    
C23   N2    A    
C12   O2    A    
C11   C14   A    
C22   C24   A    
C5    H1    S    
Cu2   O3    S    
C1    C13   S    
C16   N3    S    
C18   H15   S    
C18   H16   S    
C9    C18   S    
Cu2   O7    S    
C24   H28   S    
C19   H14   S    
C8    C28   S    
H3    N3    S    
C18   C19   S    
C10   C11   A    
C10   C20   S    
C23   H27   S    
C26   O7    A    
C9    C13   A    
C14   C15   A    
C7    N3    S    
C2    C28   A    
C27   O6    A    
C25   N1    A    
Cu2   O8    S    
C20   C21   S    
Cu1   O5    S    
C6    H12   S    
C1    O3    A    
C3    C26   S    
C19   H11   S    
C8    N4    S    
C17   H9    S    
C21   H17   S    
C17   H10   S    
Cu2   N2    S    
