data_mof_unit_18352.cif
_audit_creation_date              2012-12-10T17:17:29-0500
_audit_creation_method            fapswitch 2.2
_symmetry_space_group_name_H-M    P1
_symmetry_Int_Tables_number       1
_space_group_crystal_system       triclinic
_cell_length_a                    10.338845
_cell_length_b                    10.625426
_cell_length_c                    12.108197
_cell_angle_alpha                 91.520429
_cell_angle_beta                  109.824874
_cell_angle_gamma                 95.450484
_cell_volume                      1243.19783597

loop_
_atom_site_label
_atom_site_type_symbol
_atom_type_description
_atom_site_fract_x
_atom_site_fract_y
_atom_site_fract_z
_atom_type_partial_charge
C1    C     C_R   0.046470 0.732188 0.485921 0.940032
C2    C     C_R   0.415229 0.481778 0.002241 0.062778
C3    C     C_R   0.316821 0.447681 0.890610 -0.031144
C4    C     C_R   0.545712 0.434798 0.029416 0.006330
C5    C     C_R   0.564457 0.330094 0.962190 0.083710
C6    C     C_R   0.449021 0.277056 0.863587 0.189490
C7    C     C_R   0.329216 0.338588 0.828352 -0.193063
C8    C     C_R   0.660184 0.497676 0.116911 -0.318544
C9    C     C_R   0.804811 0.337574 0.100020 0.153007
C10   C     C_R   0.208855 0.524177 0.842870 -0.132570
C11   C     C_2   0.061772 0.864592 0.462946 -0.396788
C12   C     C_R   0.134488 0.513321 0.715264 0.870755
C13   C     C_2   0.949931 0.927003 0.415959 0.236128
C14   C     C_2   0.905189 0.131119 0.479736 -0.387552
C15   C     C_2   0.973062 0.063365 0.426829 -0.176103
C16   C     C_2   0.429234 0.523041 0.484503 0.305958
C17   C     C_2   0.570005 0.481900 0.491804 0.203494
C18   C     C_R   0.946145 0.266351 0.501570 0.913522
C19   C     C_R   0.864434 0.482223 0.284856 0.867380
C20   C     C_R   0.697350 0.284277 0.996563 0.106244
C21   C     C_R   0.782257 0.443515 0.161493 -0.099930
C22   C     C_R   0.188220 0.622144 0.914842 0.149861
C23   C     C_R   0.268055 0.634702 0.034091 -0.135098
C24   C     C_R   0.379071 0.564296 0.079611 0.057337
H1    H     H_    0.820907 0.087329 0.505031 0.161684
H2    H     H_    0.165541 0.914766 0.493840 0.120404
H3    H     H_    0.653619 0.587565 0.157174 0.163251
H4    H     H_    0.244551 0.700418 0.092826 0.150772
H5    H     H_    0.243728 0.299845 0.751269 0.162821
H6    H     H_    0.058982 0.106378 0.403386 0.156279
N1    N     N_2   0.313640 0.446500 0.454900 -0.043826
N2    N     N_2   0.686360 0.553430 0.545150 -0.065153
O1    O     O_R   0.936910 0.692950 0.509080 -0.579663
O2    O     O_R   0.138320 0.658600 0.480130 -0.611910
O3    O     O_R   0.002900 0.525670 0.675280 -0.591793
O4    O     O_R   0.204310 0.491320 0.646330 -0.595087
O5    O     O_R   0.861680 0.341400 0.519870 -0.621735
O6    O     O_R   0.063090 0.307050 0.490920 -0.611464
O7    O     O_R   0.795690 0.508680 0.353670 -0.629092
O8    O     O_R   0.997100 0.474330 0.324720 -0.591630
Zn1   Zn    Zn3+2 0.865520 0.522940 0.519330 0.911070
Zn2   Zn    Zn3+2 0.134480 0.477060 0.480670 0.928230
C25   C     C_3   0.940689 0.280928 0.146530 -0.909249
H7    H     H_    0.027556 0.354182 0.153344 0.262288
H8    H     H_    0.952674 0.245079 0.234203 0.240889
H9    H     H_    0.950273 0.200525 0.091077 0.223926
C26   C     C_3   0.803123 0.864271 0.358493 -0.815282
H10   H     H_    0.736627 0.931242 0.303097 0.220295
H11   H     H_    0.801034 0.781103 0.300149 0.220423
H12   H     H_    0.757881 0.835086 0.426171 0.246917
N3    N     N_3   0.575327 0.360269 0.440574 -0.497799
H13   H     H_    0.624110 0.367543 0.378534 0.228775
H14   H     H_    0.625536 0.303684 0.507660 0.203894
C27   C     C_3   0.420244 0.662102 0.504397 -0.867518
H15   H     H_    0.517865 0.721594 0.513921 0.212725
H16   H     H_    0.342174 0.694887 0.425711 0.252538
H17   H     H_    0.393420 0.678928 0.584465 0.251760
C28   C     C_3   0.709892 0.604154 0.663822 -0.674443
H18   H     H_    0.784278 0.548974 0.726490 0.226308
H19   H     H_    0.754021 0.704861 0.673639 0.210044
H20   H     H_    0.616130 0.596195 0.689420 0.194309
C29   C     C_3   0.300840 0.322590 0.396900 -0.640108
H21   H     H_    0.190915 0.284473 0.360959 0.227008
H22   H     H_    0.333321 0.329253 0.318517 0.200886
H23   H     H_    0.356415 0.255601 0.460301 0.198521
C30   C     C_3   0.447799 0.158649 0.790921 -0.883128
H24   H     H_    0.344227 0.128911 0.724150 0.222967
H25   H     H_    0.520500 0.175799 0.741942 0.253354
H26   H     H_    0.474464 0.078454 0.848391 0.249136
N4    N     N_3   0.722746 0.183944 0.927682 -0.478669
H27   H     H_    0.806224 0.214725 0.901269 0.193878
H28   H     H_    0.744444 0.105079 0.977924 0.190376
C31   C     C_3   0.083707 0.714568 0.867746 -0.888521
H29   H     H_    0.096008 0.793910 0.933407 0.225042
H30   H     H_    0.096280 0.756380 0.788411 0.240223
H31   H     H_    0.978268 0.665607 0.846289 0.250335
N5    N     N_3   0.437396 0.564772 0.205447 -0.470178
H32   H     H_    0.488403 0.484764 0.231279 0.204318
H33   H     H_    0.505086 0.647320 0.238000 0.185364

loop_
_geom_bond_atom_site_label_1
_geom_bond_atom_site_label_2
_ccdc_geom_bond_type
C30   H25   S    
C7    H5    S    
N1    Zn2   S    
C31   H29   S    
C14   C18   S    
O4    Zn2   S    
O2    Zn2   S    
N2    C28   S    
C4    C8    A    
C17   N3    S    
C1    O1    A    
C26   H11   S    
C5    C20   A    
N5    H32   S    
C10   C22   A    
C16   N1    D    
C19   C21   S    
C18   O5    A    
O6    Zn2   S    
C3    C7    A    
C5    C6    A    
C30   H26   S    
C28   H19   S    
C29   H22   S    
C16   C17   S    
C1    C11   S    
C23   C24   A    
N4    H27   S    
C12   O4    A    
C28   H20   S    
O8    Zn2   S    
C30   H24   S    
C31   H30   S    
N1    C29   S    
C20   N4    S    
C10   C12   S    
C1    O2    A    
C26   H12   S    
N5    H33   S    
C27   H16   S    
C9    C25   S    
N3    H13   S    
O7    Zn1   S    
C13   C26   S    
C11   H2    S    
C28   H18   S    
N3    H14   S    
C2    C4    A    
C25   H7    S    
C29   H21   S    
C9    C20   A    
C26   H10   S    
N2    Zn1   S    
C8    C21   A    
C23   H4    S    
C12   O3    A    
C25   H8    S    
C19   O7    A    
C13   C15   S    
C2    C24   A    
C31   H31   S    
C15   H6    S    
C8    H3    S    
C27   H15   S    
C29   H23   S    
C14   C15   D    
C4    C5    A    
C6    C7    A    
O1    Zn1   S    
C2    C3    A    
C18   O6    A    
C3    C10   A    
C11   C13   D    
C9    C21   A    
C14   H1    S    
O5    Zn1   S    
O3    Zn1   S    
C25   H9    S    
C16   C27   S    
C19   O8    A    
C24   N5    S    
C6    C30   S    
C17   N2    D    
C22   C23   A    
N4    H28   S    
C22   C31   S    
C27   H17   S    
