data_mof_unit_23950.cif
_audit_creation_date              2012-12-10T17:01:33-0500
_audit_creation_method            fapswitch 2.2
_symmetry_space_group_name_H-M    P1
_symmetry_Int_Tables_number       1
_space_group_crystal_system       triclinic
_cell_length_a                    12.877682
_cell_length_b                    10.674409
_cell_length_c                    9.997971
_cell_angle_alpha                 90.33365
_cell_angle_beta                  97.859665
_cell_angle_gamma                 90.023129
_cell_volume                      1361.40289432

loop_
_atom_site_label
_atom_site_type_symbol
_atom_type_description
_atom_site_fract_x
_atom_site_fract_y
_atom_site_fract_z
_atom_type_partial_charge
C1    C     C_R   0.497822 0.262060 0.498968 0.949960
C2    C     C_R   0.029263 0.501369 0.562533 0.186768
C3    C     C_R   0.969122 0.537869 0.441034 0.148865
C4    C     C_R   0.861901 0.544235 0.433965 -0.274672
C5    C     C_R   0.873496 0.478813 0.668145 -0.207597
C6    C     C_R   0.981717 0.474822 0.676987 -0.221951
C7    C     C_2   0.526521 0.932484 0.394625 -0.205241
C8    C     C_2   0.547871 0.864618 0.507896 -0.045407
C9    C     C_2   0.530858 0.067075 0.396154 -0.176152
C10   C     C_2   0.493671 0.129005 0.495555 -0.365944
C11   C     C_2   0.562982 0.568926 0.936267 -0.136776
C12   C     C_R   0.297508 0.503334 0.472103 0.883556
C13   C     C_2   0.558253 0.574650 0.085704 -0.129556
C14   C     C_R   0.510602 0.737043 0.502162 0.893635
C15   C     C_R   0.701887 0.502409 0.527265 0.861319
C16   C     C_R   0.814021 0.509952 0.545068 -0.050989
C17   C     C_R   0.184046 0.513603 0.452909 -0.111702
C18   C     C_R   0.015687 0.563389 0.326314 -0.223654
C19   C     C_R   0.124060 0.551359 0.328769 0.085089
C20   C     C_R   0.135691 0.489414 0.567293 -0.301927
H1    H     H_    0.815482 0.571844 0.339898 0.154423
H2    H     H_    0.462781 0.081051 0.577320 0.157058
H3    H     H_    0.441951 0.452303 0.887317 0.160752
H4    H     H_    0.836503 0.453786 0.755284 0.160338
H5    H     H_    0.965820 0.591056 0.235454 0.130706
H6    H     H_    0.027715 0.447669 0.771322 0.143851
H7    H     H_    0.490907 0.890550 0.300020 0.162667
N1    N     N_2   0.501130 0.501330 0.852280 -0.190449
N2    N     N_2   0.501160 0.501360 0.147950 -0.193891
O1    O     O_R   0.499980 0.319060 0.613040 -0.614130
O2    O     O_R   0.500020 0.319100 0.386900 -0.609010
O3    O     O_R   0.346340 0.499960 0.594380 -0.613587
O4    O     O_R   0.346380 0.500000 0.368250 -0.634062
O5    O     O_R   0.499980 0.680900 0.613100 -0.611812
O6    O     O_R   0.500020 0.680940 0.386960 -0.628530
O7    O     O_R   0.653620 0.500000 0.631750 -0.632494
O8    O     O_R   0.653660 0.500040 0.405620 -0.613789
Zn1   Zn    Zn3+2 0.499980 0.499970 0.650990 0.932094
Zn2   Zn    Zn3+2 0.500020 0.500030 0.349010 0.924660
H8    H     H_    0.620911 0.626910 0.896957 0.155135
H9    H     H_    0.607492 0.643179 0.144648 0.154203
H10   H     H_    0.459038 0.431552 0.094370 0.157317
C21   C     C_3   0.175086 0.578630 0.202356 -0.365670
C22   C     C_3   0.102053 0.622976 0.076713 -0.403579
C23   C     C_3   0.163353 0.647159 0.958932 -0.871962
H11   H     H_    0.223482 0.720942 0.986352 0.265002
H12   H     H_    0.202449 0.559928 0.930962 0.252183
H13   H     H_    0.108867 0.679154 0.869947 0.256794
H14   H     H_    0.042037 0.549978 0.044579 0.222487
H15   H     H_    0.062429 0.711371 0.100155 0.228817
H16   H     H_    0.235554 0.652492 0.228180 0.218700
H17   H     H_    0.213477 0.491323 0.173058 0.219420
H18   H     H_    0.180841 0.459680 0.661378 0.166516
C24   C     C_3   0.616663 0.910537 0.635830 -0.409375
C25   C     C_3   0.715909 0.830210 0.667553 -0.347253
C26   C     C_3   0.788419 0.881718 0.788934 -0.896380
H19   H     H_    0.814724 0.977898 0.768064 0.266025
H20   H     H_    0.747310 0.883703 0.879641 0.256905
H21   H     H_    0.858484 0.820614 0.809930 0.254970
H22   H     H_    0.694589 0.733047 0.691000 0.238882
H23   H     H_    0.759042 0.827723 0.578506 0.224206
H24   H     H_    0.643600 0.008270 0.626021 0.233350
H25   H     H_    0.570597 0.907387 0.722022 0.201227
H26   H     H_    0.557268 0.114589 0.311040 0.179660

loop_
_geom_bond_atom_site_label_1
_geom_bond_atom_site_label_2
_ccdc_geom_bond_type
C12   C17   S    
C4    C16   A    
O6    Zn2   S    
C21   C22   S    
C14   O5    A    
O3    Zn1   S    
N2    H10   S    
C19   C21   S    
C9    H26   S    
C9    C10   D    
C8    C24   S    
C26   H21   S    
N1    Zn1   S    
C25   C26   S    
N2    Zn2   S    
C13   H9    S    
C2    C3    A    
C7    C8    D    
O8    Zn2   S    
C2    C6    A    
C25   H22   S    
C10   H2    S    
C4    H1    S    
C11   C13   S    
C21   H16   S    
C6    H6    S    
C5    H4    S    
C11   N1    D    
C15   C16   S    
C25   H23   S    
O7    Zn1   S    
C1    O1    A    
C17   C19   A    
O2    Zn2   S    
C23   H12   S    
C5    C6    A    
C18   H5    S    
C21   H17   S    
C24   H25   S    
C13   N2    D    
C2    C20   A    
C11   H8    S    
C23   H11   S    
C15   O7    A    
C1    O2    A    
C17   C20   A    
C7    H7    S    
C22   C23   S    
O1    Zn1   S    
C3    C18   A    
C7    C9    S    
C18   C19   A    
C23   H13   S    
C22   H15   S    
C14   O6    A    
C26   H19   S    
C24   C25   S    
C15   O8    A    
C5    C16   A    
C8    C14   S    
C24   H24   S    
C12   O4    A    
H3    N1    S    
O4    Zn2   S    
C22   H14   S    
C12   O3    A    
C1    C10   S    
C3    C4    A    
C26   H20   S    
C20   H18   S    
O5    Zn1   S    
