data_mof_unit_60324.cif
_audit_creation_date              2012-12-10T19:55:53-0500
_audit_creation_method            fapswitch 2.2
_symmetry_space_group_name_H-M    P1
_symmetry_Int_Tables_number       1
_space_group_crystal_system       triclinic
_cell_length_a                    15.028392
_cell_length_b                    14.241634
_cell_length_c                    19.282529
_cell_angle_alpha                 90.012926
_cell_angle_beta                  91.828774
_cell_angle_gamma                 89.992351
_cell_volume                      4124.91547646

loop_
_atom_site_label
_atom_site_type_symbol
_atom_type_description
_atom_site_fract_x
_atom_site_fract_y
_atom_site_fract_z
_atom_type_partial_charge
C1    C     C_R   0.327770 0.500115 0.500460 0.897020
C2    C     C_R   0.431263 0.895265 0.466739 -0.314842
C3    C     C_R   0.457361 0.203446 0.447376 0.118541
C4    C     C_R   0.567227 0.796484 0.533585 0.117079
C5    C     C_R   0.542581 0.203413 0.552625 0.118415
C6    C     C_R   0.432789 0.796442 0.466359 0.116986
C7    C     C_R   0.499967 0.053051 0.499965 0.136749
C8    C     C_R   0.499977 0.946834 0.499959 0.136309
C9    C     C_R   0.500617 0.499941 0.365573 0.898664
C10   C     C_R   0.499433 0.499961 0.634425 0.898836
C11   C     C_R   0.465257 0.575150 0.251382 0.057318
C12   C     C_R   0.672189 0.500109 0.499552 0.897652
C13   C     C_R   0.459066 0.423501 0.745342 0.065543
C14   C     C_R   0.535724 0.575004 0.748530 0.057071
C15   C     C_R   0.541342 0.423307 0.254766 0.065425
C16   C     C_R   0.466719 0.573657 0.179399 -0.220098
C17   C     C_R   0.460590 0.422494 0.817577 -0.217887
C18   C     C_R   0.534803 0.573448 0.820528 -0.220128
C19   C     C_R   0.540341 0.422374 0.182539 -0.218025
C20   C     C_R   0.503288 0.497320 0.145022 0.051318
C21   C     C_R   0.498205 0.497243 0.855006 0.051293
C22   C     C_R   0.502442 0.499525 0.289782 -0.037400
C23   C     C_R   0.231442 0.501028 0.501498 -0.047680
C24   C     C_R   0.497982 0.499579 0.710225 -0.037121
C25   C     C_R   0.499100 0.496582 0.930221 0.303711
C26   C     C_R   0.502757 0.496623 0.069818 0.303706
C27   C     C_R   0.094865 0.576911 0.533412 -0.210409
C28   C     C_R   0.909508 0.432964 0.533961 -0.234117
C29   C     C_R   0.904892 0.575849 0.465289 -0.210126
C30   C     C_R   0.090381 0.431817 0.467314 -0.234449
C31   C     C_R   0.187397 0.574881 0.535621 0.073989
C32   C     C_R   0.817499 0.430447 0.533919 0.061312
C33   C     C_R   0.812361 0.573777 0.463165 0.073221
C34   C     C_R   0.768444 0.501020 0.498519 -0.046396
C35   C     C_R   0.182395 0.429272 0.467387 0.062136
C36   C     C_1   0.411170 0.250975 0.391222 0.229029
C37   C     C_1   0.638924 0.748743 0.569908 0.246359
C38   C     C_1   0.588610 0.250875 0.608896 0.228567
C39   C     C_1   0.361231 0.748641 0.429909 0.246917
C40   C     C_R   0.047539 0.505448 0.499739 0.083192
C41   C     C_R   0.952287 0.505469 0.500191 0.083239
C42   C     C_R   0.457897 0.104616 0.446187 -0.316817
C43   C     C_R   0.568719 0.895301 0.533175 -0.314672
C44   C     C_R   0.542021 0.104591 0.553770 -0.316709
H1    H     H_    0.437282 0.631655 0.150394 0.153006
H2    H     H_    0.624503 0.931235 0.558231 0.137911
H3    H     H_    0.573707 0.068642 0.597436 0.138041
H4    H     H_    0.375495 0.931172 0.441637 0.137859
H5    H     H_    0.358056 0.657453 0.265959 0.191167
H6    H     H_    0.456903 0.714139 0.270968 0.185434
H7    H     H_    0.446008 0.285353 0.723194 0.193605
H8    H     H_    0.349293 0.346003 0.722658 0.175764
H9    H     H_    0.643117 0.656813 0.733534 0.191239
H10   H     H_    0.544478 0.713972 0.729032 0.185394
H11   H     H_    0.553725 0.285081 0.276827 0.193524
H12   H     H_    0.430658 0.364064 0.844271 0.151379
H13   H     H_    0.650682 0.345301 0.277834 0.175785
H14   H     H_    0.266399 0.613568 0.617174 0.175541
H15   H     H_    0.193879 0.697430 0.592110 0.177274
H16   H     H_    0.793972 0.292950 0.551138 0.183970
H17   H     H_    0.797087 0.360787 0.623163 0.191917
H18   H     H_    0.732954 0.609964 0.381200 0.175001
H19   H     H_    0.805654 0.694463 0.404579 0.177574
H20   H     H_    0.206193 0.291196 0.453011 0.183600
H21   H     H_    0.202439 0.356137 0.379571 0.191882
H22   H     H_    0.564646 0.631302 0.849457 0.153016
H23   H     H_    0.570227 0.363826 0.155923 0.151352
H24   H     H_    0.059499 0.632571 0.559244 0.140125
H25   H     H_    0.947779 0.378912 0.561020 0.142822
H26   H     H_    0.940198 0.630664 0.438501 0.140140
H27   H     H_    0.052145 0.376874 0.441256 0.142821
H28   H     H_    0.426155 0.068684 0.402528 0.138035
N1    N     N_R   0.501722 0.414377 0.034447 -0.178526
N2    N     N_3   0.584228 0.348044 0.292196 -0.436530
N3    N     N_3   0.236619 0.645861 0.573613 -0.425684
N4    N     N_3   0.774384 0.357588 0.571383 -0.428596
N5    N     N_3   0.762981 0.643591 0.424104 -0.426005
N6    N     N_3   0.225478 0.355032 0.431317 -0.428155
N7    N     N_1   0.373982 0.287688 0.345257 -0.217146
N8    N     N_1   0.697506 0.711714 0.599174 -0.212292
N9    N     N_1   0.625645 0.287497 0.654980 -0.216958
N10   N     N_1   0.302779 0.711550 0.400524 -0.211897
N11   N     N_R   0.500467 0.578679 0.965659 -0.181636
N12   N     N_R   0.499673 0.414357 0.965587 -0.178590
N13   N     N_R   0.501928 0.578701 0.034389 -0.181629
N14   N     N_R   0.500000 0.252470 0.500000 -0.129520
N15   N     N_R   0.500000 0.747530 0.500000 -0.131216
N16   N     N_3   0.423869 0.652696 0.284928 -0.430446
N17   N     N_3   0.415645 0.348469 0.708013 -0.436760
N18   N     N_3   0.577154 0.652387 0.714860 -0.430472
O1    O     O_R   0.369060 0.579480 0.500010 -0.606369
O2    O     O_R   0.630940 0.420520 0.499990 -0.605155
O3    O     O_R   0.630940 0.579480 0.499990 -0.606267
O4    O     O_R   0.369060 0.420520 0.500010 -0.604556
O5    O     O_R   0.499990 0.579500 0.398140 -0.608277
O6    O     O_R   0.500010 0.420500 0.601860 -0.601289
O7    O     O_R   0.500010 0.579500 0.601860 -0.608586
O8    O     O_R   0.499990 0.420500 0.398140 -0.601371
Zn1   Zn    Zn3+2 0.500000 0.606140 0.500000 0.981234
Zn2   Zn    Zn3+2 0.500000 0.393860 0.500000 0.984793

loop_
_geom_bond_atom_site_label_1
_geom_bond_atom_site_label_2
_ccdc_geom_bond_type
C3    C42   A    
C9    O8    A    
C18   C21   A    
C14   C18   A    
H18   N5    S    
C28   H25   S    
C8    C43   A    
C30   H27   S    
C7    C8    S    
C4    N15   A    
C15   C19   A    
C30   C35   A    
H10   N18   S    
O5    Zn1   S    
C9    C22   S    
C29   C33   A    
C28   C41   A    
C26   N1    A    
C7    C42   A    
C14   C24   A    
C14   N18   S    
C21   C25   S    
C27   H24   S    
H11   N2    S    
C15   C22   A    
C19   C20   A    
C1    O4    A    
C25   N12   A    
C19   H23   S    
C10   O6    A    
N14   Zn2   S    
C11   N16   S    
N1    N12   A    
C44   H3    S    
H6    N16   S    
C13   N17   S    
C1    O1    A    
C5    C38   S    
C3    N14   A    
H5    N16   S    
H8    N17   S    
C2    C6    A    
C9    O5    A    
O7    Zn1   S    
H14   N3    S    
N15   Zn1   S    
H17   N4    S    
C37   N8    T    
C27   C31   A    
C28   C32   A    
C10   C24   S    
H16   N4    S    
C17   C21   A    
C6    N15   A    
C13   C24   A    
C32   C34   A    
H13   N2    S    
C10   O7    A    
C11   C16   A    
C31   N3    S    
O4    Zn2   S    
C27   C40   A    
C16   C20   A    
C42   H28   S    
C33   C34   A    
C30   C40   A    
C7    C44   A    
C17   H12   S    
C5    N14   A    
C40   C41   S    
N11   N13   A    
C5    C44   A    
C1    C23   S    
C23   C35   A    
C38   N9    T    
C12   O3    A    
C12   C34   S    
H15   N3    S    
O2    Zn2   S    
C29   H26   S    
H19   N5    S    
O3    Zn1   S    
H21   N6    S    
C11   C22   A    
C29   C41   A    
H20   N6    S    
C12   O2    A    
C2    C8    A    
C39   N10   T    
C36   N7    T    
C16   H1    S    
C32   N4    S    
C4    C43   A    
C18   H22   S    
C35   N6    S    
O8    Zn2   S    
C13   C17   A    
C2    H4    S    
H7    N17   S    
C33   N5    S    
C20   C26   S    
C3    C36   S    
C26   N13   A    
O6    Zn2   S    
C43   H2    S    
C15   N2    S    
C4    C37   S    
H9    N18   S    
C25   N11   A    
C6    C39   S    
O1    Zn1   S    
C23   C31   A    
