data_mof_unit_37709.cif
_audit_creation_date              2012-10-26T19:36:59-0400
_audit_creation_method            fapswitch 2.2
_symmetry_space_group_name_H-M    P1
_symmetry_Int_Tables_number       1
_space_group_crystal_system       triclinic
_cell_length_a                    10.870712
_cell_length_b                    17.704982
_cell_length_c                    16.435229
_cell_angle_alpha                 89.83952
_cell_angle_beta                  91.504217
_cell_angle_gamma                 90.967509
_cell_volume                      3161.66916939

loop_
_atom_site_label
_atom_site_type_symbol
_atom_type_description
_atom_site_fract_x
_atom_site_fract_y
_atom_site_fract_z
_atom_type_partial_charge
C1    C     C_R   0.500112 0.355305 0.500168 0.540781
C2    C     C_R   0.458570 0.232185 0.432068 -0.145529
C3    C     C_R   0.494023 0.727418 0.499201 -0.005589
C4    C     C_R   0.500510 0.272515 0.500750 -0.003224
C5    C     C_R   0.451217 0.765640 0.429291 -0.120939
C6    C     C_R   0.542688 0.233536 0.570297 -0.120152
C7    C     C_R   0.445742 0.845073 0.427754 0.014642
C8    C     C_R   0.543673 0.154001 0.571894 0.014879
C9    C     C_R   0.487545 0.885168 0.497715 0.037898
C10   C     C_R   0.497896 0.114653 0.502425 0.038242
C11   C     C_1   0.490091 0.966072 0.499220 -0.051958
C12   C     C_R   0.498584 0.644686 0.499814 0.542733
C13   C     C_1   0.493315 0.033766 0.500576 -0.051699
C14   C     C_R   0.544064 0.560825 0.830112 -0.154088
C15   C     C_R   0.456316 0.438668 0.170063 -0.151323
C16   C     C_R   0.261767 0.498838 0.498732 0.538643
C17   C     C_R   0.738312 0.499910 0.501224 0.550561
C18   C     C_R   0.545634 0.560291 0.744570 0.042463
C19   C     C_R   0.456297 0.439098 0.255629 0.047572
C20   C     C_R   0.454344 0.438385 0.741365 0.055726
C21   C     C_R   0.542955 0.562201 0.258315 0.057917
C22   C     C_R   0.456054 0.434284 0.827875 -0.019435
C23   C     C_R   0.872087 0.499220 0.503072 -0.014071
C24   C     C_R   0.540744 0.566082 0.171764 -0.017938
C25   C     C_R   0.499259 0.497911 0.872979 0.018172
C26   C     C_R   0.498538 0.502064 0.126913 0.019297
C27   C     C_1   0.498779 0.499396 0.962699 -0.064287
C28   C     C_1   0.498384 0.500466 0.037182 -0.063648
C29   C     C_R   0.207120 0.606641 0.247237 -0.131921
C30   C     C_R   0.786191 0.390122 0.750603 -0.130776
C31   C     C_R   0.164515 0.591700 0.324730 -0.079587
C32   C     C_R   0.830700 0.404759 0.673575 -0.079538
C33   C     C_R   0.110103 0.521586 0.342812 0.055252
C34   C     C_R   0.128090 0.496825 0.496490 -0.014764
C35   C     C_R   0.890341 0.473551 0.656709 0.050817
C36   C     C_R   0.097328 0.465179 0.281440 0.029275
C37   C     C_R   0.907325 0.528808 0.719140 0.028845
C38   C     C_R   0.135023 0.482309 0.200796 0.028166
C39   C     C_R   0.864974 0.512434 0.798938 0.028542
C40   C     C_R   0.191632 0.553166 0.185672 -0.091903
C41   C     C_R   0.803570 0.442814 0.812747 -0.092453
C42   C     C_R   0.930690 0.512819 0.429492 -0.165839
C43   C     C_R   0.069466 0.481293 0.569539 -0.150870
C44   C     C_3   0.396805 0.888545 0.353817 -0.250622
C45   C     C_R   0.942687 0.484399 0.574708 -0.035843
C46   C     C_3   0.341694 0.840219 0.283905 -0.310641
C47   C     C_3   0.290625 0.889621 0.215144 -0.457453
C48   C     C_3   0.592209 0.109640 0.645329 -0.250723
C49   C     C_3   0.650558 0.156970 0.714949 -0.310747
C50   C     C_3   0.700247 0.106631 0.783336 -0.457479
C51   C     C_3   0.417855 0.362944 0.873286 -0.273507
C52   C     C_3   0.364517 0.298393 0.820137 -0.313234
C53   C     C_3   0.334080 0.228775 0.871200 -0.453315
C54   C     C_3   0.577835 0.637466 0.126020 -0.273257
C55   C     C_3   0.633140 0.701820 0.178604 -0.313115
C56   C     C_R   0.057613 0.510473 0.424669 -0.036138
C57   C     C_3   0.664732 0.770853 0.126935 -0.453492
C58   C     C_3   0.048775 0.386533 0.303563 -0.259820
C59   C     C_3   0.152996 0.337504 0.337832 -0.289718
C60   C     C_3   0.104257 0.260821 0.366263 -0.460477
C61   C     C_3   0.966565 0.605330 0.699139 -0.255672
C62   C     C_3   0.104479 0.609828 0.723915 -0.296142
C63   C     C_3   0.177702 0.659438 0.665622 -0.425738
C64   C     C_3   0.111338 0.425166 0.132555 -0.259871
C65   C     C_3   0.148995 0.449585 0.046825 -0.311905
C66   C     C_3   0.110862 0.389731 0.983929 -0.461731
C67   C     C_R   0.529008 0.846860 0.567407 -0.130458
C68   C     C_3   0.886297 0.569564 0.867504 -0.257669
C69   C     C_3   0.848042 0.544409 0.952890 -0.313006
C70   C     C_3   0.884972 0.603881 0.016504 -0.461520
C71   C     C_R   0.456353 0.153709 0.433239 -0.132377
C72   C     C_R   0.531333 0.768433 0.568475 -0.144748
Cu1   Cu    Cu3+1 0.499990 0.499980 0.580420 0.918657
Cu2   Cu    Cu3+1 0.500010 0.500020 0.419580 0.923066
H1    H     H_    0.224698 0.568259 0.126292 0.105623
H2    H     H_    0.425521 0.261327 0.377946 0.111054
H3    H     H_    0.421415 0.732687 0.376914 0.110872
H4    H     H_    0.575657 0.265977 0.622290 0.110100
H5    H     H_    0.216144 0.925708 0.237563 0.148715
H6    H     H_    0.364866 0.926083 0.190219 0.147394
H7    H     H_    0.252173 0.853175 0.165482 0.137136
H8    H     H_    0.413839 0.804140 0.258723 0.152812
H9    H     H_    0.265755 0.803709 0.306704 0.155293
H10   H     H_    0.323923 0.926863 0.374525 0.147116
H11   H     H_    0.473084 0.924152 0.329972 0.143792
H12   H     H_    0.767590 0.428220 0.871483 0.106616
H13   H     H_    0.624791 0.071342 0.808584 0.147092
H14   H     H_    0.772807 0.069352 0.760424 0.148678
H15   H     H_    0.740850 0.142387 0.832889 0.137488
H16   H     H_    0.727795 0.192147 0.691708 0.155459
H17   H     H_    0.580566 0.194316 0.740633 0.152929
H18   H     H_    0.514972 0.075203 0.669738 0.143170
H19   H     H_    0.662997 0.070201 0.623920 0.147602
H20   H     H_    0.579390 0.609989 0.862754 0.088830
H21   H     H_    0.422240 0.389060 0.137658 0.088421
H22   H     H_    0.417615 0.392159 0.705360 0.124296
H23   H     H_    0.583480 0.608690 0.713109 0.114581
H24   H     H_    0.578175 0.609014 0.294034 0.124200
H25   H     H_    0.418328 0.208038 0.903132 0.147396
H26   H     H_    0.264094 0.242205 0.916676 0.144603
H27   H     H_    0.296645 0.183167 0.830957 0.142287
H28   H     H_    0.279160 0.317252 0.787936 0.156156
H29   H     H_    0.432563 0.281923 0.774575 0.146467
H30   H     H_    0.500070 0.342074 0.907595 0.145246
H31   H     H_    0.348316 0.378043 0.918340 0.154043
H32   H     H_    0.734005 0.756483 0.081290 0.144143
H33   H     H_    0.580725 0.792113 0.095138 0.147370
H34   H     H_    0.421477 0.390056 0.287279 0.110545
H35   H     H_    0.703547 0.816402 0.166724 0.142417
H36   H     H_    0.565975 0.719147 0.224369 0.146049
H37   H     H_    0.718353 0.682385 0.210554 0.157684
H38   H     H_    0.646122 0.622330 0.080108 0.154557
H39   H     H_    0.494853 0.658506 0.092692 0.144204
H40   H     H_    0.174123 0.634929 0.371120 0.099786
H41   H     H_    0.818377 0.362323 0.626542 0.101544
H42   H     H_    0.037607 0.268203 0.415607 0.156222
H43   H     H_    0.058364 0.230061 0.314734 0.147575
H44   H     H_    0.181803 0.226494 0.390135 0.144548
H45   H     H_    0.250679 0.660652 0.234336 0.095305
H46   H     H_    0.221496 0.328436 0.290018 0.140260
H47   H     H_    0.200116 0.366226 0.390228 0.184754
H48   H     H_    0.974917 0.389827 0.348512 0.152897
H49   H     H_    0.004058 0.357377 0.250846 0.123520
H50   H     H_    0.172078 0.635911 0.603067 0.166654
H51   H     H_    0.141387 0.717705 0.664700 0.140609
H52   H     H_    0.275954 0.661777 0.685950 0.155526
H53   H     H_    0.115962 0.634587 0.785609 0.139478
H54   H     H_    0.145519 0.552869 0.726111 0.168968
H55   H     H_    0.953942 0.617632 0.633173 0.154358
H56   H     H_    0.738718 0.337142 0.762529 0.095296
H57   H     H_    0.917127 0.651671 0.728815 0.113966
H58   H     H_    0.010366 0.377756 0.985450 0.144648
H59   H     H_    0.133083 0.410207 0.922012 0.148888
H60   H     H_    0.160670 0.336601 0.996585 0.143223
H61   H     H_    0.103799 0.503193 0.029684 0.161473
H62   H     H_    0.250155 0.458117 0.045372 0.169462
H63   H     H_    0.160145 0.372256 0.148462 0.137096
H64   H     H_    0.010731 0.412803 0.129235 0.137575
H65   H     H_    0.860956 0.583154 0.078010 0.151296
H66   H     H_    0.985596 0.615636 0.016140 0.143241
H67   H     H_    0.560219 0.877868 0.621076 0.103281
H68   H     H_    0.835792 0.657208 0.003655 0.142812
H69   H     H_    0.746943 0.535687 0.953919 0.170600
H70   H     H_    0.893308 0.490727 0.969676 0.162059
H71   H     H_    0.986091 0.582872 0.871839 0.143085
H72   H     H_    0.836239 0.622016 0.851729 0.130651
H73   H     H_    0.877458 0.524622 0.374285 0.136192
H74   H     H_    0.122856 0.466851 0.623748 0.133111
H75   H     H_    0.422002 0.123279 0.379960 0.103549
H76   H     H_    0.564320 0.739917 0.623006 0.110106
N1    N     N_R   0.499970 0.499970 0.701220 -0.224264
N2    N     N_R   0.500030 0.500030 0.298780 -0.223577
O1    O     O_R   0.499990 0.391240 0.567930 -0.517356
O2    O     O_R   0.500010 0.608760 0.432070 -0.516489
O3    O     O_R   0.500000 0.391270 0.432120 -0.510404
O4    O     O_R   0.500000 0.608730 0.567880 -0.510809
O5    O     O_R   0.319640 0.499990 0.567910 -0.509753
O6    O     O_R   0.680360 0.500010 0.432090 -0.506556
O7    O     O_R   0.319650 0.500020 0.432090 -0.491052
O8    O     O_R   0.680350 0.499980 0.567910 -0.485986

loop_
_geom_bond_atom_site_label_1
_geom_bond_atom_site_label_2
_ccdc_geom_bond_type
C59   H47   S    
C62   H54   S    
C52   H29   S    
C70   H66   S    
C59   H46   S    
C23   C45   A    
C39   C68   S    
C14   C18   A    
C2    C4    A    
C47   H5    S    
C49   H16   S    
C9    C67   A    
C63   H50   S    
C68   H72   S    
C39   C41   A    
C64   H64   S    
C53   H25   S    
C69   H70   S    
C34   C56   A    
C41   H12   S    
C29   H45   S    
Cu1   O8    S    
C52   H28   S    
C58   H49   S    
C17   C23   S    
C23   C42   A    
Cu2   O7    S    
C35   C37   A    
C24   C26   A    
C36   C58   S    
C15   H21   S    
C62   H53   S    
C6    H4    S    
C24   C54   S    
C54   H39   S    
Cu1   O5    S    
C33   C36   A    
Cu2   O2    S    
C67   C72   A    
Cu1   Cu2   S    
C21   N2    A    
C1    O3    A    
C17   O8    A    
C3    C12   S    
C16   C34   S    
C46   H8    S    
C57   H35   S    
C53   H27   S    
C68   C69   S    
C22   C25   A    
C31   C33   A    
C30   C41   A    
C60   H44   S    
C43   H74   S    
C18   H23   S    
C30   C32   A    
C31   H40   S    
C66   H58   S    
C61   H55   S    
C42   C56   A    
C10   C71   A    
C33   C56   S    
C57   H32   S    
C20   H22   S    
C59   C60   S    
C32   H41   S    
C66   H60   S    
Cu1   N1    S    
C16   O7    A    
Cu2   N2    S    
C69   C70   S    
C47   H6    S    
C49   H17   S    
C42   H73   S    
C44   C46   S    
C38   C64   S    
C64   H63   S    
C53   H26   S    
C58   H48   S    
C70   H68   S    
C48   H19   S    
Cu2   O6    S    
C51   C52   S    
C65   H62   S    
C32   C35   A    
C4    C6    A    
C5    C7    A    
C15   C26   A    
C6    C8    A    
C3    C5    A    
C58   C59   S    
C30   H56   S    
C15   C19   A    
C8    C48   S    
C62   C63   S    
C66   H59   S    
C9    C11   S    
C50   H15   S    
C51   H31   S    
C19   N2    A    
C54   H38   S    
C60   H43   S    
C63   H51   S    
C7    C44   S    
C1    O1    A    
C17   O6    A    
C43   C45   A    
C65   H61   S    
C50   H13   S    
C44   H11   S    
C8    C10   A    
C48   C49   S    
C57   H33   S    
C20   C22   A    
C49   C50   S    
C72   H76   S    
C55   C57   S    
C55   H36   S    
C60   H42   S    
C69   H69   S    
C12   O4    A    
C5    H3    S    
C2    C71   A    
C35   C45   S    
C46   C47   S    
C2    H2    S    
C52   C53   S    
C7    C9    A    
C54   C55   S    
C55   H37   S    
C16   O5    A    
C34   C43   A    
C12   O2    A    
C44   H10   S    
C10   C13   S    
C37   C61   S    
C20   N1    A    
C50   H14   S    
C25   C27   S    
C26   C28   S    
C40   H1    S    
C1    C4    S    
C64   C65   S    
C36   C38   A    
C3    C72   A    
C51   H30   S    
C29   C31   A    
C19   H34   S    
C38   C40   A    
C21   H24   S    
C11   C13   T    
C71   H75   S    
Cu1   O4    S    
Cu2   O3    S    
C47   H7    S    
C14   C25   A    
C61   C62   S    
C63   H52   S    
C61   H57   S    
C46   H9    S    
C70   H65   S    
C37   C39   A    
C65   C66   S    
C48   H18   S    
C21   C24   A    
Cu1   O1    S    
C27   C28   T    
C29   C40   A    
C14   H20   S    
C68   H71   S    
C18   N1    A    
C22   C51   S    
C67   H67   S    
