data_mof_unit_54106.cif
_audit_creation_date              2013-03-05T15:49:03-0500
_audit_creation_method            fapswitch 2.2
_symmetry_space_group_name_H-M    P1
_symmetry_Int_Tables_number       1
_space_group_crystal_system       triclinic
_cell_length_a                    18.236813
_cell_length_b                    18.197281
_cell_length_c                    12.030558
_cell_angle_alpha                 90.31526
_cell_angle_beta                  84.935795
_cell_angle_gamma                 90.252557
_cell_volume                      3976.78992458

loop_
_atom_site_label
_atom_site_type_symbol
_atom_site_description
_atom_site_fract_x
_atom_site_fract_y
_atom_site_fract_z
_atom_type_partial_charge
O1    O     O_R   0.418020 0.076820 0.422210 -0.658380
O2    O     O_R   0.581980 0.923180 0.577790 -0.623695
O3    O     O_R   0.581980 0.076820 0.577790 -0.624802
O4    O     O_R   0.418020 0.923180 0.422210 -0.657199
O5    O     O_R   0.918020 0.576820 0.422210 -0.635352
O6    O     O_R   0.081980 0.423180 0.577790 -0.623738
O7    O     O_R   0.081980 0.576820 0.577790 -0.616710
O8    O     O_R   0.918020 0.423180 0.422210 -0.656401
O9    O     O_R   0.430370 0.076830 0.608590 -0.589509
O10   O     O_R   0.569630 0.923170 0.391410 -0.590914
O11   O     O_R   0.569630 0.076830 0.391410 -0.597741
O12   O     O_R   0.430370 0.923170 0.608590 -0.596638
O13   O     O_R   0.930370 0.576830 0.608590 -0.600782
O14   O     O_R   0.069630 0.423170 0.391410 -0.592442
O15   O     O_R   0.069630 0.576830 0.391410 -0.595347
O16   O     O_R   0.930370 0.423170 0.608590 -0.601574
C1    C     C_R   0.401417 0.101600 0.522349 0.902994
C2    C     C_R   0.598876 0.898614 0.477661 0.909173
C3    C     C_R   0.599104 0.100873 0.478070 0.916073
C4    C     C_R   0.400711 0.899433 0.521895 0.910203
C5    C     C_R   0.901064 0.601222 0.522623 0.939009
C6    C     C_R   0.098728 0.398495 0.477685 0.911004
C7    C     C_R   0.099235 0.600528 0.478008 0.925333
C8    C     C_R   0.900763 0.399451 0.521824 0.903662
C9    C     C_R   0.588388 0.002152 0.825700 0.270270
C10   C     C_R   0.411908 0.994568 0.170664 0.217552
C11   C     C_R   0.088408 0.502160 0.825771 0.233072
C12   C     C_R   0.911872 0.494440 0.170716 0.214481
Zn1   Zn    Zn3+2 0.491750 1.000000 0.375560 0.948131
Zn2   Zn    Zn3+2 0.508250 1.000000 0.624440 0.969711
Zn3   Zn    Zn3+2 0.991750 0.500000 0.375560 0.959707
Zn4   Zn    Zn3+2 0.008250 0.500000 0.624440 0.974820
C13   C     C_R   0.598480 0.004192 0.940787 -0.015803
C14   C     C_R   0.403349 0.996923 0.055915 0.040604
C15   C     C_R   0.098226 0.504235 0.941484 -0.017757
C16   C     C_R   0.903222 0.496817 0.055930 0.039737
C17   C     C_R   0.458698 0.999396 0.863918 -0.053763
C18   C     C_R   0.541958 0.004239 0.136289 -0.062120
C19   C     C_R   0.958620 0.499376 0.863820 -0.042951
C20   C     C_R   0.041883 0.504299 0.136098 -0.031695
C21   C     C_R   0.655720 0.155606 0.462669 -0.138558
C22   C     C_R   0.342200 0.846922 0.536486 -0.137038
C23   C     C_R   0.346077 0.157833 0.538272 -0.150192
C24   C     C_R   0.655178 0.843197 0.462022 -0.153902
C25   C     C_R   0.157724 0.652842 0.462720 -0.133530
C26   C     C_R   0.840412 0.349212 0.536036 -0.133124
C27   C     C_R   0.846132 0.657861 0.538723 -0.097153
C28   C     C_R   0.154589 0.342678 0.462172 -0.147103
C29   C     C_R   0.219046 0.817848 0.612371 0.325429
C30   C     C_R   0.774748 0.191003 0.376830 0.326223
C31   C     C_R   0.764147 0.795303 0.358181 0.304637
C32   C     C_R   0.237787 0.206689 0.642109 0.326546
C33   C     C_R   0.713324 0.328098 0.600688 0.321939
C34   C     C_R   0.280818 0.681533 0.386618 0.326552
C35   C     C_R   0.263727 0.294770 0.359216 0.326888
C36   C     C_R   0.739120 0.708630 0.642509 0.328049
C37   C     C_R   0.280754 0.863236 0.609819 -0.045677
C38   C     C_R   0.714509 0.143659 0.381975 -0.041402
C39   C     C_R   0.704624 0.843388 0.365840 -0.003529
C40   C     C_R   0.296915 0.158313 0.634886 -0.038124
C41   C     C_R   0.777073 0.370446 0.601690 -0.042781
C42   C     C_R   0.219411 0.635760 0.390447 -0.045645
C43   C     C_R   0.203871 0.342296 0.365689 -0.039410
C44   C     C_R   0.797783 0.659826 0.635930 -0.062648
C45   C     C_R   0.345531 0.784149 0.468842 0.017483
C46   C     C_R   0.651995 0.218037 0.531750 0.017571
C47   C     C_R   0.661165 0.791725 0.546893 0.036524
C48   C     C_R   0.341024 0.209912 0.453820 0.036388
C49   C     C_R   0.842217 0.286726 0.468255 0.022990
C50   C     C_R   0.153898 0.716518 0.528083 0.023311
C51   C     C_R   0.160367 0.291343 0.547512 0.035293
C52   C     C_R   0.841361 0.708588 0.453027 0.015799
C53   C     C_R   0.282027 0.741292 0.462866 -0.042267
C54   C     C_R   0.712954 0.265459 0.529586 -0.042452
C55   C     C_R   0.725548 0.750587 0.547557 -0.020442
C56   C     C_R   0.277027 0.251743 0.453145 -0.038881
C57   C     C_R   0.777008 0.247893 0.457201 -0.037945
C58   C     C_R   0.217668 0.758802 0.535031 -0.040980
C59   C     C_R   0.224520 0.249798 0.548250 -0.041893
C60   C     C_R   0.777707 0.751654 0.451623 -0.079202
N1    N     N_R   0.480750 1.000000 0.209750 -0.123209
N2    N     N_R   0.519250 0.000000 0.790250 -0.129762
N3    N     N_R   0.980750 0.500000 0.209750 -0.134439
N4    N     N_R   0.019250 0.500000 0.790250 -0.118731
H1    H     H_    0.595018 0.007278 0.169674 0.152058
H2    H     H_    0.405261 0.997616 0.831352 0.179940
H3    H     H_    0.095199 0.507384 0.168878 0.178158
H4    H     H_    0.905205 0.497568 0.831180 0.177624
C61   C     C_R   0.465564 0.000382 0.979679 0.032375
C62   C     C_R   0.536154 0.003211 0.019396 -0.017764
C63   C     C_R   0.965384 0.500366 0.979594 0.007820
C64   C     C_R   0.035890 0.503252 0.019324 0.034068
N5    N     N_3   0.346699 0.982055 0.243365 -0.456641
H5    H     H_    0.346181 0.928163 0.272331 0.223613
H6    H     H_    0.341016 0.020465 0.307522 0.242636
N6    N     N_3   0.650710 0.002311 0.744680 -0.377937
H7    H     H_    0.681725 0.049712 0.756621 0.194825
H8    H     H_    0.683125 0.956602 0.758715 0.217670
N7    N     N_3   0.846733 0.481678 0.243464 -0.452537
H9    H     H_    0.846317 0.427688 0.272033 0.232152
H10   H     H_    0.841097 0.519861 0.307936 0.240209
N8    N     N_3   0.150533 0.502266 0.744321 -0.383202
H11   H     H_    0.181609 0.549763 0.755020 0.185113
H12   H     H_    0.182941 0.456378 0.757139 0.194898
N9    N     N_3   0.587090 0.231988 0.605679 -0.358786
H13   H     H_    0.540365 0.227992 0.561509 0.182036
H14   H     H_    0.583678 0.194107 0.670837 0.228157
N10   N     N_3   0.414444 0.762268 0.410808 -0.362794
H15   H     H_    0.430034 0.799751 0.347604 0.237140
H16   H     H_    0.454801 0.760745 0.467176 0.172095
N11   N     N_3   0.403264 0.225076 0.374895 -0.364642
H17   H     H_    0.450989 0.229386 0.416698 0.180193
H18   H     H_    0.409399 0.183324 0.315000 0.252968
N12   N     N_3   0.599361 0.776111 0.626444 -0.369793
H19   H     H_    0.592932 0.817942 0.686176 0.254374
H20   H     H_    0.551528 0.771029 0.585200 0.174037
N13   N     N_3   0.084238 0.740089 0.581897 -0.367554
H21   H     H_    0.045468 0.741629 0.522864 0.184218
H22   H     H_    0.066376 0.703152 0.644778 0.239166
N14   N     N_3   0.911384 0.259588 0.417501 -0.370324
H23   H     H_    0.933682 0.296660 0.357655 0.239372
H24   H     H_    0.947789 0.253762 0.479189 0.169752
N15   N     N_3   0.905021 0.718841 0.374991 -0.431483
H25   H     H_    0.918998 0.774545 0.369745 0.235921
H26   H     H_    0.895923 0.696420 0.297362 0.264263
N16   N     N_3   0.098593 0.276462 0.627430 -0.368442
H27   H     H_    0.093050 0.318289 0.687273 0.253941
H28   H     H_    0.050521 0.272203 0.586564 0.171475
N17   N     N_3   0.713188 0.081972 0.307189 -0.429817
H29   H     H_    0.757142 0.047554 0.320837 0.227609
H30   H     H_    0.719776 0.100984 0.225049 0.219198
N18   N     N_3   0.281231 0.927007 0.680566 -0.427017
H31   H     H_    0.238962 0.961842 0.660755 0.225598
H32   H     H_    0.271046 0.910591 0.763664 0.232756
N19   N     N_3   0.308324 0.110856 0.726808 -0.411042
H33   H     H_    0.261771 0.077795 0.743386 0.227922
H34   H     H_    0.315088 0.143223 0.797283 0.238677
N20   N     N_3   0.693313 0.891586 0.274743 -0.419487
H35   H     H_    0.739808 0.924876 0.259174 0.223475
H36   H     H_    0.686760 0.859846 0.203567 0.239354
N21   N     N_3   0.219431 0.570915 0.321909 -0.428375
H37   H     H_    0.261940 0.536797 0.342996 0.227864
H38   H     H_    0.229579 0.586127 0.238266 0.233093
N22   N     N_3   0.777014 0.437512 0.665156 -0.432046
H39   H     H_    0.735897 0.471676 0.639287 0.220315
H40   H     H_    0.764721 0.425250 0.749524 0.238934
N23   N     N_3   0.809669 0.613538 0.728991 -0.413720
H41   H     H_    0.763105 0.580736 0.747267 0.230275
H42   H     H_    0.817065 0.646768 0.798327 0.242000
N24   N     N_3   0.191838 0.388929 0.273083 -0.409537
H43   H     H_    0.237998 0.422435 0.255883 0.228613
H44   H     H_    0.185464 0.355941 0.203127 0.238809
N25   N     N_R   0.648698 0.352528 0.666743 0.215688
O17   O     O_R   0.643627 0.344846 0.774591 -0.364268
O18   O     O_R   0.599113 0.390143 0.620598 -0.342210
N26   N     N_R   0.339924 0.667906 0.302435 0.214895
O19   O     O_R   0.382906 0.611658 0.310369 -0.346973
O20   O     O_R   0.347022 0.708463 0.213390 -0.370472
N27   N     N_R   0.307405 0.287372 0.254600 0.209136
O21   O     O_R   0.301200 0.228629 0.193959 -0.378252
O22   O     O_R   0.350332 0.340677 0.217147 -0.349600
N28   N     N_R   0.697200 0.718755 0.748146 0.210079
O23   O     O_R   0.655004 0.666386 0.790791 -0.351108
O24   O     O_R   0.703846 0.779468 0.804063 -0.379631
N29   N     N_R   0.160149 0.830345 0.697379 0.214984
O25   O     O_R   0.151572 0.786760 0.782939 -0.369669
O26   O     O_R   0.118343 0.887845 0.693345 -0.353733
N30   N     N_R   0.830558 0.183979 0.285455 0.215397
O27   O     O_R   0.870806 0.125112 0.273995 -0.357070
O28   O     O_R   0.840324 0.236351 0.212372 -0.378251
N31   N     N_R   0.806497 0.788076 0.252590 0.174964
O29   O     O_R   0.790961 0.735371 0.184894 -0.373187
O30   O     O_R   0.850577 0.840758 0.216129 -0.381361
N32   N     N_R   0.194795 0.214720 0.747229 0.210020
O31   O     O_R   0.151785 0.161797 0.785874 -0.352568
O32   O     O_R   0.201563 0.273778 0.806969 -0.386093
N33   N     N_3   0.671868 0.006585 0.974942 -0.445755
H45   H     H_    0.679619 0.960662 0.024354 0.216151
H46   H     H_    0.677601 0.054094 0.022701 0.200642
N34   N     N_3   0.331242 0.993246 0.016752 -0.459768
H47   H     H_    0.300141 0.037030 0.051914 0.240003
H48   H     H_    0.306113 0.944089 0.044357 0.225277
N35   N     N_3   0.170505 0.506626 0.979874 -0.462991
H49   H     H_    0.197745 0.553549 0.947663 0.212217
H50   H     H_    0.199579 0.460227 0.949747 0.223371
N36   N     N_3   0.831100 0.493020 0.016857 -0.455622
H51   H     H_    0.799942 0.536743 0.052093 0.239644
H52   H     H_    0.806071 0.443820 0.044483 0.230470

loop_
_geom_bond_atom_site_label_1
_geom_bond_atom_site_label_2
_geom_bond_distance
_ccdc_geom_bond_type
C6    C28   1.441450 S    
N31   O29   1.301216 A    
C33   N25   1.433010 S    
N16   H27   1.043878 S    
C7    C25   1.426948 S    
O2    C2    1.294459 A    
N13   H21   1.046008 S    
C37   N18   1.435811 S    
C49   C57   1.396683 A    
N23   H41   1.043916 S    
C56   C59   1.426185 A    
O14   Zn3   2.019032 S    
C31   N31   1.432959 S    
C51   C59   1.396468 A    
N12   H19   1.043782 S    
C29   C37   1.391217 A    
N19   H33   1.043745 S    
N29   O25   1.300969 A    
C29   C58   1.419069 A    
Zn1   N1    2.022391 S    
N9    H14   1.044278 S    
O11   C3    1.288072 A    
N5    H5    1.042300 S    
C20   H3    1.082152 S    
C11   N4    1.367247 A    
N23   H42   1.045583 S    
C47   N12   1.441094 S    
C19   N4    1.353994 A    
N17   H29   1.044296 S    
N13   H22   1.044204 S    
C34   N26   1.433852 S    
O7    C7    1.289957 A    
N15   H26   1.043444 S    
C50   C58   1.400039 A    
C38   N17   1.436186 S    
C15   N35   1.435078 S    
C46   C54   1.402822 A    
C36   N28   1.435492 S    
C25   C42   1.394858 A    
Zn3   N3    2.022391 S    
N10   H15   1.044066 S    
C31   C60   1.420017 A    
C26   C49   1.394411 A    
C32   C40   1.391493 A    
N32   O31   1.301037 A    
C33   C41   1.392860 A    
C10   C14   1.403819 A    
N25   O17   1.300849 A    
C33   C54   1.421715 A    
N14   H24   1.044638 S    
N18   H31   1.044620 S    
N33   H46   1.045384 S    
C54   C57   1.430279 A    
N6    H8    1.045632 S    
C22   C45   1.397304 A    
C53   C58   1.432890 A    
C36   C44   1.390037 A    
C51   N16   1.440768 S    
O3    C3    1.291043 A    
N25   O18   1.301052 A    
C32   C59   1.417254 A    
C55   C60   1.429503 A    
C45   N10   1.439408 S    
O4    Zn1   1.983919 S    
C15   C64   1.407704 A    
C10   N5    1.430813 S    
N30   O28   1.301200 A    
O16   C8    1.288384 A    
C36   C55   1.417843 A    
C5    C27   1.440849 S    
C12   N3    1.382418 A    
C20   N3    1.363735 A    
C19   H4    1.082264 S    
C22   C37   1.395595 A    
C19   C63   1.409086 A    
N34   H48   1.045591 S    
N28   O24   1.301091 A    
Zn4   N4    2.022391 S    
C26   C41   1.395319 A    
C13   N33   1.434680 S    
C30   C38   1.390374 A    
C17   H2    1.082228 S    
N15   H25   1.045013 S    
N22   H40   1.045060 S    
C45   C53   1.400254 A    
C63   C64   1.411444 A    
C23   C48   1.402419 A    
C28   C43   1.403892 A    
C34   C42   1.390356 A    
C39   N20   1.437016 S    
C11   C15   1.419433 A    
O13   Zn4   2.019031 S    
C52   C60   1.404873 A    
C35   C43   1.392176 A    
N21   H38   1.045561 S    
Zn2   N2    2.022391 S    
O3    Zn2   1.983917 S    
N35   H49   1.044966 S    
C1    C23   1.440539 S    
C43   N24   1.436907 S    
C29   N29   1.434219 S    
C2    C24   1.442065 S    
C34   C53   1.420169 A    
N31   O30   1.301249 A    
C41   N22   1.435980 S    
C4    C22   1.429088 S    
N27   O21   1.301022 A    
C18   H1    1.081017 S    
N6    H7    1.045585 S    
O12   C4    1.288230 A    
N27   O22   1.301018 A    
O13   C5    1.287255 A    
N11   H18   1.043779 S    
C20   C64   1.418705 A    
N8    H12   1.045097 S    
C40   N19   1.436922 S    
C12   C16   1.404613 A    
N20   H36   1.045520 S    
O9    Zn2   2.019031 S    
C35   C56   1.417245 A    
C23   C40   1.403867 A    
C12   N7    1.430850 S    
N18   H32   1.045558 S    
N30   O27   1.301029 A    
N7    H10   1.037106 S    
N33   H45   1.045497 S    
C10   N1    1.381906 A    
C52   N15   1.439298 S    
C30   N30   1.436234 S    
C9    N2    1.366569 A    
N24   H44   1.045591 S    
C17   N2    1.353600 A    
C47   C55   1.395908 A    
C42   N21   1.435799 S    
N36   H52   1.045593 S    
C30   C57   1.415628 A    
C32   N32   1.435041 S    
C27   C44   1.401467 A    
N14   H23   1.044073 S    
C16   C63   1.396033 A    
N28   O23   1.301058 A    
O9    C1    1.289339 A    
N19   H34   1.045598 S    
N26   O19   1.301002 A    
O6    Zn4   1.987915 S    
N16   H28   1.044679 S    
O7    Zn4   1.983917 S    
C11   N8    1.431013 S    
N11   H17   1.045377 S    
O12   Zn2   2.008883 S    
C25   C50   1.395308 A    
O8    Zn3   1.983919 S    
N22   H39   1.045493 S    
C21   C38   1.398263 A    
N12   H20   1.044458 S    
O15   Zn3   2.008882 S    
C21   C46   1.402247 A    
C48   C56   1.396874 A    
N9    H13   1.045338 S    
C18   C62   1.419566 A    
C49   N14   1.440144 S    
O1    C1    1.295071 A    
N7    H9    1.042405 S    
C17   C61   1.409266 A    
O2    Zn2   1.987915 S    
C8    C26   1.426875 S    
O15   C7    1.286534 A    
O14   C6    1.290354 A    
N26   O20   1.300921 A    
C61   C62   1.412784 A    
C14   C61   1.395978 A    
C18   N1    1.363390 A    
C13   C62   1.413096 A    
O10   Zn1   2.019032 S    
O1    Zn1   1.987914 S    
N5    H6    1.037109 S    
C24   C39   1.402818 A    
O10   C2    1.290642 A    
O16   Zn4   2.008883 S    
C35   N27   1.434834 S    
O8    C8    1.288257 A    
N10   H16   1.044421 S    
C16   N36   1.436552 S    
N8    H11   1.045041 S    
N32   O32   1.301049 A    
C27   C52   1.396274 A    
N20   H35   1.043886 S    
C46   N9    1.439050 S    
O4    C4    1.289303 A    
C31   C39   1.393657 A    
C28   C51   1.402980 A    
O11   Zn1   2.008882 S    
C9    N6    1.430473 S    
N29   O26   1.300983 A    
C14   N34   1.436646 S    
O5    C5    1.296717 A    
N24   H43   1.043705 S    
C24   C47   1.401015 A    
N35   H50   1.045020 S    
C50   N13   1.439962 S    
N17   H30   1.045507 S    
N36   H51   1.045640 S    
N21   H37   1.044734 S    
C44   N23   1.436926 S    
C48   N11   1.440810 S    
N34   H47   1.045645 S    
C3    C21   1.432332 S    
C9    C13   1.413024 A    
O5    Zn3   1.987914 S    
O6    C6    1.294511 A    
