data_mof_unit_23194.cif
_audit_creation_date              2012-12-10T17:19:52-0500
_audit_creation_method            fapswitch 2.2
_symmetry_space_group_name_H-M    P1
_symmetry_Int_Tables_number       1
_space_group_crystal_system       triclinic
_cell_length_a                    9.672561
_cell_length_b                    10.722931
_cell_length_c                    15.381319
_cell_angle_alpha                 86.993121
_cell_angle_beta                  74.607925
_cell_angle_gamma                 90.055569
_cell_volume                      1535.80059286

loop_
_atom_site_label
_atom_site_type_symbol
_atom_type_description
_atom_site_fract_x
_atom_site_fract_y
_atom_site_fract_z
_atom_type_partial_charge
C1    C     C_R   0.999569 0.263031 0.500879 0.778354
C2    C     C_R   0.670713 0.466860 0.908568 0.090028
C3    C     C_R   0.763555 0.418670 0.958872 0.114718
C4    C     C_R   0.521746 0.479493 0.952124 0.081769
C5    C     C_R   0.471405 0.454032 0.047366 0.056236
C6    C     C_R   0.569068 0.407467 0.094733 -0.221725
C7    C     C_R   0.711838 0.389795 0.051067 -0.230685
C8    C     C_R   0.420730 0.512527 0.903364 -0.225223
C9    C     C_R   0.276435 0.524835 0.946710 -0.247853
C10   C     C_R   0.227330 0.506844 0.040078 0.173666
C11   C     C_R   0.324386 0.473830 0.091807 0.084098
C12   C     C_R   0.918802 0.494076 0.672551 0.769090
C13   C     C_R   0.081413 0.521760 0.082507 -0.218606
C14   C     C_R   0.031952 0.510602 0.176177 -0.209575
C15   C     C_R   0.271293 0.466168 0.186573 -0.259385
C16   C     C_R   0.924619 0.117984 0.671946 -0.183276
C17   C     C_R   0.890097 0.046833 0.753553 -0.128306
C18   C     C_R   0.891038 0.916895 0.753765 -0.138107
C19   C     C_R   0.926415 0.857450 0.672373 -0.169631
C20   C     C_R   0.961832 0.927840 0.589037 0.097020
C21   C     C_R   0.961283 0.059531 0.588861 0.088220
C22   C     C_R   0.997430 0.128956 0.505232 -0.082241
C23   C     C_R   0.999410 0.736906 0.501420 0.774184
C24   C     C_R   0.032231 0.070264 0.423712 -0.184827
C25   C     C_R   0.031998 0.941544 0.423857 -0.221482
C26   C     C_R   0.997681 0.870583 0.505520 -0.086975
C27   C     C_R   0.702424 0.617832 0.350341 0.229536
C28   C     C_R   0.664925 0.612266 0.268492 -0.273059
C29   C     C_R   0.521439 0.614387 0.270445 -0.269819
C30   C     C_R   0.421952 0.624093 0.353897 0.246674
C31   C     C_R   0.455142 0.564523 0.430586 0.150365
C32   C     C_R   0.604254 0.562534 0.429481 0.147421
C33   C     C_R   0.545799 0.438622 0.565840 -0.057094
C34   C     C_R   0.081527 0.495994 0.327964 0.766748
C35   C     C_R   0.398987 0.437480 0.565121 -0.073103
C36   C     C_R   0.873786 0.475083 0.772470 -0.071642
C37   C     C_R   0.127543 0.489849 0.228910 -0.050098
C38   C     C_R   0.907541 0.396962 0.916521 -0.222577
C39   C     C_R   0.963479 0.421875 0.823637 0.174035
C40   C     C_R   0.730437 0.499970 0.816355 -0.305779
Cu1   Cu    Cu3+1 0.140660 0.499990 0.500010 0.938248
Cu2   Cu    Cu3+1 0.859340 0.500010 0.499990 0.941616
H1    H     H_    0.782378 0.352423 0.089977 0.149368
H2    H     H_    0.005833 0.544180 0.043379 0.142311
H3    H     H_    0.059463 0.124517 0.359828 0.136139
H4    H     H_    0.922051 0.218579 0.674417 0.120758
H5    H     H_    0.862408 0.092715 0.816803 0.144940
H6    H     H_    0.864084 0.861915 0.817207 0.137792
H7    H     H_    0.925782 0.756533 0.675254 0.124398
H8    H     H_    0.058687 0.897145 0.359985 0.129581
H9    H     H_    0.577104 0.387089 0.619742 0.140815
H10   H     H_    0.739396 0.644558 0.205404 0.162410
H11   H     H_    0.340335 0.445392 0.229502 0.160347
H12   H     H_    0.494102 0.645503 0.208951 0.174921
H13   H     H_    0.323064 0.383369 0.617314 0.138793
H14   H     H_    0.919892 0.520195 0.207548 0.163348
H15   H     H_    0.202760 0.550348 0.906814 0.159977
H16   H     H_    0.975888 0.356825 0.955978 0.143692
H17   H     H_    0.667117 0.545708 0.776579 0.161580
H18   H     H_    0.538093 0.379178 0.165483 0.153529
H19   H     H_    0.448573 0.525987 0.830896 0.144618
N1    N     N_R   0.648320 0.501210 0.499140 -0.186791
N2    N     N_R   0.352470 0.501290 0.499110 -0.186862
O1    O     O_R   0.118810 0.319640 0.500010 -0.573051
O2    O     O_R   0.881240 0.319660 0.500000 -0.569568
O3    O     O_R   0.055570 0.499980 0.629840 -0.572747
O4    O     O_R   0.818000 0.500010 0.629830 -0.585394
O5    O     O_R   0.118760 0.680340 0.500000 -0.573339
O6    O     O_R   0.881190 0.680360 0.499990 -0.573699
O7    O     O_R   0.182000 0.499990 0.370170 -0.577061
O8    O     O_R   0.944430 0.500020 0.370160 -0.575549
C41   C     C_3   0.783202 0.736924 0.354376 -0.765311
H20   H     H_    0.771623 0.808562 0.301832 0.195284
H21   H     H_    0.737122 0.781576 0.418987 0.238878
H22   H     H_    0.899666 0.720722 0.340988 0.225974
C42   C     C_3   0.344097 0.746246 0.360536 -0.765630
H23   H     H_    0.240115 0.734907 0.344255 0.223021
H24   H     H_    0.333713 0.785709 0.427196 0.238168
H25   H     H_    0.405701 0.818753 0.310839 0.198346
C43   C     C_3   0.116053 0.385984 0.781790 -0.877614
H26   H     H_    0.118655 0.318286 0.729296 0.234655
H27   H     H_    0.181206 0.470784 0.752628 0.241243
H28   H     H_    0.166327 0.340185 0.831995 0.226769

loop_
_geom_bond_atom_site_label_1
_geom_bond_atom_site_label_2
_ccdc_geom_bond_type
C8    C9    A    
C14   H14   S    
C16   C21   A    
C34   C37   S    
Cu1   Cu2   S    
C23   O6    A    
C19   C20   A    
C42   H25   S    
C4    C8    A    
C24   H3    S    
C15   H11   S    
C28   C29   A    
C42   H24   S    
C5    C11   A    
C3    C7    A    
C41   H22   S    
C30   C31   A    
C43   H26   S    
C29   H12   S    
C18   C19   A    
C23   C26   S    
C25   H8    S    
C15   C37   A    
C38   H16   S    
C11   C15   A    
C3    C38   A    
C16   C17   A    
Cu2   O2    S    
C1    O2    A    
C7    H1    S    
C12   C36   S    
C9    C10   A    
Cu2   N1    S    
C8    H19   S    
C1    C22   S    
C40   H17   S    
C21   C22   A    
C43   H28   S    
Cu1   O5    S    
C38   C39   A    
C12   O4    A    
C35   H13   S    
C31   N2    A    
C36   C40   A    
C42   H23   S    
C41   H21   S    
C16   H4    S    
C33   N1    A    
C25   C26   A    
C12   O3    A    
Cu2   O6    S    
C23   O5    A    
C2    C4    A    
C29   C30   A    
C6    H18   S    
C30   C42   S    
C19   H7    S    
C31   C32   A    
C17   C18   A    
C24   C25   A    
Cu1   O3    S    
C43   H27   S    
Cu2   O4    S    
C22   C24   A    
Cu1   N2    S    
C1    O1    A    
C34   O7    A    
C27   C32   A    
C36   C39   A    
C17   H5    S    
C41   H20   S    
C10   C13   A    
C18   H6    S    
C6    C7    A    
C33   H9    S    
C39   C43   S    
C2    C3    A    
C32   N1    A    
C14   C37   A    
C28   H10   S    
C5    C6    A    
C20   C26   A    
Cu2   O8    S    
C33   C35   A    
C9    H15   S    
C10   C11   A    
C2    C40   A    
C4    C5    A    
C20   C21   A    
C27   C28   A    
C35   N2    A    
Cu1   O1    S    
C13   C14   A    
C34   O8    A    
C13   H2    S    
C27   C41   S    
Cu1   O7    S    
