data_mof_unit_14394.cif
_audit_creation_date              2012-12-10T17:44:50-0500
_audit_creation_method            fapswitch 2.2
_symmetry_space_group_name_H-M    P1
_symmetry_Int_Tables_number       1
_space_group_crystal_system       triclinic
_cell_length_a                    15.221388
_cell_length_b                    13.733142
_cell_length_c                    19.341892
_cell_angle_alpha                 89.947659
_cell_angle_beta                  88.868762
_cell_angle_gamma                 89.960861
_cell_volume                      4042.38980784

loop_
_atom_site_label
_atom_site_type_symbol
_atom_type_description
_atom_site_fract_x
_atom_site_fract_y
_atom_site_fract_z
_atom_type_partial_charge
C1    C     C_R   0.329148 0.500045 0.501299 0.836388
C2    C     C_R   0.670898 0.499994 0.498865 0.835405
C3    C     C_R   0.811165 0.500792 0.560858 -0.066651
C4    C     C_R   0.188978 0.500612 0.439414 -0.069930
C5    C     C_R   0.903762 0.501172 0.561231 0.059884
C6    C     C_R   0.096433 0.501159 0.438980 0.059596
C7    C     C_R   0.953163 0.501165 0.498755 0.023838
C8    C     C_R   0.047005 0.501138 0.501423 0.024760
C9    C     C_R   0.909063 0.500749 0.434017 0.031361
C10   C     C_R   0.091133 0.500894 0.566141 0.032438
C11   C     C_R   0.947462 0.501306 0.624100 -0.257031
C12   C     C_R   0.052869 0.501607 0.376114 -0.258338
C13   C     C_R   0.038224 0.501056 0.627950 -0.029594
C14   C     C_R   0.962093 0.500978 0.372171 -0.028244
C15   C     C_R   0.443132 0.792895 0.542674 0.017112
C16   C     C_R   0.556432 0.207013 0.456979 0.015935
C17   C     C_R   0.555662 0.792928 0.456452 0.017394
C18   C     C_R   0.442852 0.207033 0.542429 0.016108
C19   C     C_R   0.556941 0.896108 0.454758 -0.061234
C20   C     C_R   0.440433 0.103817 0.543288 -0.062396
C21   C     C_R   0.440607 0.896098 0.543463 -0.062224
C22   C     C_R   0.557853 0.103791 0.455338 -0.061667
C23   C     C_R   0.499093 0.948129 0.499356 0.052538
C24   C     C_R   0.499233 0.051811 0.499418 0.052774
C25   C     C_R   0.614238 0.948141 0.409722 -0.049594
C26   C     C_R   0.380687 0.051633 0.586369 -0.048885
C27   C     C_R   0.380934 0.948198 0.586579 -0.048987
C28   C     C_R   0.615312 0.051523 0.410411 -0.048489
C29   C     C_R   0.498854 0.500020 0.367406 0.865549
C30   C     C_R   0.502241 0.499918 0.632548 0.864970
C31   C     C_R   0.500619 0.587206 0.254306 -0.246800
C32   C     C_R   0.510939 0.410561 0.744042 -0.281216
C33   C     C_R   0.511388 0.586744 0.745351 -0.276000
C34   C     C_R   0.495452 0.411066 0.255651 -0.280548
C35   C     C_R   0.503796 0.586794 0.182083 0.401880
C36   C     C_R   0.513146 0.408262 0.816429 0.383211
C37   C     C_R   0.514960 0.586225 0.817693 0.380793
C38   C     C_R   0.497103 0.408828 0.183192 0.385396
C39   C     C_R   0.502947 0.497267 0.145981 -0.165956
C40   C     C_R   0.516008 0.496598 0.853562 -0.146058
C41   C     C_R   0.496848 0.499659 0.291473 -0.112509
C42   C     C_R   0.507747 0.499253 0.708337 -0.099104
C43   C     C_R   0.515804 0.495029 0.929731 0.462072
C44   C     C_R   0.508820 0.495791 0.069839 0.448241
C45   C     C_R   0.814933 0.499974 0.434675 -0.087717
C46   C     C_R   0.185248 0.500423 0.565514 -0.089870
C47   C     C_R   0.767354 0.500099 0.498013 -0.144664
C48   C     C_R   0.232740 0.500253 0.502210 -0.143981
Cu1   Cu    Cu3+1 0.500000 0.597420 0.500000 0.942411
Cu2   Cu    Cu3+1 0.500000 0.402580 0.500000 0.941520
H1    H     H_    0.504328 0.656175 0.281179 0.173653
H2    H     H_    0.513088 0.342706 0.715638 0.165889
H3    H     H_    0.512321 0.655783 0.718248 0.167008
H4    H     H_    0.497197 0.343077 0.283953 0.165407
H5    H     H_    0.910870 0.501327 0.672682 0.177937
H6    H     H_    0.089675 0.502079 0.327612 0.176976
H7    H     H_    0.399685 0.750819 0.576015 0.136063
H8    H     H_    0.600082 0.249003 0.423754 0.135957
H9    H     H_    0.599137 0.750846 0.423153 0.138218
H10   H     H_    0.399149 0.249052 0.575585 0.135424
N1    N     N_R   0.464024 0.428119 0.033679 -0.222108
N2    N     N_R   0.561002 0.562488 0.965855 -0.189082
N3    N     N_R   0.467419 0.427789 0.964966 -0.228599
N4    N     N_R   0.557655 0.562773 0.034635 -0.203220
N5    N     N_R   0.500000 0.743810 0.500000 -0.189882
N6    N     N_R   0.500000 0.256190 0.500000 -0.189144
O1    O     O_R   0.370260 0.582280 0.500020 -0.587557
O2    O     O_R   0.629740 0.417720 0.499980 -0.587989
O3    O     O_R   0.629740 0.582280 0.499980 -0.586265
O4    O     O_R   0.370260 0.417720 0.500020 -0.587510
O5    O     O_R   0.499990 0.582300 0.400140 -0.592017
O6    O     O_R   0.500010 0.417700 0.599860 -0.590833
O7    O     O_R   0.500010 0.582300 0.599860 -0.590441
O8    O     O_R   0.499990 0.417700 0.400140 -0.589973
O9    O     O_3   0.516192 0.673987 0.147418 -0.575018
C49   C     C_3   0.434090 0.715476 0.131016 0.103677
H11   H     H_    0.377255 0.664314 0.135132 0.101635
H12   H     H_    0.437579 0.739610 0.076258 0.169174
C50   C     C_3   0.416710 0.804679 0.176029 -0.864360
H13   H     H_    0.470995 0.858039 0.169130 0.253277
H14   H     H_    0.354104 0.839614 0.160997 0.205671
H15   H     H_    0.411671 0.783430 0.231319 0.235119
O10   O     O_3   0.523965 0.320559 0.850732 -0.560579
C51   C     C_3   0.448023 0.262684 0.843615 0.082552
H16   H     H_    0.439016 0.240855 0.788952 0.123326
H17   H     H_    0.388364 0.302084 0.862882 0.139513
C52   C     C_3   0.458099 0.170223 0.885993 -0.773996
H18   H     H_    0.467909 0.189085 0.941038 0.259914
H19   H     H_    0.398198 0.124650 0.881995 0.183407
H20   H     H_    0.515620 0.127828 0.866537 0.244276
O11   O     O_3   0.523626 0.673007 0.853220 -0.556782
C53   C     C_3   0.442912 0.723535 0.852985 0.062242
H21   H     H_    0.388170 0.676899 0.873149 0.124390
H22   H     H_    0.427944 0.749035 0.799968 0.131775
C54   C     C_3   0.449397 0.812527 0.899317 -0.776966
H23   H     H_    0.501617 0.862097 0.879286 0.248931
H24   H     H_    0.385843 0.852264 0.900504 0.182718
H25   H     H_    0.465356 0.789834 0.952717 0.253513
O12   O     O_3   0.508552 0.320970 0.148961 -0.563692
C55   C     C_3   0.432571 0.262947 0.157671 0.086672
H26   H     H_    0.374459 0.300240 0.135593 0.143708
H27   H     H_    0.419124 0.245384 0.213003 0.121517
C56   C     C_3   0.446473 0.167125 0.119733 -0.779551
H28   H     H_    0.503126 0.127421 0.141672 0.238352
H29   H     H_    0.386726 0.121194 0.125289 0.189427
H30   H     H_    0.459756 0.181125 0.064044 0.256686
C57   C     C_R   0.764394 0.496894 0.370275 0.099471
C58   C     C_R   0.740433 0.406983 0.342079 -0.147560
C59   C     C_R   0.707086 0.403022 0.275409 -0.129658
C60   C     C_R   0.696872 0.488456 0.237380 -0.075118
C61   C     C_R   0.711950 0.578571 0.268132 -0.120358
C62   C     C_R   0.744549 0.583193 0.335075 -0.147369
H31   H     H_    0.751891 0.340337 0.370275 0.142243
H32   H     H_    0.691029 0.334058 0.252323 0.159105
H33   H     H_    0.675637 0.484920 0.184478 0.144336
H34   H     H_    0.700555 0.644206 0.239058 0.156965
H35   H     H_    0.759699 0.653077 0.357626 0.142151
C63   C     C_R   0.236140 0.499586 0.629793 0.094290
C64   C     C_R   0.259450 0.410884 0.660289 -0.133652
C65   C     C_R   0.295382 0.410015 0.726153 -0.126260
C66   C     C_R   0.309855 0.497507 0.760844 -0.097387
C67   C     C_R   0.294363 0.586108 0.727752 -0.126708
C68   C     C_R   0.258554 0.587364 0.661838 -0.132303
H36   H     H_    0.245680 0.342922 0.634553 0.141953
H37   H     H_    0.309958 0.341734 0.751031 0.118046
H38   H     H_    0.334680 0.496671 0.812830 0.107690
H39   H     H_    0.307875 0.653545 0.753975 0.117602
H40   H     H_    0.243949 0.656139 0.637367 0.142066
C69   C     C_R   0.760974 0.500280 0.627395 0.094586
C70   C     C_R   0.747322 0.411611 0.662122 -0.155189
C71   C     C_R   0.725190 0.411148 0.732571 -0.141386
C72   C     C_R   0.716045 0.499002 0.768415 -0.083533
C73   C     C_R   0.725250 0.587508 0.733293 -0.139022
C74   C     C_R   0.747338 0.588326 0.662835 -0.156874
H41   H     H_    0.759448 0.343233 0.635747 0.133846
H42   H     H_    0.717132 0.342729 0.759764 0.152415
H43   H     H_    0.701101 0.498500 0.823324 0.147190
H44   H     H_    0.717247 0.655427 0.761050 0.153837
H45   H     H_    0.759491 0.657163 0.637017 0.134745
C75   C     C_R   0.239504 0.500158 0.373109 0.093668
C76   C     C_R   0.252372 0.411921 0.337834 -0.142625
C77   C     C_R   0.277796 0.412379 0.268077 -0.146729
C78   C     C_R   0.291458 0.500662 0.233516 -0.104351
C79   C     C_R   0.281941 0.588615 0.269231 -0.152395
C80   C     C_R   0.256357 0.588533 0.338958 -0.143253
H46   H     H_    0.237484 0.343365 0.363178 0.128238
H47   H     H_    0.284484 0.344360 0.240428 0.106043
H48   H     H_    0.309590 0.500836 0.179148 0.110769
H49   H     H_    0.291951 0.656966 0.242532 0.131115
H50   H     H_    0.244626 0.657113 0.365175 0.130412
C81   C     C_R   0.069904 0.500646 0.699667 0.143921
C82   C     C_R   0.075835 0.588553 0.736213 -0.133847
C83   C     C_R   0.094936 0.587999 0.806646 -0.135491
C84   C     C_R   0.105620 0.499604 0.841376 -0.105182
C85   C     C_R   0.095962 0.411715 0.805944 -0.132616
C86   C     C_R   0.076855 0.412196 0.735515 -0.131819
H51   H     H_    0.065169 0.657044 0.709995 0.115294
H52   H     H_    0.100861 0.655975 0.834403 0.113748
H53   H     H_    0.120413 0.499206 0.895872 0.116089
H54   H     H_    0.102690 0.343318 0.833152 0.114511
H55   H     H_    0.066933 0.344085 0.708744 0.114971
C87   C     C_R   0.930931 0.500119 0.300250 0.147137
C88   C     C_R   0.927750 0.587599 0.262619 -0.143174
C89   C     C_R   0.911535 0.586149 0.191709 -0.139786
C90   C     C_R   0.900610 0.497444 0.157621 -0.101549
C91   C     C_R   0.906981 0.410013 0.194197 -0.135720
C92   C     C_R   0.923279 0.411191 0.265100 -0.130079
H56   H     H_    0.938370 0.656567 0.288216 0.116141
H57   H     H_    0.908217 0.653675 0.163032 0.118627
H58   H     H_    0.888135 0.496421 0.102737 0.126152
H59   H     H_    0.900059 0.341392 0.167440 0.117822
H60   H     H_    0.930688 0.343105 0.292617 0.115174
C93   C     C_R   0.672850 0.896180 0.359976 0.109703
C94   C     C_R   0.642889 0.874195 0.293661 -0.151709
C95   C     C_R   0.701546 0.839551 0.242957 -0.135147
C96   C     C_R   0.789877 0.824908 0.258592 -0.127919
C97   C     C_R   0.819557 0.844356 0.325098 -0.145250
C98   C     C_R   0.761255 0.880056 0.375761 -0.135871
H61   H     H_    0.575032 0.887402 0.280645 0.126652
H62   H     H_    0.678595 0.824277 0.191481 0.157102
H63   H     H_    0.835217 0.798261 0.219229 0.119855
H64   H     H_    0.887912 0.832855 0.337142 0.121325
H65   H     H_    0.785337 0.897880 0.426515 0.120614
C99   C     C_R   0.314859 0.103182 0.630463 0.118532
C100  C     C_R   0.232540 0.127030 0.603725 -0.151702
C101  C     C_R   0.165101 0.160282 0.647822 -0.149400
C102  C     C_R   0.179611 0.169767 0.718641 -0.104957
C103  C     C_R   0.261964 0.147969 0.745252 -0.153159
C104  C     C_R   0.329705 0.115337 0.701283 -0.154816
H66   H     H_    0.219829 0.116555 0.549342 0.121136
H67   H     H_    0.101282 0.177367 0.627284 0.124225
H68   H     H_    0.126982 0.193452 0.753031 0.113032
H69   H     H_    0.272884 0.155311 0.800090 0.116829
H70   H     H_    0.392423 0.095462 0.722704 0.120469
C105  C     C_R   0.315583 0.896477 0.631034 0.118035
C106  C     C_R   0.332378 0.881236 0.701286 -0.155773
C107  C     C_R   0.265304 0.848659 0.745927 -0.154101
C108  C     C_R   0.181849 0.829470 0.720483 -0.106759
C109  C     C_R   0.165468 0.841711 0.650150 -0.148071
C110  C     C_R   0.232115 0.875283 0.605439 -0.146289
H71   H     H_    0.396125 0.898663 0.721863 0.120865
H72   H     H_    0.277619 0.839305 0.800416 0.116275
H73   H     H_    0.129835 0.805623 0.755398 0.113285
H74   H     H_    0.100799 0.826641 0.630510 0.124121
H75   H     H_    0.217979 0.888024 0.551522 0.120688
C111  C     C_R   0.678005 0.102702 0.363371 0.109446
C112  C     C_R   0.761965 0.126935 0.386567 -0.162784
C113  C     C_R   0.826714 0.158805 0.339543 -0.150336
C114  C     C_R   0.807959 0.166399 0.269286 -0.117747
C115  C     C_R   0.724037 0.143672 0.246079 -0.135487
C116  C     C_R   0.658850 0.112885 0.293038 -0.132915
H76   H     H_    0.778017 0.117792 0.440486 0.123450
H77   H     H_    0.891730 0.176366 0.357428 0.122929
H78   H     H_    0.858440 0.189770 0.232823 0.115910
H79   H     H_    0.709577 0.149672 0.191678 0.140583
H80   H     H_    0.594704 0.093056 0.274302 0.121428

loop_
_geom_bond_atom_site_label_1
_geom_bond_atom_site_label_2
_ccdc_geom_bond_type
C52   H18   S    
C9    C45   A    
C90   C91   A    
C28   C111  S    
C57   C62   A    
C19   C23   A    
C61   C62   A    
C49   C50   S    
C9    C14   A    
C99   C100  A    
C68   H40   S    
C54   H25   S    
C43   N3    A    
C100  H66   S    
C93   C94   A    
C44   N4    A    
C25   C28   A    
C35   O9    S    
C26   C27   A    
C113  H77   S    
Cu1   N5    S    
O10   C51   S    
C33   C42   A    
C32   C36   A    
C89   C90   A    
C51   H17   S    
C5    C11   A    
C37   C40   A    
C2    O2    A    
Cu2   O8    S    
C6    C12   A    
C62   H35   S    
C38   O12   S    
C78   C79   A    
C36   O10   S    
C108  H73   S    
C97   H64   S    
C15   N5    A    
C110  H75   S    
C109  H74   S    
C83   H52   S    
C4    C48   A    
C58   C59   A    
C46   C63   S    
C67   H39   S    
N1    N3    A    
Cu2   O6    S    
C94   C95   A    
C32   H2    S    
N2    N4    A    
C17   C19   A    
C63   C64   A    
C104  H70   S    
C40   C43   S    
C54   H23   S    
C72   C73   A    
C10   C46   A    
C57   C58   A    
C51   C52   S    
C61   H34   S    
C92   H60   S    
C2    O3    A    
Cu1   O1    S    
C18   C20   A    
C80   H50   S    
C116  H80   S    
C21   C27   A    
C101  C102  A    
C73   H44   S    
C22   C28   A    
C15   H7    S    
C89   H57   S    
C96   H63   S    
C34   C41   A    
C111  C116  A    
C95   H62   S    
C55   H27   S    
C18   N6    A    
C55   H26   S    
C45   C47   A    
C33   H3    S    
C78   H48   S    
C46   C48   A    
C85   C86   A    
C66   C67   A    
C37   O11   S    
C112  C113  A    
C20   C24   A    
C7    C8    A    
C51   H16   S    
C13   C81   S    
C4    C6    A    
C71   H42   S    
C31   H1    S    
C74   H45   S    
C5    C7    A    
C30   O7    A    
C111  C112  A    
C113  C114  A    
C6    C8    A    
C29   O8    A    
C60   C61   A    
C112  H76   S    
C64   H36   S    
C53   C54   S    
C33   C37   A    
C87   C92   A    
C66   H38   S    
C103  C104  A    
C34   C38   A    
C58   H31   S    
C14   C87   S    
C35   C39   A    
O9    C49   S    
C79   H49   S    
C4    C75   S    
C73   C74   A    
C95   C96   A    
C36   C40   A    
C81   C82   A    
C53   H22   S    
C114  C115  A    
C84   C85   A    
C107  H72   S    
C56   H29   S    
C16   H8    S    
C81   C86   A    
C49   H11   S    
C1    O4    A    
Cu2   N6    S    
C102  H68   S    
C12   H6    S    
C91   H59   S    
C59   H32   S    
C17   H9    S    
C76   H46   S    
C18   H10   S    
C108  C109  A    
C70   H41   S    
C12   C14   A    
C103  H69   S    
C115  C116  A    
C21   C23   A    
C91   C92   A    
C44   N1    A    
C22   C24   A    
C50   H13   S    
C16   N6    A    
C71   C72   A    
O11   C53   S    
C11   H5    S    
C65   C66   A    
C50   H14   S    
C105  C110  A    
C101  H67   S    
C90   H58   S    
C7    C9    A    
C82   H51   S    
C96   C97   A    
C16   C22   A    
C31   C41   A    
C29   C41   S    
C85   H54   S    
C3    C69   S    
C77   H47   S    
C98   H65   S    
C49   H12   S    
C106  C107  A    
C3    C5    A    
C10   C13   A    
C75   C80   A    
C86   H55   S    
C50   H15   S    
C30   O6    A    
C64   C65   A    
C54   H24   S    
C1    C48   S    
C34   H4    S    
C39   C44   S    
C2    C47   S    
C87   C88   A    
C17   N5    A    
C114  H78   S    
O12   C55   S    
C79   C80   A    
C52   H19   S    
C88   H56   S    
C69   C70   A    
C84   H53   S    
C59   C60   A    
C106  H71   S    
C11   C13   A    
C100  C101  A    
C38   C39   A    
C15   C21   A    
C20   C26   A    
C93   C98   A    
C75   C76   A    
C94   H61   S    
C31   C35   A    
C3    C47   A    
C53   H21   S    
C1    O1    A    
C70   C71   A    
C56   H30   S    
Cu1   O7    S    
C63   C68   A    
C55   C56   S    
C65   H37   S    
Cu2   O4    S    
C107  C108  A    
C19   C25   A    
C69   C74   A    
C88   C89   A    
C97   C98   A    
C23   C24   A    
C45   C57   S    
C105  C106  A    
C25   C93   S    
C109  C110  A    
C27   C105  S    
C82   C83   A    
C102  C103  A    
C8    C10   A    
Cu1   Cu2   S    
Cu1   O5    S    
C52   H20   S    
C56   H28   S    
C67   C68   A    
C32   C42   A    
C77   C78   A    
C30   C42   S    
Cu1   O3    S    
C72   H43   S    
C83   C84   A    
C76   C77   A    
Cu2   O2    S    
C60   H33   S    
C99   C104  A    
C115  H79   S    
C43   N2    A    
C29   O5    A    
C26   C99   S    
