data_mof_unit_26782.cif
_audit_creation_date              2012-12-10T16:47:19-0500
_audit_creation_method            fapswitch 2.2
_symmetry_space_group_name_H-M    P1
_symmetry_Int_Tables_number       1
_space_group_crystal_system       triclinic
_cell_length_a                    12.168127
_cell_length_b                    12.182548
_cell_length_c                    7.760031
_cell_angle_alpha                 89.999887
_cell_angle_beta                  94.628763
_cell_angle_gamma                 90.000132
_cell_volume                      1146.58578046

loop_
_atom_site_label
_atom_site_type_symbol
_atom_type_description
_atom_site_fract_x
_atom_site_fract_y
_atom_site_fract_z
_atom_type_partial_charge
Br1   Br    Br    0.830850 0.848163 0.272232 -0.340205
Br2   Br    Br    0.334396 0.313537 0.772742 -0.347018
Br3   Br    Br    0.334404 0.686453 0.772728 -0.347025
Br4   Br    Br    0.830860 0.151830 0.272256 -0.340216
Br5   Br    Br    0.165604 0.186463 0.227258 -0.347018
Br6   Br    Br    0.669151 0.651837 0.727768 -0.340205
Br7   Br    Br    0.669140 0.348171 0.727743 -0.340216
Br8   Br    Br    0.165596 0.813547 0.227272 -0.347025
C1    C     C_R   0.354853 0.850537 0.455967 0.939807
C2    C     C_2   0.713191 0.758101 0.559572 0.011953
C3    C     C_2   0.713189 0.241901 0.559570 0.011952
C4    C     C_2   0.262316 0.782009 0.433061 0.012130
C5    C     C_2   0.786809 0.741899 0.440428 0.011953
C6    C     C_2   0.237682 0.282008 0.566940 0.012132
C7    C     C_2   0.237684 0.717991 0.566939 0.012130
C8    C     C_2   0.786810 0.258099 0.440430 0.011952
C9    C     C_R   0.645884 0.148671 0.544347 0.930526
C10   C     C_R   0.645884 0.851329 0.544348 0.930525
C11   C     C_R   0.354853 0.149463 0.455967 0.939805
C12   C     C_R   0.854116 0.351329 0.455652 0.930527
C13   C     C_R   0.145147 0.649463 0.544033 0.939807
C14   C     C_R   0.145147 0.350536 0.544033 0.939805
C15   C     C_R   0.854115 0.648671 0.455652 0.930525
C16   C     C_2   0.262317 0.217992 0.433060 0.012132
H1    H     H_    0.616484 1.000000 0.003278 0.232644
H2    H     H_    0.383520 0.000000 0.996748 0.232302
H3    H     H_    0.116479 0.500000 0.003252 0.232302
H4    H     H_    0.883515 0.500000 0.996722 0.232644
N1    N     N_2   0.541470 0.000000 0.055820 -0.132869
N2    N     N_2   0.458530 0.000000 0.944180 -0.133814
N3    N     N_2   0.041470 0.500000 0.055820 -0.133813
N4    N     N_2   0.958530 0.500000 0.944180 -0.132869
O1    O     O_R   0.375700 0.885870 0.609240 -0.593905
O2    O     O_R   0.597720 0.114130 0.675960 -0.595109
O3    O     O_R   0.597720 0.885870 0.675960 -0.595107
O4    O     O_R   0.402280 0.114130 0.324040 -0.598789
O5    O     O_R   0.902280 0.385870 0.324040 -0.595110
O6    O     O_R   0.097720 0.614130 0.675960 -0.598791
O7    O     O_R   0.097720 0.385870 0.675960 -0.598789
O8    O     O_R   0.902280 0.614130 0.324040 -0.595107
O9    O     O_R   0.624300 0.114130 0.390760 -0.591225
O10   O     O_R   0.624300 0.885870 0.390760 -0.591224
O11   O     O_R   0.375700 0.114130 0.609240 -0.593904
O12   O     O_R   0.875700 0.385870 0.609240 -0.591225
O13   O     O_R   0.124300 0.614130 0.390760 -0.593905
O14   O     O_R   0.124300 0.385870 0.390760 -0.593904
O15   O     O_R   0.875700 0.614130 0.609240 -0.591224
O16   O     O_R   0.402280 0.885870 0.324040 -0.598791
Zn1   Zn    Zn3+2 0.482250 1.000000 0.690430 1.072234
Zn2   Zn    Zn3+2 0.517750 0.000000 0.309570 1.073190
Zn3   Zn    Zn3+2 0.982250 0.500000 0.690430 1.073190
Zn4   Zn    Zn3+2 0.017750 0.500000 0.309570 1.072234

loop_
_geom_bond_atom_site_label_1
_geom_bond_atom_site_label_2
_ccdc_geom_bond_type
Br6   C2    S    
O7    Zn3   S    
N4    Zn3   S    
Br4   C8    S    
N1    N2    D    
C3    C8    D    
N3    N4    D    
C4    C7    D    
C8    C12   S    
N3    Zn4   S    
Br8   C4    S    
C6    C14   S    
C15   O15   A    
O16   Zn2   S    
C11   C16   S    
O4    Zn2   S    
C1    O1    A    
C12   O5    A    
Br5   C16   S    
N1    Zn2   S    
O10   Zn2   S    
O3    Zn1   S    
O12   Zn3   S    
C12   O12   A    
N2    Zn1   S    
C2    C10   S    
Br7   C3    S    
C13   O13   A    
C11   O4    A    
C10   O10   A    
H1    N1    S    
Br2   C6    S    
C1    C4    S    
C9    O9    A    
C7    C13   S    
Br1   C5    S    
C9    O2    A    
C14   O7    A    
O1    Zn1   S    
C15   O8    A    
O14   Zn4   S    
O9    Zn2   S    
H4    N4    S    
Br3   C7    S    
C5    C15   S    
C1    O16   A    
C10   O3    A    
C6    C16   D    
O5    Zn4   S    
O11   Zn1   S    
O2    Zn1   S    
O15   Zn3   S    
O6    Zn3   S    
O13   Zn4   S    
C14   O14   A    
O8    Zn4   S    
H3    N3    S    
C2    C5    D    
C3    C9    S    
C13   O6    A    
C11   O11   A    
H2    N2    S    
