data_mof_unit_58796.cif
_audit_creation_date              2012-12-11T14:17:53-0500
_audit_creation_method            fapswitch 2.2
_symmetry_space_group_name_H-M    P1
_symmetry_Int_Tables_number       1
_space_group_crystal_system       triclinic
_cell_length_a                    11.365346
_cell_length_b                    11.399419
_cell_length_c                    19.06238
_cell_angle_alpha                 89.607808
_cell_angle_beta                  90.430073
_cell_angle_gamma                 119.824252
_cell_volume                      2142.51809545

loop_
_atom_site_label
_atom_site_type_symbol
_atom_type_description
_atom_site_fract_x
_atom_site_fract_y
_atom_site_fract_z
_atom_type_partial_charge
Br1   Br    Br    0.602053 0.868587 0.076707 -0.451739
Br2   Br    Br    0.822755 0.255908 0.606408 -0.392708
Br3   Br    Br    0.448335 0.121284 0.569740 -0.494524
Br4   Br    Br    0.762149 0.666682 0.589372 -0.520495
Br5   Br    Br    0.165307 0.757388 0.096449 -0.430603
Br6   Br    Br    0.258009 0.372050 0.077888 -0.488232
Br7   Br    Br    0.879175 0.611467 0.924359 -0.484764
Br8   Br    Br    0.752730 0.167486 0.907099 -0.437246
Br9   Br    Br    0.364900 0.232127 0.904675 -0.491907
Br10  Br    Br    0.263369 0.813152 0.397504 -0.394099
Br11  Br    Br    0.111838 0.431567 0.430808 -0.499246
Br12  Br    Br    0.665230 0.760305 0.410874 -0.513750
C1    C     C_R   0.540332 0.432056 0.140304 0.545891
C2    C     C_R   0.954115 0.394023 0.546343 0.146581
C3    C     C_R   0.391141 0.949861 0.528131 0.073485
C4    C     C_R   0.594356 0.586841 0.537408 0.102803
C5    C     C_R   0.678577 0.891279 0.556494 -0.001539
C6    C     C_R   0.088303 0.763411 0.545037 -0.028985
C7    C     C_R   0.283082 0.258714 0.572343 -0.000494
C8    C     C_R   0.890923 0.676860 0.443621 -0.002909
C9    C     C_R   0.765908 0.086028 0.453970 -0.030611
C10   C     C_R   0.261213 0.277510 0.429812 -0.003197
C11   C     C_R   0.815432 0.971372 0.544909 -0.040953
C12   C     C_R   0.569275 0.110616 0.139958 0.546831
C13   C     C_R   0.077295 0.855246 0.502328 -0.100443
C14   C     C_R   0.173547 0.160737 0.537431 -0.126640
C15   C     C_R   0.973072 0.813207 0.454291 -0.042267
C16   C     C_R   0.857892 0.074318 0.496388 -0.100354
C17   C     C_R   0.165322 0.167893 0.465346 -0.130152
C18   C     C_R   0.517562 0.454107 0.353894 0.587004
C19   C     C_R   0.551778 0.073240 0.355940 0.588272
C20   C     C_R   0.873669 0.453707 0.360605 0.562378
C21   C     C_R   0.454681 0.517502 0.646397 0.580366
C22   C     C_R   0.072106 0.551116 0.644392 0.586336
C23   C     C_R   0.925494 0.474105 0.144966 0.582198
C24   C     C_R   0.453795 0.873819 0.639305 0.560351
C25   C     C_R   0.485892 0.972245 0.927880 0.027934
C26   C     C_R   0.071186 0.536443 0.934334 0.015045
C27   C     C_R   0.492060 0.512239 0.926152 0.028218
C28   C     C_R   0.978748 0.487644 0.073494 0.026812
C29   C     C_R   0.535283 0.067152 0.066225 0.012995
C30   C     C_R   0.531275 0.467645 0.066814 0.011505
C31   C     C_R   0.380181 0.975452 0.966310 0.047479
C32   C     C_R   0.048762 0.415455 0.968805 0.055713
C33   C     C_R   0.600346 0.618159 0.964718 0.045282
C34   C     C_R   0.452734 0.525261 0.854468 0.582084
C35   C     C_R   0.981736 0.382217 0.034852 0.047005
C36   C     C_R   0.414380 0.045037 0.031441 0.049111
C37   C     C_R   0.631712 0.586521 0.032050 0.048135
C38   C     C_R   0.616771 0.026479 0.032180 0.114587
C39   C     C_R   0.028726 0.612874 0.041986 0.136492
C40   C     C_R   0.411741 0.383705 0.031445 0.114144
C41   C     C_R   0.033605 0.619116 0.969325 0.108137
C42   C     C_R   0.611773 0.022846 0.959476 0.131174
C43   C     C_R   0.411386 0.389521 0.959056 0.136253
C44   C     C_R   0.245569 0.921659 0.941504 -0.028317
C45   C     C_R   0.112154 0.569900 0.860020 0.553938
C46   C     C_R   0.081867 0.322275 0.939059 -0.009099
C47   C     C_R   0.684029 0.750888 0.938413 -0.021427
C48   C     C_R   0.928793 0.248230 0.059882 -0.033074
C49   C     C_R   0.322285 0.080891 0.059992 -0.020301
C50   C     C_R   0.758322 0.678882 0.062251 -0.016302
C51   C     C_R   0.155523 0.952496 0.973132 -0.075260
C52   C     C_R   0.034893 0.194942 0.967132 -0.068465
C53   C     C_R   0.802979 0.840191 0.971333 -0.082014
C54   C     C_R   0.956323 0.157505 0.026972 -0.082329
C55   C     C_R   0.195046 0.035014 0.031442 -0.069499
C56   C     C_R   0.472906 0.922045 0.855876 0.589295
C57   C     C_R   0.841111 0.803634 0.032933 -0.076341
C58   C     C_R   0.464900 0.897644 0.561600 -0.002219
C59   C     C_R   0.013513 0.522824 0.573855 0.045207
C60   C     C_R   0.485100 0.487330 0.574804 0.033957
C61   C     C_R   0.895871 0.463483 0.438557 -0.004606
C62   C     C_R   0.524633 0.015828 0.426651 0.046719
C63   C     C_R   0.487823 0.483075 0.426030 0.032138
C64   C     C_R   0.585602 0.923840 0.526828 0.055683
C65   C     C_R   0.008144 0.624138 0.532669 0.069773
C66   C     C_R   0.382624 0.375775 0.537601 0.033398
C67   C     C_R   0.395887 0.957073 0.454549 0.136668
C68   C     C_R   0.922832 0.583791 0.473316 0.051624
C69   C     C_R   0.626208 0.008417 0.467166 0.071789
C70   C     C_R   0.377989 0.379258 0.463800 0.032172
C71   C     C_R   0.943491 0.386371 0.472909 0.074277
C72   C     C_R   0.586661 0.593506 0.463144 0.102743
Cr1   Cr    Cr6+3 0.768550 0.541320 0.250660 1.072520
Cr2   Cr    Cr6+3 0.458680 0.227230 0.250660 1.071326
Cr3   Cr    Cr6+3 0.772770 0.231450 0.250660 1.069524
Cr4   Cr    Cr6+3 0.541320 0.768550 0.749340 1.071128
Cr5   Cr    Cr6+3 0.227230 0.458680 0.749340 1.075097
Cr6   Cr    Cr6+3 0.231450 0.772770 0.749340 1.075861
H1    H     H_    0.203685 0.856101 0.898093 0.182406
H2    H     H_    0.919502 0.060004 0.050596 0.127560
H3    H     H_    0.128376 0.064353 0.055488 0.131050
H4    H     H_    0.934319 0.870648 0.059295 0.117777
H5    H     H_    0.647210 0.814092 0.594905 0.188014
H6    H     H_    0.170745 0.805019 0.581400 0.161943
H7    H     H_    0.293717 0.233318 0.625887 0.197043
H8    H     H_    0.813072 0.645688 0.405467 0.187275
H9    H     H_    0.808640 0.167187 0.417036 0.166561
H10   H     H_    0.233238 0.286183 0.376523 0.197744
H11   H     H_    0.885772 0.958767 0.577695 0.150378
H12   H     H_    0.147858 0.344061 0.896103 0.190015
H13   H     H_    0.160102 0.954962 0.501602 0.153581
H14   H     H_    0.099610 0.075596 0.566895 0.113837
H15   H     H_    0.960609 0.882842 0.421033 0.148696
H16   H     H_    0.958403 0.156075 0.496684 0.158381
H17   H     H_    0.080538 0.092819 0.436208 0.111127
H18   H     H_    0.664260 0.794564 0.893821 0.185175
H19   H     H_    0.864469 0.205707 0.103847 0.180265
H20   H     H_    0.344330 0.146885 0.102970 0.183169
H21   H     H_    0.801903 0.659707 0.106811 0.186018
H22   H     H_    0.057554 0.916218 0.949586 0.136752
H23   H     H_    0.062132 0.127323 0.942287 0.131967
H24   H     H_    0.865077 0.936744 0.947181 0.117732
O1    O     O_R   0.910960 0.572410 0.171010 -0.491543
O2    O     O_R   0.528530 0.639750 0.824400 -0.529430
O3    O     O_R   0.111220 0.471470 0.824400 -0.496760
O4    O     O_R   0.360250 0.888780 0.824400 -0.524847
O5    O     O_R   0.909330 0.572400 0.331540 -0.473770
O6    O     O_R   0.427600 0.336930 0.331540 -0.532447
O7    O     O_R   0.663070 0.090670 0.331540 -0.518287
O8    O     O_R   0.572400 0.909330 0.668460 -0.472249
O9    O     O_R   0.336930 0.427600 0.668460 -0.531978
O10   O     O_R   0.090670 0.663070 0.668460 -0.519033
O11   O     O_R   0.638240 0.528520 0.324410 -0.494505
O12   O     O_R   0.427590 0.338550 0.171010 -0.471439
O13   O     O_R   0.471480 0.109720 0.324410 -0.463514
O14   O     O_R   0.890280 0.361760 0.324410 -0.454763
O15   O     O_R   0.528520 0.638240 0.675590 -0.498381
O16   O     O_R   0.109720 0.471480 0.675590 -0.460631
O17   O     O_R   0.361760 0.890280 0.675590 -0.456549
O18   O     O_3   0.666667 0.333333 0.250630 -0.375229
O19   O     O_3   0.333333 0.666667 0.749370 -0.366470
O20   O     O_R   0.661450 0.089040 0.171010 -0.463071
O21   O     O_R   0.572410 0.910960 0.828990 -0.483590
O22   O     O_R   0.338550 0.427590 0.828990 -0.493617
O23   O     O_R   0.089040 0.661450 0.828990 -0.462521
O24   O     O_R   0.639750 0.528530 0.175600 -0.504862
O25   O     O_R   0.471470 0.111220 0.175600 -0.502026
O26   O     O_R   0.888780 0.360250 0.175600 -0.531278

loop_
_geom_bond_atom_site_label_1
_geom_bond_atom_site_label_2
_ccdc_geom_bond_type
C28   C35   A    
C25   C31   A    
C10   C17   A    
Cr2   O12   S    
C6    H6    S    
C2    C59   A    
Cr1   O11   S    
C4    C60   A    
C19   O13   A    
Cr3   O26   S    
C7    H7    S    
C38   C42   A    
C10   C70   A    
Cr4   O19   S    
Cr1   O18   S    
C9    H9    S    
C63   C72   A    
C15   H15   S    
C21   O15   A    
C25   C56   S    
C4    C72   A    
C21   O9    A    
Br12  C72   S    
C53   H24   S    
C51   H22   S    
Cr1   O5    S    
C7    C14   A    
C49   C55   A    
C1    C30   S    
C60   C66   A    
C48   H19   S    
C21   C60   S    
C56   O4    A    
C35   C48   A    
C61   C68   A    
C44   H1    S    
C27   C43   A    
C50   H21   S    
C16   H16   S    
C5    C64   A    
C23   O1    A    
C46   H12   S    
Br1   C38   S    
C32   C35   A    
C27   C33   A    
C14   H14   S    
C18   O11   A    
C48   C54   A    
Cr5   O22   S    
C12   C29   S    
Cr3   O20   S    
C6    C13   A    
Cr4   O15   S    
C49   H20   S    
Cr3   O14   S    
C24   C58   S    
C12   O25   A    
C46   C52   A    
C51   C55   A    
C10   H10   S    
C8    C68   A    
Cr1   O1    S    
Cr5   O19   S    
Cr4   O2    S    
C19   O7    A    
Cr4   O8    S    
C57   H4    S    
C24   O17   A    
Br8   C42   S    
C20   C61   S    
Cr3   O7    S    
Cr6   O19   S    
C13   H13   S    
C19   C62   S    
C54   H2    S    
Cr5   O9    S    
Br11  C71   S    
Cr5   O16   S    
C50   C57   A    
C39   C41   A    
C52   C54   A    
Cr3   O18   S    
Br4   C4    S    
C7    C66   A    
C24   O8    A    
C26   C32   A    
C23   O26   A    
C26   C45   S    
C66   C70   A    
C33   C37   A    
C32   C46   A    
C44   C51   A    
C45   O23   A    
C5    C11   A    
C11   C16   A    
Cr2   O25   S    
C27   C34   S    
C5    H5    S    
Cr6   O17   S    
C9    C16   A    
C9    C69   A    
C62   C67   A    
C58   C64   A    
C1    O12   A    
C20   O5    A    
Cr6   O4    S    
C29   C38   A    
C59   C65   A    
Cr6   O23   S    
Br3   C3    S    
C45   O3    A    
C31   C36   A    
C65   C68   A    
C12   O20   A    
C3    C58   A    
C33   C47   A    
C22   O10   A    
C52   H23   S    
Cr2   O13   S    
Cr6   O10   S    
C56   O21   A    
Br5   C39   S    
Cr4   O21   S    
Cr5   O3    S    
C64   C69   A    
Br10  C67   S    
C40   C43   A    
C63   C70   A    
C8    C15   A    
C3    C67   A    
C13   C15   A    
C28   C39   A    
C25   C42   A    
C47   H18   S    
C34   O2    A    
C1    O24   A    
C20   O14   A    
C23   C28   S    
C2    C71   A    
C47   C53   A    
C18   C63   S    
Cr2   O18   S    
C36   C49   A    
C11   H11   S    
C26   C41   A    
C18   O6    A    
C6    C65   A    
C53   C57   A    
Cr1   O24   S    
C29   C36   A    
Br9   C43   S    
Br2   C2    S    
C30   C37   A    
C34   O22   A    
C31   C44   A    
C8    H8    S    
C22   O16   A    
C14   C17   A    
C55   H3    S    
Br7   C41   S    
C17   H17   S    
C37   C50   A    
Cr2   O6    S    
C62   C69   A    
Br6   C40   S    
C22   C59   S    
C61   C71   A    
C30   C40   A    
