data_mof_unit_19844.cif
_audit_creation_date              2012-12-10T17:22:07-0500
_audit_creation_method            fapswitch 2.2
_symmetry_space_group_name_H-M    P1
_symmetry_Int_Tables_number       1
_space_group_crystal_system       triclinic
_cell_length_a                    15.870012
_cell_length_b                    10.781814
_cell_length_c                    9.607771
_cell_angle_alpha                 89.881805
_cell_angle_beta                  90.107652
_cell_angle_gamma                 92.726027
_cell_volume                      1642.09539071

loop_
_atom_site_label
_atom_site_type_symbol
_atom_type_description
_atom_site_fract_x
_atom_site_fract_y
_atom_site_fract_z
_atom_type_partial_charge
C1    C     C_R   0.496252 0.262520 0.500195 0.789102
C2    C     C_3   0.947182 0.371693 0.532338 -0.374580
C3    C     C_3   0.917454 0.503665 0.500625 0.328138
C4    C     C_3   0.954591 0.593965 0.612789 -0.382417
C5    C     C_3   0.052304 0.593928 0.612575 -0.364500
C6    C     C_1   0.825186 0.503246 0.500624 -0.115820
C7    C     C_1   0.175189 0.502888 0.500112 -0.116840
C8    C     C_1   0.250727 0.501683 0.499928 -0.186395
C9    C     C_R   0.367983 0.118427 0.661027 -0.282720
C10   C     C_R   0.309951 0.048909 0.741646 -0.187350
C11   C     C_R   0.310750 0.919698 0.745167 0.499222
C12   C     C_R   0.340354 0.500122 0.499968 0.812512
C13   C     C_R   0.368459 0.860143 0.659832 -0.301379
C14   C     C_R   0.430173 0.928966 0.582010 0.053209
C15   C     C_R   0.430050 0.059983 0.582702 0.101370
C16   C     C_R   0.490074 0.128176 0.500285 -0.082818
C17   C     C_R   0.545887 0.067564 0.414699 -0.202048
C18   C     C_R   0.546081 0.939724 0.414276 -0.215234
C19   C     C_R   0.490423 0.870355 0.499371 -0.061839
C20   C     C_R   0.611706 0.666060 0.143835 -0.139523
C21   C     C_R   0.666085 0.747585 0.071686 -0.218783
C22   C     C_R   0.666175 0.747506 0.928266 -0.205928
C23   C     C_R   0.497247 0.737072 0.499840 0.766146
C24   C     C_R   0.611843 0.665961 0.856074 -0.134091
C25   C     C_R   0.554865 0.581670 0.925206 0.202242
C26   C     C_R   0.554822 0.581674 0.074719 0.208095
C27   C     C_R   0.447633 0.422505 0.073873 -0.067993
C28   C     C_R   0.447556 0.422670 0.926069 -0.064485
C29   C     C_R   0.659708 0.500714 0.500076 0.811658
C30   C     C_3   0.044796 0.371614 0.532253 -0.377271
C31   C     C_3   0.050199 0.545181 0.356416 -0.384638
C32   C     C_3   0.952542 0.545354 0.356623 -0.373279
C33   C     C_1   0.749523 0.502181 0.500402 -0.179392
C34   C     C_3   0.083035 0.503501 0.500335 0.326031
Cu1   Cu    Cu3+1 0.499990 0.499990 0.640660 0.918608
Cu2   Cu    Cu3+1 0.500010 0.500010 0.359340 0.926277
H1    H     H_    0.921476 0.304933 0.452967 0.160463
H2    H     H_    0.067324 0.339570 0.635455 0.160710
H3    H     H_    0.922875 0.339596 0.635549 0.162380
H4    H     H_    0.934236 0.689684 0.592243 0.160099
H5    H     H_    0.591133 0.119745 0.350411 0.153550
H6    H     H_    0.362408 0.217891 0.659348 0.160889
H7    H     H_    0.263547 0.096131 0.801692 0.147820
H8    H     H_    0.363046 0.760396 0.652112 0.152809
H9    H     H_    0.591543 0.894739 0.349887 0.138138
H10   H     H_    0.404591 0.359055 0.128953 0.142850
H11   H     H_    0.065908 0.304748 0.452914 0.162466
H12   H     H_    0.617332 0.673353 0.253529 0.191008
H13   H     H_    0.708692 0.811095 0.127818 0.141601
H14   H     H_    0.708883 0.810922 0.872185 0.145984
H15   H     H_    0.617598 0.673154 0.746355 0.195903
H16   H     H_    0.404476 0.359304 0.871036 0.133286
H17   H     H_    0.076744 0.639942 0.331012 0.163985
H18   H     H_    0.071325 0.481457 0.273830 0.162062
H19   H     H_    0.926866 0.481835 0.274036 0.163228
H20   H     H_    0.932210 0.640238 0.331479 0.159524
H21   H     H_    0.075075 0.565972 0.717196 0.162191
H22   H     H_    0.078846 0.689598 0.591831 0.175176
H23   H     H_    0.930462 0.565896 0.717479 0.163916
N1    N     N_R   0.500800 0.501210 0.147910 -0.199807
N2    N     N_R   0.500820 0.501290 0.852040 -0.198749
O1    O     O_R   0.499990 0.319640 0.618810 -0.574464
O2    O     O_R   0.500000 0.319660 0.381240 -0.574151
O3    O     O_R   0.379430 0.499990 0.618840 -0.596401
O4    O     O_R   0.379440 0.500020 0.381260 -0.571676
O5    O     O_R   0.500000 0.680340 0.618760 -0.606204
O6    O     O_R   0.500010 0.680360 0.381190 -0.595080
O7    O     O_R   0.620560 0.499980 0.618740 -0.585943
O8    O     O_R   0.620570 0.500010 0.381160 -0.589772
O9    O     O_3   0.249785 0.855577 0.824810 -0.624977
C35   C     C_3   0.282779 0.751961 0.893208 0.052243
H24   H     H_    0.348543 0.772390 0.931147 0.148769
H25   H     H_    0.281604 0.671154 0.821293 0.157810
C36   C     C_3   0.227456 0.717399 0.018728 -0.346995
H26   H     H_    0.225355 0.798475 0.089725 0.225982
H27   H     H_    0.162162 0.692593 0.982932 0.217083
C37   C     C_3   0.261525 0.607876 0.098547 -0.899401
H28   H     H_    0.263158 0.525043 0.030212 0.245434
H29   H     H_    0.220068 0.584911 0.188774 0.254127
H30   H     H_    0.326138 0.631814 0.137790 0.278844

loop_
_geom_bond_atom_site_label_1
_geom_bond_atom_site_label_2
_ccdc_geom_bond_type
C28   H16   S    
Cu1   Cu2   S    
C3    C6    S    
C1    O1    A    
C21   H13   S    
C11   O9    S    
C7    C8    T    
C37   H28   S    
C9    H6    S    
C36   H27   S    
C5    H22   S    
C23   O5    A    
C27   N1    A    
C12   O3    A    
C15   C16   A    
C29   C33   S    
C30   H2    S    
C18   C19   A    
C23   O6    A    
C2    H3    S    
C4    H4    S    
C16   C17   A    
C36   C37   S    
O9    C35   S    
Cu2   O2    S    
C9    C10   A    
C32   H19   S    
C22   H14   S    
C28   N2    A    
C24   H15   S    
C13   C14   A    
C1    O2    A    
C29   O8    A    
C37   H29   S    
Cu2   O6    S    
C36   H26   S    
C30   C34   S    
C30   H11   S    
C24   C25   A    
C35   H25   S    
Cu2   O4    S    
Cu1   O5    S    
C25   C26   A    
C19   C23   S    
C29   O7    A    
C31   C32   S    
C8    C12   S    
C5    C34   S    
C17   C18   A    
C31   C34   S    
Cu1   N2    S    
C1    C16   S    
C25   N2    A    
C31   H17   S    
Cu1   O3    S    
C27   H10   S    
C7    C34   S    
C22   C24   A    
C3    C4    S    
C18   H9    S    
Cu2   O8    S    
C37   H30   S    
C20   H12   S    
C10   H7    S    
C14   C19   A    
C4    C5    S    
Cu2   N1    S    
C35   C36   S    
C12   O4    A    
C6    C33   T    
C5    H21   S    
C2    C30   S    
C2    C3    S    
C9    C15   A    
C35   H24   S    
C11   C13   A    
C2    H1    S    
C20   C26   A    
Cu1   O7    S    
C4    H23   S    
Cu1   O1    S    
C31   H18   S    
C3    C32   S    
C17   H5    S    
C10   C11   A    
C20   C21   A    
C27   C28   A    
C14   C15   A    
C21   C22   A    
C26   N1    A    
C32   H20   S    
C13   H8    S    
