data_mof_unit_13850.cif
_audit_creation_date              2012-12-10T16:51:33-0500
_audit_creation_method            fapswitch 2.2
_symmetry_space_group_name_H-M    P1
_symmetry_Int_Tables_number       1
_space_group_crystal_system       triclinic
_cell_length_a                    7.901313
_cell_length_b                    8.617349
_cell_length_c                    12.603613
_cell_angle_alpha                 92.41927
_cell_angle_beta                  104.471392
_cell_angle_gamma                 93.530498
_cell_volume                      827.880936316

loop_
_atom_site_label
_atom_site_type_symbol
_atom_type_description
_atom_site_fract_x
_atom_site_fract_y
_atom_site_fract_z
_atom_type_partial_charge
C1    C     C_R   0.044680 0.794148 0.499176 0.914307
C2    C     C_R   0.195263 0.562069 0.821661 -0.122886
C3    C     C_2   0.069387 0.957987 0.502390 -0.395918
C4    C     C_R   0.113496 0.509811 0.708594 0.816919
C5    C     C_2   0.934893 0.042602 0.506860 -0.369307
C6    C     C_R   0.956952 0.206066 0.503974 0.981669
C7    C     C_R   0.895992 0.513696 0.294012 0.894478
C8    C     C_R   0.911558 0.494436 0.006570 -0.247886
C9    C     C_R   0.856152 0.559439 0.180645 -0.237980
C10   C     C_R   0.123978 0.689563 0.863777 -0.188293
C11   C     C_R   0.229573 0.792121 0.944636 -0.096300
C12   C     C_R   0.465701 0.621367 0.962120 0.132432
C13   C     C_R   0.402618 0.761983 0.989152 -0.195337
C14   C     C_3   0.211153 0.701999 0.245639 0.161695
C15   C     C_3   0.348467 0.828161 0.235609 -0.475751
C16   C     C_3   0.479628 0.873545 0.345417 -0.860674
C17   C     C_R   0.370280 0.527097 0.870985 0.086552
C18   C     C_R   0.631838 0.582046 0.016534 0.071046
C19   C     C_R   0.730722 0.496869 0.959579 0.063583
C20   C     C_R   0.642643 0.409231 0.863838 -0.193293
C21   C     C_R   0.459744 0.410937 0.827632 -0.190522
C22   C     C_R   0.687897 0.595502 0.130358 -0.306014
C23   C     C_R   0.980253 0.553359 0.115624 0.542585
H1    H     H_    0.807469 0.992085 0.511026 0.210809
H2    H     H_    0.197976 0.008603 0.501378 0.208277
H3    H     H_    0.277952 0.637411 0.315976 0.227441
H4    H     H_    0.101000 0.762692 0.264678 0.087580
H5    H     H_    0.425405 0.781286 0.184655 0.252285
H6    H     H_    0.285806 0.931220 0.197744 0.231962
H7    H     H_    0.410552 0.901119 0.409413 0.279714
H8    H     H_    0.567467 0.974397 0.335994 0.310569
H9    H     H_    0.562233 0.775623 0.372135 0.257499
H10   H     H_    0.238432 0.103389 0.337696 0.348040
H11   H     H_    0.529679 0.637673 0.569219 0.149237
H12   H     H_    0.711775 0.331181 0.822900 0.161447
H13   H     H_    0.996756 0.447371 0.960262 0.164458
H14   H     H_    0.595474 0.610316 0.178858 0.204348
H15   H     H_    0.992827 0.720683 0.825404 0.161151
H16   H     H_    0.490273 0.850981 0.041982 0.135725
H17   H     H_    0.179719 0.898476 0.969118 0.141455
H18   H     H_    0.392477 0.326153 0.762814 0.176967
N1    N     N_2   0.434800 0.456690 0.470850 0.096160
N2    N     N_2   0.565200 0.543310 0.529150 -0.152196
O1    O     O_R   0.893060 0.738880 0.507150 -0.632644
O2    O     O_2   0.574571 0.277810 0.338006 -0.272675
O3    O     O_2   0.505510 0.166331 0.500482 -0.373680
O4    O     O_3   0.253141 0.216594 0.330222 -0.511417
O5    O     O_R   0.172250 0.711130 0.488470 -0.682375
O6    O     O_R   0.944700 0.520730 0.667600 -0.623270
O7    O     O_R   0.223890 0.492980 0.648920 -0.632020
O8    O     O_R   0.827750 0.288870 0.511530 -0.530177
O9    O     O_R   0.106940 0.261120 0.492850 -0.570464
O10   O     O_R   0.776110 0.507020 0.351080 -0.565345
O11   O     O_R   0.055300 0.479270 0.332400 -0.593879
O12   O     O_3   0.161551 0.592807 0.152527 -0.621813
S1    S     S_3+6 0.451925 0.276923 0.411106 0.130781
Zn1   Zn    Zn3+2 0.813580 0.518530 0.512470 1.019236
Zn2   Zn    Zn3+2 0.186420 0.481470 0.487530 1.021709

loop_
_geom_bond_atom_site_label_1
_geom_bond_atom_site_label_2
_ccdc_geom_bond_type
C12   C17   A    
C2    C4    S    
C1    O5    A    
C23   O12   S    
O8    Zn1   S    
C2    C17   A    
C6    O8    A    
C16   H9    S    
C4    O6    A    
C1    O1    A    
C19   C20   A    
O1    Zn1   S    
C10   H15   S    
N1    S1    S    
N1    Zn2   S    
C14   O12   S    
C14   H3    S    
C16   H8    S    
O5    Zn2   S    
C14   H4    S    
C11   C13   A    
C15   H5    S    
C5    C6    S    
C5    H1    S    
O9    Zn2   S    
C21   H18   S    
C15   H6    S    
C10   C11   A    
C8    H13   S    
C11   H17   S    
H10   O4    S    
C9    C22   A    
C13   H16   S    
C8    C19   A    
N1    N2    D    
C7    O10   A    
O3    S1    D    
C15   C16   S    
O7    Zn2   S    
C3    C5    D    
C3    H2    S    
C8    C23   A    
O6    Zn1   S    
C12   C13   A    
C18   C19   A    
O11   Zn2   S    
C12   C18   A    
C7    C9    S    
N2    Zn1   S    
C14   C15   S    
C9    C23   A    
O10   Zn1   S    
C7    O11   A    
C6    O9    A    
C20   C21   A    
C18   C22   A    
C22   H14   S    
C16   H7    S    
C20   H12   S    
C17   C21   A    
H11   N2    S    
O2    S1    D    
C4    O7    A    
O4    S1    S    
C1    C3    S    
C2    C10   A    
