data_mof_unit_56478.cif
_audit_creation_date              2012-12-10T17:48:41-0500
_audit_creation_method            fapswitch 2.2
_symmetry_space_group_name_H-M    P1
_symmetry_Int_Tables_number       1
_space_group_crystal_system       triclinic
_cell_length_a                    15.73296
_cell_length_b                    10.666903
_cell_length_c                    9.942146
_cell_angle_alpha                 91.442472
_cell_angle_beta                  89.210389
_cell_angle_gamma                 93.771537
_cell_volume                      1664.24630698

loop_
_atom_site_label
_atom_site_type_symbol
_atom_type_description
_atom_site_fract_x
_atom_site_fract_y
_atom_site_fract_z
_atom_type_partial_charge
C1    C     C_R   0.508239 0.260996 0.499100 0.941913
C2    C     C_R   0.556835 0.074824 0.863065 0.410547
C3    C     C_R   0.512412 0.958864 0.876691 -0.177015
C4    C     C_R   0.338516 0.499874 0.500963 0.942734
C5    C     C_R   0.482722 0.891864 0.762808 -0.172995
C6    C     C_R   0.496284 0.940875 0.632211 0.057321
C7    C     C_R   0.527570 0.065893 0.621806 0.028650
C8    C     C_R   0.514406 0.126981 0.499528 -0.188447
C9    C     C_R   0.484830 0.059580 0.385521 -0.170375
C10   C     C_R   0.463169 0.933439 0.392023 0.363341
C11   C     C_R   0.477490 0.871418 0.511290 -0.200166
C12   C     C_3   0.945016 0.406817 0.621849 -0.200959
C13   C     C_R   0.358729 0.366293 0.127834 0.412232
C14   C     C_R   0.288083 0.330300 0.048543 -0.147022
C15   C     C_R   0.296403 0.323165 0.911003 -0.244832
C16   C     C_R   0.490405 0.738570 0.502774 0.902552
C17   C     C_R   0.372666 0.363250 0.851932 -0.115525
C18   C     C_R   0.436007 0.432709 0.925290 0.134983
C19   C     C_R   0.433394 0.432972 0.070085 0.082391
C20   C     C_R   0.562397 0.563905 0.070373 0.056175
C21   C     C_R   0.561561 0.563835 0.927878 -0.135322
C22   C     C_R   0.661508 0.499290 0.499079 0.886475
C23   C     C_3   0.916353 0.482695 0.499119 0.133232
C24   C     C_3   0.044538 0.407342 0.622375 0.185694
C25   C     C_3   0.048161 0.431042 0.364119 0.273855
C26   C     C_3   0.949804 0.428011 0.364007 -0.446528
C27   C     C_1   0.749975 0.492158 0.497053 -0.166971
C28   C     C_3   0.082447 0.485452 0.501816 0.019440
C29   C     C_R   0.895848 0.278960 0.640803 0.194701
C30   C     C_R   0.839164 0.263837 0.751256 -0.153703
C31   C     C_R   0.792255 0.149789 0.770843 -0.121702
C32   C     C_R   0.800026 0.049333 0.680031 -0.124111
C33   C     C_R   0.855992 0.062094 0.570546 -0.140765
C34   C     C_3   0.954880 0.620079 0.514465 -0.470346
C35   C     C_R   0.903811 0.175539 0.551196 -0.034247
C36   C     C_R   0.632420 0.638582 0.137007 0.140323
C37   C     C_R   0.622326 0.764008 0.176046 -0.113553
C38   C     C_R   0.690194 0.838109 0.231578 -0.143953
C39   C     C_R   0.769739 0.788790 0.243307 -0.116882
C40   C     C_R   0.781463 0.665899 0.198287 -0.139514
C41   C     C_R   0.713197 0.590811 0.144931 -0.131142
C42   C     C_3   0.053110 0.622018 0.521169 0.118311
C43   C     C_1   0.824938 0.486205 0.496736 -0.045609
C44   C     C_1   0.174196 0.490084 0.503011 0.105627
C45   C     C_1   0.249599 0.494988 0.502717 -0.052646
C46   C     C_R   0.566258 0.127114 0.736040 -0.209824
Cl1   Cl    Cl    0.594413 0.159158 0.006610 -0.692976
Cl2   Cl    Cl    0.406774 0.860986 0.255225 -0.568935
Cl3   Cl    Cl    0.088015 0.256346 0.637775 -0.533447
Cl4   Cl    Cl    0.351333 0.272027 0.269270 -0.542068
Cl5   Cl    Cl    0.085763 0.280915 0.316384 -0.536554
Cl6   Cl    Cl    0.100961 0.729822 0.401361 -0.546204
H1    H     H_    0.066465 0.457508 0.716621 0.098341
H2    H     H_    0.380357 0.337442 0.748666 0.226595
H3    H     H_    0.611364 0.616695 0.873202 0.148529
H4    H     H_    0.072567 0.494219 0.282962 0.168262
H5    H     H_    0.920291 0.332928 0.341735 0.199432
H6    H     H_    0.930222 0.485660 0.279792 0.159088
H7    H     H_    0.073361 0.659862 0.621966 0.145749
H8    H     H_    0.929821 0.665596 0.607577 0.170826
H9    H     H_    0.830903 0.340428 0.822821 0.131535
H10   H     H_    0.749915 0.139304 0.856808 0.188626
H11   H     H_    0.763249 0.961324 0.695184 0.139371
H12   H     H_    0.928693 0.465301 0.711982 0.107747
H13   H     H_    0.863066 0.983494 0.501209 0.142226
H14   H     H_    0.948644 0.179760 0.468535 0.208420
H15   H     H_    0.562403 0.804823 0.161513 0.178204
H16   H     H_    0.681445 0.934293 0.263344 0.160814
H17   H     H_    0.822657 0.846412 0.284892 0.142453
H18   H     H_    0.843659 0.629507 0.203574 0.136895
H19   H     H_    0.723226 0.495957 0.109560 0.147077
H20   H     H_    0.934917 0.676155 0.428754 0.226922
H21   H     H_    0.473775 0.105636 0.292337 0.254246
H22   H     H_    0.602503 0.216481 0.728429 0.185776
H23   H     H_    0.500893 0.920248 0.975369 0.194710
H24   H     H_    0.445040 0.805250 0.779869 0.196603
H25   H     H_    0.230342 0.287045 0.092899 0.239307
H26   H     H_    0.245777 0.278017 0.850787 0.226258
N1    N     N_R   0.499210 0.498800 0.142780 -0.110970
N2    N     N_R   0.499180 0.498720 0.857170 -0.119257
O1    O     O_R   0.500000 0.316780 0.614690 -0.649037
O2    O     O_R   0.499990 0.316750 0.385360 -0.559485
O3    O     O_R   0.377150 0.500020 0.614720 -0.657017
O4    O     O_R   0.377140 0.499990 0.385380 -0.563194
O5    O     O_R   0.500010 0.683250 0.614640 -0.640265
O6    O     O_R   0.500000 0.683220 0.385310 -0.580923
O7    O     O_R   0.622860 0.500010 0.614620 -0.626401
O8    O     O_R   0.622850 0.499980 0.385280 -0.605931
Zn1   Zn    Zn3+2 0.500010 0.500020 0.653130 0.942843
Zn2   Zn    Zn3+2 0.499990 0.499980 0.346870 1.039463

loop_
_geom_bond_atom_site_label_1
_geom_bond_atom_site_label_2
_ccdc_geom_bond_type
C16   O6    A    
C12   C29   S    
C1    C8    S    
C34   C42   S    
C25   H4    S    
C33   H13   S    
C7    C8    A    
C2    C46   A    
C25   C28   S    
C12   C23   S    
C29   C30   A    
C40   H18   S    
C36   C37   A    
C30   C31   A    
C12   H12   S    
C14   H25   S    
C15   H26   S    
C1    O1    A    
C23   C43   S    
C18   C19   A    
C23   C26   S    
N2    Zn1   S    
N1    Zn2   S    
C8    C9    A    
C22   O8    A    
C3    H23   S    
C9    C10   A    
C41   H19   S    
O1    Zn1   S    
C13   C14   A    
C34   H8    S    
C31   H10   S    
C36   C41   A    
O4    Zn2   S    
C4    C45   S    
C38   C39   A    
O3    Zn1   S    
C13   C19   A    
C7    C46   A    
O6    Zn2   S    
C6    C11   A    
C21   H3    S    
O5    Zn1   S    
C35   H14   S    
C24   H1    S    
C28   C44   S    
C20   C36   S    
C25   Cl5   S    
C37   C38   A    
C11   C16   S    
C31   C32   A    
C4    O4    A    
C23   C34   S    
C17   C18   A    
C39   H17   S    
C22   O7    A    
C19   N1    A    
C26   H6    S    
C40   C41   A    
O8    Zn2   S    
C22   C27   S    
O7    Zn1   S    
C10   Cl2   S    
C16   O5    A    
C34   H20   S    
C46   H22   S    
C44   C45   T    
C24   Cl3   S    
C15   C17   A    
C12   C24   S    
C20   N1    A    
C9    H21   S    
C24   C28   S    
C32   H11   S    
C38   H16   S    
C3    C5    A    
C42   H7    S    
C6    C7    A    
C2    Cl1   S    
C29   C35   A    
O2    Zn2   S    
C32   C33   A    
C5    H24   S    
C2    C3    A    
C25   C26   S    
C1    O2    A    
C5    C6    A    
C4    O3    A    
C37   H15   S    
C21   N2    A    
C28   C42   S    
C33   C35   A    
C26   H5    S    
C10   C11   A    
C13   Cl4   S    
C39   C40   A    
C27   C43   T    
C20   C21   A    
C18   N2    A    
C30   H9    S    
C14   C15   A    
C17   H2    S    
C42   Cl6   S    
