data_mof_unit_56105.cif
_audit_creation_date              2012-12-10T18:12:41-0500
_audit_creation_method            fapswitch 2.2
_symmetry_space_group_name_H-M    P1
_symmetry_Int_Tables_number       1
_space_group_crystal_system       triclinic
_cell_length_a                    12.670094
_cell_length_b                    13.069258
_cell_length_c                    15.727439
_cell_angle_alpha                 91.826754
_cell_angle_beta                  102.075787
_cell_angle_gamma                 83.509227
_cell_volume                      2530.24362956

loop_
_atom_site_label
_atom_site_type_symbol
_atom_type_description
_atom_site_fract_x
_atom_site_fract_y
_atom_site_fract_z
_atom_type_partial_charge
C1    C     C_R   0.440506 0.690685 0.484752 0.873967
C2    C     C_R   0.593131 0.197928 0.498976 -0.278601
C3    C     C_R   0.297637 0.837863 0.463520 -0.185058
C4    C     C_R   0.500728 0.500548 0.661715 0.894700
C5    C     C_R   0.261153 0.938958 0.439117 -0.179733
C6    C     C_R   0.334311 0.004288 0.421755 0.057187
C7    C     C_R   0.446499 0.968272 0.436954 0.067612
C8    C     C_R   0.476170 0.862328 0.437993 0.019611
C9    C     C_R   0.530694 0.032822 0.452916 0.033456
C10   C     C_R   0.635142 0.995648 0.437121 -0.106797
C11   C     C_R   0.650227 0.893189 0.405137 -0.041527
C12   C     C_3   0.506789 0.499072 0.917714 0.013152
C13   C     C_R   0.573685 0.825877 0.412009 -0.148760
C14   C     C_R   0.516184 0.127948 0.495045 0.415434
C15   C     C_R   0.695052 0.163778 0.481334 -0.190587
C16   C     C_R   0.559692 0.308074 0.508398 0.898506
C17   C     C_R   0.404587 0.797820 0.461082 -0.104414
C18   C     C_R   0.086056 0.351504 0.370270 -0.170460
C19   C     C_R   0.806669 0.623323 0.610575 0.020320
C20   C     C_R   0.917375 0.631173 0.645736 -0.173417
C21   C     C_R   0.993898 0.575068 0.606029 -0.142774
C22   C     C_R   0.963076 0.519374 0.528536 0.036601
C23   C     C_3   0.403943 0.482258 0.010837 -0.280501
C24   C     C_R   0.852908 0.502177 0.503333 0.212160
C25   C     C_R   0.039495 0.474414 0.479600 -0.018035
C26   C     C_R   0.007173 0.402140 0.412496 0.008450
C27   C     C_R   0.897665 0.381161 0.390794 -0.060499
C28   C     C_R   0.499398 0.499424 0.338328 0.879176
C29   C     C_R   0.823476 0.429544 0.437781 -0.235882
C30   C     C_R   0.146922 0.501357 0.493454 0.504975
C31   C     C_R   0.193587 0.372099 0.394647 -0.000489
C32   C     C_3   0.528093 0.591718 0.035828 -0.133366
C33   C     C_3   0.603577 0.516841 0.991726 -0.137397
C34   C     C_3   0.502205 0.500321 0.084055 0.053237
C35   C     C_1   0.502965 0.500779 0.750936 -0.050202
C36   C     C_1   0.498384 0.498858 0.249350 -0.112284
C37   C     C_3   0.432007 0.572594 0.962042 0.413022
C38   C     C_2   0.715258 0.535258 0.982425 0.983607
C39   C     C_2   0.291012 0.099432 0.371807 0.962356
C40   C     C_2   0.855494 0.313601 0.316542 0.939341
C41   C     C_2   0.723585 0.692096 0.643548 1.035615
C42   C     C_2   0.552894 0.695509 0.073101 0.972951
C43   C     C_2   0.957283 0.696381 0.723037 0.936822
C44   C     C_2   0.455533 0.304786 0.930211 0.955764
C45   C     C_3   0.481263 0.408390 0.966980 -0.058778
C46   C     C_2   0.739813 0.854872 0.360838 0.921186
C47   C     C_3   0.579112 0.424795 0.041694 -0.227028
C48   C     C_1   0.505032 0.500416 0.826516 0.162144
C49   C     C_1   0.499487 0.499120 0.174323 0.082707
C50   C     C_R   0.719576 0.061581 0.457110 0.522899
H1    H     H_    0.240642 0.789672 0.479743 0.215049
H2    H     H_    0.757379 0.215649 0.489155 0.209933
H3    H     H_    0.816779 0.553053 0.902199 0.371507
H4    H     H_    0.450165 0.194692 0.586389 0.349326
H5    H     H_    0.313070 0.199591 0.283305 0.338490
H6    H     H_    0.847073 0.275476 0.190135 0.357859
H7    H     H_    0.248114 0.584518 0.563287 0.380768
H8    H     H_    0.632192 0.829599 0.633497 0.348376
H9    H     H_    0.574849 0.788632 0.178647 0.357376
H10   H     H_    0.081235 0.768343 0.791947 0.366956
H11   H     H_    0.434532 0.210428 0.825507 0.360367
H12   H     H_    0.175456 0.964952 0.431461 0.206343
H13   H     H_    0.318400 0.682413 0.962901 0.341889
H14   H     H_    0.836859 0.885418 0.280305 0.365932
H15   H     H_    0.842587 0.958694 0.482936 0.334600
H16   H     H_    0.587436 0.746595 0.391381 0.198834
H17   H     H_    0.254420 0.333141 0.362855 0.168477
H18   H     H_    0.066499 0.294501 0.319999 0.228958
H19   H     H_    0.077735 0.572336 0.639107 0.229734
H20   H     H_    0.742682 0.408590 0.421836 0.216597
H21   H     H_    0.639598 0.363703 0.076107 0.188273
H22   H     H_    0.321856 0.469038 0.019598 0.180275
N1    N     N_R   0.222180 0.444680 0.455580 -0.158423
N2    N     N_R   0.776980 0.554790 0.543960 -0.162610
O1    O     O_R   0.366730 0.627160 0.478790 -0.617426
O2    O     O_R   0.738885 0.539866 0.899847 -0.757201
O3    O     O_3   0.429278 0.148369 0.535955 -0.756424
O4    O     O_2   0.197070 0.135686 0.368228 -0.652917
O5    O     O_R   0.354969 0.142689 0.322954 -0.798965
O6    O     O_2   0.792642 0.251955 0.324815 -0.600845
O7    O     O_R   0.882760 0.324284 0.235838 -0.779595
O8    O     O_3   0.170969 0.592433 0.535112 -0.777353
O9    O     O_2   0.693844 0.669734 0.708998 -0.553349
O10   O     O_R   0.687068 0.787538 0.604280 -0.807580
O11   O     O_2   0.569728 0.761561 0.025802 -0.554658
O12   O     O_R   0.544830 0.662520 0.507160 -0.613448
O13   O     O_R   0.557007 0.716171 0.161383 -0.800236
O14   O     O_2   0.899910 0.723799 0.774937 -0.580356
O15   O     O_R   0.062755 0.725048 0.737310 -0.763761
O16   O     O_2   0.437086 0.239735 0.977680 -0.579720
O17   O     O_R   0.452776 0.282879 0.842302 -0.812565
O18   O     O_3   0.356095 0.649373 0.918239 -0.710504
O19   O     O_2   0.779182 0.764904 0.368504 -0.602366
O20   O     O_R   0.776399 0.920680 0.307557 -0.723104
O21   O     O_3   0.827073 0.028938 0.458332 -0.696199
O22   O     O_R   0.410960 0.482330 0.609040 -0.645427
O23   O     O_R   0.589060 0.517690 0.637410 -0.578319
O24   O     O_R   0.455170 0.337480 0.492840 -0.579451
O25   O     O_R   0.633270 0.372840 0.521210 -0.639627
O26   O     O_R   0.410940 0.482310 0.362590 -0.613056
O27   O     O_R   0.589040 0.517670 0.390960 -0.629209
O28   O     O_2   0.785203 0.546314 0.047480 -0.575240
Zn1   Zn    Zn3+2 0.381080 0.476390 0.481050 0.981033
Zn2   Zn    Zn3+2 0.618920 0.523610 0.518950 0.982614

loop_
_geom_bond_atom_site_label_1
_geom_bond_atom_site_label_2
_ccdc_geom_bond_type
C8    C13   A    
C23   C45   S    
C27   C29   A    
C19   C20   A    
C18   C26   A    
C12   C48   S    
O12   Zn2   S    
C7    C8    A    
C38   O2    S    
H10   O15   S    
C31   H17   S    
C26   C27   A    
C43   O15   S    
C43   O14   D    
C5    C6    A    
C50   O21   S    
C31   N1    A    
C18   H18   S    
O24   Zn1   S    
C41   O9    D    
C25   C30   A    
C15   C50   A    
C12   C37   S    
C24   C29   A    
C4    O22   A    
C28   O27   A    
C22   C25   A    
H13   O18   S    
C40   O6    D    
C2    C16   S    
C9    C10   A    
H4    O3    S    
C28   O26   A    
O25   Zn2   S    
C4    C35   S    
C4    O23   A    
O1    Zn1   S    
C35   C48   T    
C23   H22   S    
C18   C31   A    
C13   H16   S    
C45   C47   S    
C1    O1    A    
C39   O4    D    
H6    O7    S    
C14   O3    S    
C30   N1    A    
C3    H1    S    
C25   C26   A    
C23   C37   S    
C41   O10   S    
O26   Zn1   S    
C21   H19   S    
C32   C34   S    
C30   O8    S    
C9    C14   A    
H8    O10   S    
H5    O5    S    
C46   O20   S    
H15   O21   S    
C27   C40   S    
C23   C34   S    
C42   O11   D    
C32   C37   S    
C2    C15   A    
C47   H21   S    
C44   O17   S    
O27   Zn2   S    
C33   C47   S    
C22   C24   A    
H3    O2    S    
C10   C50   A    
C20   C43   S    
C44   O16   D    
C44   C45   S    
N2    Zn2   S    
C29   H20   S    
C1    O12   A    
C7    C9    A    
C34   C49   S    
C37   O18   S    
H7    O8    S    
C40   O7    S    
C19   N2    A    
C8    C17   A    
C12   C45   S    
C3    C5    A    
C16   O25   A    
C6    C7    A    
C42   O13   S    
C1    C17   S    
C33   C38   S    
C32   C33   S    
C15   H2    S    
H14   O20   S    
C38   O28   D    
C11   C13   A    
C24   N2    A    
C46   O19   D    
C5    H12   S    
C3    C17   A    
C2    C14   A    
H9    O13   S    
O23   Zn2   S    
C10   C11   A    
C16   O24   A    
H11   O17   S    
N1    Zn1   S    
C20   C21   A    
C28   C36   S    
O22   Zn1   S    
C32   C42   S    
C6    C39   S    
C11   C46   S    
C34   C47   S    
C12   C33   S    
C21   C22   A    
C36   C49   T    
C19   C41   S    
C39   O5    S    
