data_mof_unit_67207.cif
_audit_creation_date              2013-03-05T16:01:23-0500
_audit_creation_method            fapswitch 2.2
_symmetry_space_group_name_H-M    P1
_symmetry_Int_Tables_number       1
_space_group_crystal_system       triclinic
_cell_length_a                    21.063195
_cell_length_b                    21.102416
_cell_length_c                    8.607086
_cell_angle_alpha                 89.98514
_cell_angle_beta                  93.167508
_cell_angle_gamma                 90.041231
_cell_volume                      3819.86884283

loop_
_atom_site_label
_atom_site_type_symbol
_atom_site_description
_atom_site_fract_x
_atom_site_fract_y
_atom_site_fract_z
_atom_type_partial_charge
P1    P     P_3+3 0.136530 0.426510 0.931350 0.461729
P2    P     P_3+3 0.136530 0.573490 0.431350 0.453590
P3    P     P_3+3 0.636530 0.926510 0.931350 0.453795
P4    P     P_3+3 0.636530 0.073490 0.431350 0.461581
O1    O     O_2   0.130070 0.404060 0.104920 -0.364009
O2    O     O_2   0.130070 0.595940 0.604920 -0.370696
O3    O     O_2   0.630070 0.904060 0.104920 -0.370634
O4    O     O_2   0.630070 0.095940 0.604920 -0.364041
O5    O     O_3   0.075780 0.466370 0.861070 -0.428193
O6    O     O_3   0.075780 0.533630 0.361070 -0.427751
O7    O     O_3   0.575780 0.966370 0.861070 -0.427742
O8    O     O_3   0.575780 0.033630 0.361070 -0.428205
O9    O     O_3   0.022320 0.344950 0.359800 -0.410644
O10   O     O_3   0.022320 0.655050 0.859800 -0.416247
O11   O     O_3   0.522320 0.844950 0.359800 -0.416298
O12   O     O_3   0.522320 0.155050 0.859800 -0.410672
O13   O     O_2   0.126857 0.296390 0.268919 -0.307465
O14   O     O_2   0.127902 0.705870 0.781829 -0.318588
O15   O     O_2   0.627825 0.794176 0.281710 -0.318553
O16   O     O_2   0.626904 0.203642 0.768881 -0.307456
O17   O     O_3   0.198947 0.481226 0.953710 -0.551114
O18   O     O_3   0.200571 0.520829 0.451994 -0.553468
O19   O     O_3   0.700572 0.979258 0.952002 -0.553238
O20   O     O_3   0.698941 0.018855 0.453711 -0.551338
O21   O     O_3   0.037250 0.215218 0.333688 -0.468272
O22   O     O_3   0.037171 0.786788 0.840808 -0.470778
O23   O     O_3   0.537019 0.713231 0.340777 -0.470737
O24   O     O_3   0.537378 0.284798 0.833574 -0.468292
C1    C     C_3   0.969773 0.135573 0.443341 -0.555842
C2    C     C_3   0.956762 0.861877 0.908947 -0.546381
C3    C     C_3   0.456584 0.638073 0.409096 -0.546463
C4    C     C_3   0.469895 0.364380 0.943057 -0.555904
H1    H     H_    0.976894 0.108625 0.335627 0.261544
H2    H     H_    0.958419 0.881672 0.791834 0.244992
H3    H     H_    0.458156 0.618308 0.291952 0.244929
H4    H     H_    0.477066 0.391339 0.835353 0.261574
H5    H     H_    0.004721 0.117856 0.532716 0.256754
H6    H     H_    0.990767 0.890629 0.979845 0.270787
H7    H     H_    0.490607 0.609326 0.479890 0.270804
H8    H     H_    0.504811 0.382136 0.032475 0.256798
P5    P     P_3+3 0.863410 0.426100 0.379280 0.511143
P6    P     P_3+3 0.863410 0.573900 0.879280 0.514333
P7    P     P_3+3 0.363410 0.926100 0.379280 0.514250
P8    P     P_3+3 0.363410 0.073900 0.879280 0.511185
P9    P     P_3+3 0.920068 0.284258 0.901978 0.459159
P10   P     P_3+3 0.922309 0.717398 0.396028 0.440161
P11   P     P_3+3 0.422326 0.782541 0.896063 0.440158
P12   P     P_3+3 0.420069 0.215682 0.401873 0.459092
O25   O     O_2   0.869860 0.403670 0.205810 -0.365260
O26   O     O_2   0.869860 0.596330 0.705810 -0.335704
O27   O     O_2   0.369860 0.903670 0.205810 -0.335835
O28   O     O_2   0.369860 0.096330 0.705810 -0.365178
O29   O     O_3   0.977590 0.344880 0.951200 -0.315340
O30   O     O_3   0.977590 0.655120 0.451200 -0.321294
O31   O     O_3   0.477590 0.844880 0.951200 -0.321238
O32   O     O_3   0.477590 0.155120 0.451200 -0.315353
O33   O     O_2   0.863067 0.305039 0.996468 -0.355896
O34   O     O_2   0.865852 0.697332 0.491365 -0.347813
O35   O     O_2   0.365885 0.802525 0.991424 -0.347996
O36   O     O_2   0.363049 0.194829 0.496330 -0.355787
O37   O     O_3   0.794669 0.473600 0.379568 -0.586312
O38   O     O_3   0.791933 0.530808 0.875762 -0.586212
O39   O     O_3   0.291933 0.969090 0.375758 -0.586286
O40   O     O_3   0.294623 0.026367 0.879510 -0.586252
O41   O     O_3   0.938475 0.213647 0.000295 -0.562208
O42   O     O_3   0.936737 0.789297 0.494497 -0.572320
O43   O     O_3   0.436758 0.710647 0.994599 -0.572163
O44   O     O_3   0.438472 0.286306 0.500133 -0.562408
C5    C     C_3   0.982850 0.178258 0.922338 0.462620
C6    C     C_3   0.981040 0.826335 0.420657 0.464317
C7    C     C_3   0.481016 0.673632 0.920733 0.464423
C8    C     C_3   0.482897 0.321719 0.422213 0.462647
H9    H     H_    0.971660 0.176872 0.794738 -0.001447
H10   H     H_    0.973866 0.823796 0.291902 0.020067
H11   H     H_    0.473818 0.676168 0.791981 0.019978
H12   H     H_    0.471725 0.323118 0.294605 -0.001372
C9    C     C_3   0.984769 0.110410 0.988371 0.113646
C10   C     C_3   0.976259 0.896199 0.474532 0.102984
C11   C     C_3   0.476201 0.603762 0.974701 0.102936
C12   C     C_3   0.484866 0.389560 0.488216 0.113629
H13   H     H_    0.017208 0.107843 0.094019 0.177073
H14   H     H_    0.011022 0.906314 0.572821 0.173155
H15   H     H_    0.510904 0.593704 0.073137 0.173197
H16   H     H_    0.517331 0.392141 0.593814 0.177021
C13   C     C_3   0.790359 0.478867 0.774822 0.365229
C14   C     C_3   0.787590 0.516755 0.257568 0.412986
C15   C     C_3   0.287559 0.983192 0.757575 0.413054
C16   C     C_3   0.290365 0.021033 0.274774 0.365245
H17   H     H_    0.784869 0.494994 0.652974 0.140388
H18   H     H_    0.790417 0.492895 0.144049 0.102260
H19   H     H_    0.290432 0.007040 0.644018 0.102213
H20   H     H_    0.284827 0.004903 0.152948 0.140368
C17   C     C_3   0.733701 0.437681 0.815311 0.132002
C18   C     C_3   0.722731 0.551787 0.269677 0.093541
C19   C     C_3   0.222667 0.948126 0.769614 0.093496
C20   C     C_3   0.233748 0.062178 0.315318 0.131969
H21   H     H_    0.730522 0.438767 0.942899 0.151973
H22   H     H_    0.704615 0.544648 0.386771 0.194558
H23   H     H_    0.204585 0.955162 0.886759 0.194532
H24   H     H_    0.230569 0.061099 0.442910 0.151936
Ba1   Ba    Ba6+2 0.999980 0.452130 0.155200 1.615115
Ba2   Ba    Ba6+2 0.999980 0.547870 0.655200 1.616185
Ba3   Ba    Ba6+2 0.499980 0.952130 0.155200 1.616194
Ba4   Ba    Ba6+2 0.499980 0.047870 0.655200 1.615109
C21   C     C_3   0.173050 0.541114 0.983486 0.455161
C22   C     C_3   0.176787 0.460150 0.482166 0.451364
C23   C     C_3   0.676779 0.039892 0.982221 0.451683
C24   C     C_3   0.673046 0.958918 0.483372 0.454832
H25   H     H_    0.147475 0.539618 0.092596 0.071998
H26   H     H_    0.151197 0.460617 0.591397 0.071556
H27   H     H_    0.651177 0.039351 0.091439 0.071572
H28   H     H_    0.647474 0.960327 0.592485 0.071952
H29   H     H_    0.140675 0.557174 0.885351 0.142746
H30   H     H_    0.144813 0.443186 0.384153 0.138144
H31   H     H_    0.644815 0.056845 0.884205 0.138139
H32   H     H_    0.640667 0.942862 0.385214 0.142796
C25   C     C_3   0.225797 0.589616 0.999384 -0.965070
C26   C     C_3   0.231570 0.413880 0.498784 -0.960973
C27   C     C_3   0.731546 0.086247 0.998892 -0.961500
C28   C     C_3   0.725805 0.910497 0.499198 -0.964498
H33   H     H_    0.252551 0.583016 0.112838 0.273381
H34   H     H_    0.258136 0.421855 0.611989 0.275667
H35   H     H_    0.758074 0.078320 0.112159 0.275665
H36   H     H_    0.752564 0.917105 0.612648 0.273343
H37   H     H_    0.206465 0.638312 0.994483 0.224624
H38   H     H_    0.214110 0.364403 0.494531 0.221318
H39   H     H_    0.714080 0.135696 0.994524 0.221342
H40   H     H_    0.706483 0.861771 0.494267 0.224618
H41   H     H_    0.256976 0.584326 0.900558 0.293813
H42   H     H_    0.262951 0.420519 0.400697 0.292320
H43   H     H_    0.762953 0.079652 0.900871 0.292347
H44   H     H_    0.756989 0.915872 0.400378 0.293833
O45   O     O_3   0.924190 0.533610 0.949240 -0.369623
O46   O     O_3   0.924190 0.466390 0.449240 -0.356736
O47   O     O_3   0.424190 0.033610 0.949240 -0.356704
O48   O     O_3   0.424190 0.966390 0.449240 -0.369692
P13   P     P_3+3 0.075653 0.715706 0.899351 0.498081
P14   P     P_3+3 0.077357 0.285560 0.392692 0.510006
P15   P     P_3+3 0.577411 0.214462 0.892630 0.510036
P16   P     P_3+3 0.575597 0.784308 0.399319 0.498089
C29   C     C_3   0.981318 0.206987 0.416457 0.449174
C30   C     C_3   0.976716 0.791468 0.905113 0.451292
C31   C     C_3   0.476580 0.708500 0.405195 0.451348
C32   C     C_3   0.481427 0.292978 0.916251 0.449215
H45   H     H_    0.986241 0.229066 0.533754 0.037248
H46   H     H_    0.979166 0.774435 0.027355 0.047428
H47   H     H_    0.479072 0.725527 0.527426 0.047350
H48   H     H_    0.486321 0.270906 0.033575 0.037378
C33   C     C_R   0.251381 0.311585 0.976201 -0.140106
C34   C     C_R   0.245261 0.692226 0.484205 -0.137468
C35   C     C_R   0.745312 0.807752 0.984170 -0.137481
C36   C     C_R   0.751335 0.188399 0.476218 -0.140090
C37   C     C_R   0.154807 0.351278 0.816667 0.264218
C38   C     C_R   0.150688 0.649699 0.322383 0.275017
C39   C     C_R   0.650722 0.850282 0.822401 0.274742
C40   C     C_R   0.654789 0.148711 0.316602 0.264413
C41   C     C_R   0.114702 0.341358 0.682926 -0.486083
C42   C     C_R   0.110612 0.658214 0.188198 -0.486907
C43   C     C_R   0.610639 0.841742 0.688219 -0.486891
C44   C     C_R   0.614700 0.158608 0.182841 -0.486124
C45   C     C_R   0.119235 0.287367 0.590715 0.127909
C46   C     C_R   0.112907 0.713154 0.099921 0.125722
C47   C     C_R   0.612935 0.786844 0.599847 0.125691
C48   C     C_R   0.619259 0.212632 0.090673 0.128022
C49   C     C_R   0.158257 0.237112 0.643937 0.162431
C50   C     C_R   0.148520 0.764120 0.157754 0.177762
C51   C     C_R   0.648556 0.735898 0.657581 0.177844
C52   C     C_R   0.658282 0.262914 0.143983 0.162375
C53   C     C_R   0.204465 0.245452 0.770746 -0.052190
C54   C     C_R   0.198617 0.755157 0.274244 -0.060626
C55   C     C_R   0.698645 0.744859 0.774127 -0.060678
C56   C     C_R   0.704476 0.254574 0.270796 -0.052083
C57   C     C_R   0.204741 0.304459 0.853336 -0.037487
C58   C     C_R   0.198812 0.697816 0.361081 -0.045871
C59   C     C_R   0.698854 0.802185 0.861031 -0.045664
C60   C     C_R   0.704725 0.195547 0.353324 -0.037710
H49   H     H_    0.080054 0.377074 0.647282 0.161380
H50   H     H_    0.077909 0.621178 0.149530 0.162965
H51   H     H_    0.577918 0.878735 0.649625 0.162855
H52   H     H_    0.580051 0.122856 0.147157 0.161497
C61   C     C_R   0.797426 0.704160 0.923455 -0.111788
C62   C     C_R   0.800018 0.294623 0.428992 -0.105152
C63   C     C_R   0.300024 0.205397 0.928841 -0.105076
C64   C     C_R   0.297436 0.795842 0.423505 -0.111892
C65   C     C_R   0.792548 0.759841 0.019310 0.076903
C66   C     C_R   0.798493 0.236111 0.514521 0.089142
C67   C     C_R   0.298527 0.263888 0.014422 0.089201
C68   C     C_R   0.292521 0.740148 0.519370 0.076747
C69   C     C_R   0.850336 0.658931 0.961794 0.282598
C70   C     C_R   0.851327 0.341212 0.467916 0.262502
C71   C     C_R   0.351318 0.158819 0.967765 0.262608
C72   C     C_R   0.350359 0.841085 0.461858 0.282753
C73   C     C_R   0.896258 0.677597 0.078984 -0.458365
C74   C     C_R   0.898365 0.321881 0.581702 -0.444886
C75   C     C_R   0.398362 0.178178 0.081542 -0.445130
C76   C     C_R   0.396271 0.822458 0.579082 -0.458155
C77   C     C_R   0.882909 0.723279 0.191445 0.186589
C78   C     C_R   0.885677 0.275227 0.692922 0.180276
C79   C     C_R   0.385691 0.224773 0.192807 0.180474
C80   C     C_R   0.382908 0.776717 0.691501 0.186393
C81   C     C_R   0.832333 0.765976 0.157352 -0.044661
C82   C     C_R   0.837863 0.229805 0.653251 -0.049757
C83   C     C_R   0.337905 0.270175 0.153161 -0.049639
C84   C     C_R   0.332302 0.734000 0.657400 -0.044694
C85   C     C_R   0.748391 0.698581 0.799869 0.274114
C86   C     C_R   0.745600 0.305505 0.326422 0.272506
C87   C     C_R   0.245583 0.194527 0.826278 0.272527
C88   C     C_R   0.248411 0.801427 0.299904 0.274181
H53   H     H_    0.937952 0.648235 0.100585 0.166516
H54   H     H_    0.940101 0.351266 0.602347 0.165208
H55   H     H_    0.440097 0.148845 0.102147 0.165179
H56   H     H_    0.437964 0.851873 0.600724 0.166558
H57   H     H_    0.250880 0.354880 0.043398 0.170665
H58   H     H_    0.244475 0.649769 0.554436 0.173536
H59   H     H_    0.744544 0.850182 0.054450 0.173465
H60   H     H_    0.750809 0.145077 0.543357 0.170729
N1    N     N_3   0.926504 0.235121 0.329705 -0.217848
H61   H     H_    0.904247 0.202403 0.254156 0.174393
H62   H     H_    0.940626 0.273235 0.262738 0.224790
N2    N     N_3   0.929198 0.753817 0.814081 -0.207575
H63   H     H_    0.895370 0.781819 0.753413 0.156226
H64   H     H_    0.950658 0.726212 0.731710 0.248100
N3    N     N_3   0.429058 0.746116 0.314208 -0.207709
H65   H     H_    0.395263 0.718078 0.253419 0.156205
H66   H     H_    0.450520 0.773805 0.231908 0.248046
N4    N     N_3   0.426622 0.264785 0.829465 -0.217771
H67   H     H_    0.404321 0.297499 0.754031 0.174348
H68   H     H_    0.440753 0.226741 0.762400 0.224964
I1    I     I_    0.648474 0.475933 0.709163 -0.138368
I2    I     I_    0.649028 0.520697 0.115309 -0.184261
I3    I     I_    0.148923 0.979313 0.615548 -0.184387
I4    I     I_    0.148506 0.023918 0.209151 -0.138282
I5    I     I_    0.736768 0.337935 0.766145 -0.278032
I6    I     I_    0.716020 0.650092 0.216043 -0.242117
I7    I     I_    0.215919 0.849862 0.715657 -0.242071
I8    I     I_    0.236855 0.161894 0.265941 -0.278013
N5    N     N_3   0.906395 0.123091 0.497198 -0.221141
H69   H     H_    0.907032 0.078583 0.550584 0.217435
H70   H     H_    0.874211 0.119112 0.400870 0.173254
N6    N     N_3   0.893794 0.870107 0.969331 -0.219859
H71   H     H_    0.890548 0.916364 0.011747 0.217876
H72   H     H_    0.859585 0.867170 0.876921 0.160645
N7    N     N_3   0.393645 0.629781 0.469681 -0.219791
H73   H     H_    0.390366 0.583475 0.511872 0.217917
H74   H     H_    0.359387 0.632806 0.377385 0.160407
N8    N     N_3   0.406503 0.376794 0.996776 -0.221196
H75   H     H_    0.407157 0.421246 0.050360 0.217319
H76   H     H_    0.374374 0.380852 0.900398 0.173424
I9    I     I_    0.015779 0.042828 0.827287 -0.276672
I10   I     I_    0.992159 0.962121 0.297042 -0.290380
I11   I     I_    0.492220 0.537835 0.797421 -0.290146
I12   I     I_    0.515862 0.457188 0.327052 -0.276628
I13   I     I_    0.131939 0.148650 0.544756 -0.264233
I14   I     I_    0.099674 0.852160 0.127650 -0.278140
I15   I     I_    0.599606 0.647856 0.627434 -0.277738
I16   I     I_    0.631932 0.351386 0.045068 -0.264853
N9    N     N_3   0.819662 0.815839 0.263952 -0.204093
H77   H     H_    0.859652 0.844893 0.273753 0.153179
H78   H     H_    0.810510 0.796628 0.372266 0.200965
N10   N     N_3   0.824422 0.179972 0.759485 -0.204422
H79   H     H_    0.864576 0.151509 0.773884 0.148094
H80   H     H_    0.813577 0.199376 0.866426 0.196044
N11   N     N_3   0.324505 0.319973 0.259417 -0.204346
H81   H     H_    0.364670 0.348479 0.273739 0.148120
H82   H     H_    0.313674 0.300540 0.366381 0.196131
N12   N     N_3   0.319595 0.684103 0.763990 -0.204176
H83   H     H_    0.359574 0.655091 0.773853 0.153111
H84   H     H_    0.310433 0.703287 0.872286 0.200894
I17   I     I_    0.751894 0.633680 0.616727 -0.225860
I18   I     I_    0.695215 0.386344 0.390072 -0.259028
I19   I     I_    0.195185 0.113594 0.889790 -0.258592
I20   I     I_    0.251988 0.866165 0.116327 -0.226245
I21   I     I_    0.071955 0.221355 0.972226 -0.199299
I22   I     I_    0.071437 0.790119 0.497105 -0.193618
I23   I     I_    0.571476 0.709848 0.997070 -0.193593
I24   I     I_    0.571934 0.278602 0.472154 -0.199211
I25   I     I_    0.894556 0.076039 0.050692 -0.427657
I26   I     I_    0.885725 0.926448 0.543223 -0.437704
I27   I     I_    0.385635 0.573381 0.043159 -0.437421
I28   I     I_    0.394674 0.423858 0.550561 -0.427913
I29   I     I_    0.873334 0.427357 0.803661 -0.165841
I30   I     I_    0.863105 0.575828 0.304575 -0.157545
I31   I     I_    0.363032 0.924125 0.804728 -0.157555
I32   I     I_    0.373393 0.072582 0.303362 -0.165887

loop_
_geom_bond_atom_site_label_1
_geom_bond_atom_site_label_2
_geom_bond_distance
_ccdc_geom_bond_type
C7    H11   1.111452 S    
C16   C20   1.531474 S    
P1    O17   1.751759 S    
Ba1   Ba2   4.754659 S    
C6    I22   2.122696 S    
Ba4   O47   3.080498 S    
C41   C45   1.395025 A    
O39   C16   1.398015 S    
C6    C10   1.550627 S    
C44   C48   1.395003 A    
C63   C87   1.426419 A    
C30   H46   1.110270 S    
C5    C9    1.540025 S    
N3    H65   1.043520 S    
O23   C31   1.419790 S    
P5    O37   1.761724 S    
C32   H48   1.111598 S    
O22   P13   1.765532 S    
P7    O27   1.579441 D    
C27   H35   1.109274 S    
C7    C11   1.550680 S    
P8    Ba4   3.593368 S    
P7    O39   1.757111 S    
N11   H81   1.039502 S    
C74   C78   1.408720 A    
Ba1   O46   3.080851 S    
P8    O40   1.761704 S    
P16   C47   1.857502 S    
C54   C88   1.440564 A    
C36   H60   1.081785 S    
C63   C67   1.438812 A    
P9    O33   1.550499 D    
P5    C70   1.968710 S    
C22   H30   1.109242 S    
P6    O45   1.624971 S    
P1    O1    1.580122 D    
N3    H66   1.040358 S    
C72   C76   1.414277 A    
O16   P15   1.548082 D    
C3    N7    1.461510 S    
P15   C48   1.875636 S    
C19   I3    2.092290 S    
P10   O42   1.756202 S    
P3    O3    1.580122 D    
C24   C28   1.510772 S    
P8    C71   1.969497 S    
O25   Ba1   2.979067 S    
P13   C46   1.857190 S    
P4    O20   1.751717 S    
C83   N11   1.431719 S    
O10   Ba2   2.889132 S    
O43   C7    1.396483 S    
C1    H5    1.100487 S    
P2    Ba2   3.589772 S    
O27   Ba3   2.979067 S    
N7    H73   1.045928 S    
C52   I16   2.113503 S    
C67   C83   1.421963 A    
C17   I1    2.128217 S    
C66   C82   1.421903 A    
P12   O32   1.796261 S    
N9    H77   1.041129 S    
C62   C66   1.438628 A    
C1    N5    1.460872 S    
P7    O48   1.624170 S    
Ba3   O47   2.887384 S    
C2    C30   1.545255 S    
P5    O46   1.624170 S    
C25   H33   1.108950 S    
C14   C18   1.562343 S    
C29   N1    1.465770 S    
C46   C50   1.387446 A    
P3    O19   1.749757 S    
O12   Ba4   2.889132 S    
C87   I19   2.098477 S    
O37   C14   1.391617 S    
C16   H20   1.102528 S    
C1    H1    1.105072 S    
O29   Ba1   2.887327 S    
O5    Ba2   2.887295 S    
N7    H74   1.045239 S    
C15   C19   1.562264 S    
C6    H10   1.111456 S    
C7    I23   2.122759 S    
C42   H50   1.081707 S    
C64   C72   1.490331 A    
C37   C41   1.405308 A    
C5    H9    1.110853 S    
O13   P14   1.548072 D    
O20   C24   1.405947 S    
C9    H13   1.108161 S    
C55   C85   1.440978 A    
C25   H41   1.108691 S    
P6    O38   1.757122 S    
O40   C15   1.391678 S    
C49   I13   2.113732 S    
C8    I24   2.107836 S    
P4    O4    1.580413 D    
C24   H28   1.108567 S    
P8    O28   1.579150 D    
P8    O47   1.624971 S    
O2    Ba2   2.975114 S    
P9    O29   1.795911 S    
P2    C38   1.893220 S    
O3    Ba3   2.976535 S    
N5    H69   1.045250 S    
C22   C26   1.512827 S    
C79   C83   1.417993 A    
C21   C25   1.510730 S    
P2    O2    1.580413 D    
O24   P15   1.768165 S    
C19   I7    2.128051 S    
O19   C23   1.404102 S    
P6    Ba2   3.593368 S    
P11   O43   1.756391 S    
N2    H63   1.043495 S    
C34   H58   1.081297 S    
P12   O36   1.550480 D    
C70   C74   1.414324 A    
C75   C79   1.408648 A    
C49   C53   1.432487 A    
C16   I32   2.062086 S    
O38   C13   1.398066 S    
N8    H76   1.044718 S    
C20   I8    2.148295 S    
C35   C59   1.407119 A    
C15   H19   1.103840 S    
C2    H2    1.093353 S    
P12   C79   1.911857 S    
C9    I25   2.129532 S    
C12   H16   1.108126 S    
C11   I27   2.125886 S    
C48   C52   1.403309 A    
C20   I4    2.127803 S    
P1    O5    1.620658 S    
O32   Ba4   2.887145 S    
O8    Ba3   2.886476 S    
N10   H80   1.044346 S    
C14   H18   1.103842 S    
C43   H51   1.081706 S    
C76   C80   1.405834 A    
C61   C69   1.490827 A    
C13   H17   1.102519 S    
O28   Ba4   2.980502 S    
C18   I6    2.128199 S    
P10   C77   1.908751 S    
C11   I11   2.106242 S    
C71   C75   1.414269 A    
C88   I20   2.092962 S    
P9    C78   1.911721 S    
O18   C22   1.404030 S    
C39   C43   1.404015 A    
C27   H43   1.109348 S    
C68   C84   1.421422 A    
O11   Ba3   2.888947 S    
C64   C68   1.442763 A    
C63   C71   1.485621 A    
O44   C8    1.397123 S    
N9    H78   1.044120 S    
C15   I31   2.043732 S    
C23   H31   1.109240 S    
O14   P13   1.549481 D    
C61   C85   1.445877 A    
Ba3   O48   3.080851 S    
Ba2   O46   2.886565 S    
C26   H34   1.109283 S    
C75   H55   1.082084 S    
C26   H42   1.109394 S    
C31   N3    1.469522 S    
C82   N10   1.431707 S    
C84   N12   1.431146 S    
C74   H54   1.082087 S    
C10   H14   1.108509 S    
C62   C70   1.485053 A    
C73   H53   1.082783 S    
C13   C17   1.531461 S    
O10   P13   1.723983 S    
C37   C57   1.465127 A    
C47   C51   1.387567 A    
C80   C84   1.413919 A    
C1    C29   1.545709 S    
P10   O30   1.802556 S    
N6    H72   1.045133 S    
C14   I30   2.043021 S    
C21   H29   1.108987 S    
C34   C68   1.438974 A    
C8    H12   1.110862 S    
C41   H49   1.081996 S    
P12   O44   1.746488 S    
O31   Ba3   2.887327 S    
C77   C81   1.414033 A    
O4    Ba4   2.975114 S    
C30   N2    1.469501 S    
O7    Ba4   2.887295 S    
N12   H84   1.044111 S    
P6    O26   1.579150 D    
O24   C32   1.420606 S    
C78   C82   1.417883 A    
C36   C66   1.439289 A    
P4    C40   1.919196 S    
P7    C72   1.954347 S    
C33   C67   1.439645 A    
P1    Ba1   3.590550 S    
N4    H68   1.042065 S    
N5    H70   1.044909 S    
P9    O41   1.746609 S    
C10   I10   2.106160 S    
C43   C47   1.388379 A    
P11   C80   1.908631 S    
O12   P15   1.720484 S    
P4    O8    1.619861 S    
P3    C39   1.894394 S    
O9    Ba1   2.888947 S    
P2    O6    1.619861 S    
C17   H21   1.104129 S    
C31   H47   1.110288 S    
C18   I2    2.092103 S    
P11   O31   1.802162 S    
O11   P16   1.724036 S    
C22   H26   1.109311 S    
C39   C59   1.460336 A    
P5    Ba1   3.592582 S    
N11   H82   1.044357 S    
C29   H45   1.111626 S    
C21   H25   1.108595 S    
N8    H75   1.045144 S    
C40   C60   1.464568 A    
C61   C65   1.442889 A    
Ba4   O48   2.886565 S    
C81   N9    1.431152 S    
C34   C58   1.407010 A    
C28   H44   1.108739 S    
C23   H27   1.109336 S    
O30   Ba2   2.887145 S    
O6    Ba1   2.886476 S    
O21   C29   1.420574 S    
C2    N6    1.461480 S    
N10   H79   1.039495 S    
P7    Ba3   3.592582 S    
C64   C88   1.445918 A    
C53   C87   1.445223 A    
C51   C55   1.427572 A    
C4    H4    1.104944 S    
O26   Ba2   2.980502 S    
C54   C58   1.421983 A    
Ba1   O45   2.887384 S    
N1    H62   1.042088 S    
P5    O25   1.579441 D    
C5    I21   2.107762 S    
O22   C30   1.419755 S    
O23   P16   1.765575 S    
C23   C27   1.512746 S    
O1    Ba1   2.976535 S    
N2    H64   1.040342 S    
C73   C77   1.405797 A    
C4    C32   1.545760 S    
C17   I5    2.148824 S    
O9    P14   1.720570 S    
C24   H32   1.108979 S    
C86   I18   2.098531 S    
O21   P14   1.768084 S    
N1    H61   1.041822 S    
Ba2   O45   3.080498 S    
C53   C57   1.433826 A    
C35   C65   1.439309 A    
C44   H52   1.081993 S    
P2    O18   1.749752 S    
C11   H15   1.108539 S    
P6    C69   1.955242 S    
O15   P16   1.549465 D    
C28   H40   1.105548 S    
O42   C6    1.396359 S    
C10   I26   2.126032 S    
C55   C59   1.422314 A    
P3    Ba3   3.590550 S    
O41   C5    1.397193 S    
C20   H24   1.104145 S    
C3    H3    1.093425 S    
C56   C86   1.444916 A    
N6    H71   1.045854 S    
C32   N4    1.465756 S    
C50   C54   1.427503 A    
C3    H7    1.097740 S    
P4    Ba4   3.589772 S    
P14   C45   1.875732 S    
C19   H23   1.107391 S    
C4    H8    1.100365 S    
C85   I17   2.092855 S    
C3    C31   1.545287 S    
C40   C44   1.405286 A    
C33   H57   1.081800 S    
P1    C37   1.920065 S    
C51   I15   2.133097 S    
P3    O7    1.620658 S    
N12   H83   1.041135 S    
C42   C46   1.388279 A    
P11   O35   1.540638 D    
C33   C57   1.411065 A    
C36   C60   1.410968 A    
C69   C73   1.414210 A    
C52   C56   1.432426 A    
C38   C58   1.459729 A    
C9    I9    2.117849 S    
C50   I14   2.133162 S    
C8    C12   1.540022 S    
N4    H67   1.041784 S    
C12   I12   2.117731 S    
P10   O34   1.540679 D    
C4    N8    1.460846 S    
Ba3   Ba4   4.754659 S    
C12   I28   2.129691 S    
C38   C42   1.403961 A    
C18   H22   1.107417 S    
C76   H56   1.082780 S    
C65   C81   1.421459 A    
C35   H59   1.081321 S    
C26   H38   1.106646 S    
C2    H6    1.097637 S    
C62   C86   1.426313 A    
C13   I29   2.062102 S    
C25   H37   1.105547 S    
C45   C49   1.403386 A    
O17   C21   1.406046 S    
C56   C60   1.433625 A    
C28   H36   1.108946 S    
C27   H39   1.106631 S    
