data_mof_unit_49766.cif
_audit_creation_date              2012-12-11T15:52:22-0500
_audit_creation_method            fapswitch 2.2
_symmetry_space_group_name_H-M    P1
_symmetry_Int_Tables_number       1
_space_group_crystal_system       triclinic
_cell_length_a                    10.977641
_cell_length_b                    10.983797
_cell_length_c                    18.812419
_cell_angle_alpha                 90.016564
_cell_angle_beta                  90.058268
_cell_angle_gamma                 120.052475
_cell_volume                      1963.38966715

loop_
_atom_site_label
_atom_site_type_symbol
_atom_type_description
_atom_site_fract_x
_atom_site_fract_y
_atom_site_fract_z
_atom_type_partial_charge
C1    C     C_R   0.519665 0.458396 0.147494 0.535319
C2    C     C_3   0.955735 0.709241 0.460327 -0.268952
C3    C     C_3   0.753023 0.036282 0.467919 -0.265784
C4    C     C_3   0.284490 0.247035 0.459216 -0.268150
C5    C     C_R   0.517324 0.458281 0.353023 0.546844
C6    C     C_R   0.544187 0.063995 0.354729 0.545300
C7    C     C_R   0.941584 0.483113 0.352801 0.548102
C8    C     C_R   0.454672 0.521256 0.644438 0.546149
C9    C     C_R   0.069720 0.546904 0.643652 0.548033
C10   C     C_R   0.480903 0.939077 0.646478 0.553331
C11   C     C_R   0.485756 0.955832 0.931256 0.018971
C12   C     C_R   0.541474 0.061250 0.147491 0.535819
C13   C     C_R   0.044410 0.529966 0.931283 0.018419
C14   C     C_R   0.470030 0.514696 0.931331 0.018789
C15   C     C_R   0.007959 0.502608 0.079075 0.011057
C16   C     C_R   0.494318 0.991846 0.079059 0.010771
C17   C     C_R   0.497261 0.505426 0.079109 0.010940
C18   C     C_R   0.399240 0.998218 0.963621 -0.000705
C19   C     C_R   0.001994 0.401108 0.963722 -0.000975
C20   C     C_R   0.598912 0.601387 0.963914 -0.001152
C21   C     C_R   0.981921 0.387088 0.036464 0.005963
C22   C     C_R   0.405033 0.018082 0.036382 0.005609
C23   C     C_R   0.938618 0.480250 0.147480 0.534555
C24   C     C_R   0.612879 0.595252 0.036662 0.005904
C25   C     C_R   0.561758 0.925157 0.048263 -0.160624
C26   C     C_R   0.074615 0.636754 0.048253 -0.160497
C27   C     C_R   0.363060 0.437751 0.048144 -0.160762
C28   C     C_R   0.091198 0.650104 0.974702 -0.146904
C29   C     C_R   0.558817 0.908816 0.974696 -0.146910
C30   C     C_R   0.349766 0.441077 0.974585 -0.146784
C31   C     C_3   0.388564 0.125860 0.948868 -0.282517
C32   C     C_3   0.874386 0.262513 0.948850 -0.282322
C33   C     C_3   0.737631 0.612812 0.949197 -0.282522
C34   C     C_R   0.451813 0.523206 0.855515 0.543948
C35   C     C_3   0.851110 0.247166 0.028461 -0.242538
C36   C     C_3   0.396217 0.148920 0.028512 -0.242500
C37   C     C_3   0.752928 0.604748 0.028822 -0.242356
C38   C     C_R   0.501531 0.005101 0.577632 0.014405
C39   C     C_R   0.042943 0.526967 0.567988 0.019674
C40   C     C_R   0.476803 0.511536 0.569264 0.019644
C41   C     C_R   0.016742 0.515453 0.419944 0.017483
C42   C     C_R   0.520824 0.028602 0.429318 0.022492
C43   C     C_R   0.487118 0.500587 0.420770 0.018104
C44   C     C_R   0.632483 0.064994 0.544347 0.017221
C45   C     C_R   0.071437 0.548276 0.855493 0.544336
C46   C     C_R   0.051026 0.639379 0.530033 0.035132
C47   C     C_R   0.362493 0.410714 0.530564 0.042140
C48   C     C_R   0.039238 0.635099 0.457621 0.022152
C49   C     C_R   0.640465 0.074268 0.471706 0.048135
C50   C     C_R   0.365965 0.405120 0.458031 0.027689
C51   C     C_R   0.392049 0.988419 0.462489 -0.174881
C52   C     C_R   0.038382 0.415489 0.455433 -0.154778
C53   C     C_R   0.591524 0.618243 0.457400 -0.170736
C54   C     C_R   0.049765 0.420225 0.529830 -0.152496
C55   C     C_R   0.382683 0.977930 0.536597 -0.165120
C56   C     C_R   0.476976 0.928732 0.855477 0.543092
C57   C     C_R   0.588065 0.622065 0.531863 -0.164952
C58   C     C_3   0.748721 0.031015 0.548145 -0.270995
C59   C     C_3   0.969910 0.713446 0.540160 -0.278971
C60   C     C_3   0.283044 0.254983 0.539295 -0.278642
Cr1   Cr    Cr6+3 0.769160 0.541570 0.250690 1.003305
Cr2   Cr    Cr6+3 0.458430 0.227590 0.250690 1.004243
Cr3   Cr    Cr6+3 0.772410 0.230840 0.250690 1.006798
Cr4   Cr    Cr6+3 0.541570 0.769160 0.749310 1.007487
Cr5   Cr    Cr6+3 0.227590 0.458430 0.749310 1.009994
Cr6   Cr    Cr6+3 0.230840 0.772410 0.749310 1.009080
H1    H     H_    0.627915 0.898722 0.079783 0.134532
H2    H     H_    0.755146 0.249460 0.045075 0.145943
H3    H     H_    0.494604 0.244751 0.045360 0.145907
H4    H     H_    0.750652 0.506511 0.045394 0.146293
H5    H     H_    0.481588 0.208817 0.919975 0.130507
H6    H     H_    0.791407 0.272266 0.919737 0.130779
H7    H     H_    0.727964 0.520208 0.920050 0.130890
H8    H     H_    0.863156 0.160557 0.051424 0.147691
H9    H     H_    0.297436 0.136906 0.051327 0.147700
H10   H     H_    0.839556 0.703489 0.051913 0.147676
H11   H     H_    0.298827 0.961467 0.431360 0.121853
H12   H     H_    0.100915 0.729372 0.079718 0.134576
H13   H     H_    0.036109 0.329514 0.426483 0.116758
H14   H     H_    0.681261 0.699713 0.429360 0.114915
H15   H     H_    0.059260 0.339218 0.557357 0.125915
H16   H     H_    0.280368 0.936444 0.560879 0.139609
H17   H     H_    0.674242 0.707176 0.560083 0.117963
H18   H     H_    0.716056 0.924893 0.568614 0.162568
H19   H     H_    0.034896 0.821615 0.561523 0.133558
H20   H     H_    0.176053 0.214621 0.561557 0.131537
H21   H     H_    0.845759 0.640186 0.442988 0.171405
H22   H     H_    0.852877 0.121558 0.446376 0.139209
H23   H     H_    0.270386 0.371192 0.079492 0.134389
H24   H     H_    0.346529 0.199423 0.440200 0.175111
H25   H     H_    0.844986 0.116798 0.573449 0.126538
H26   H     H_    0.868498 0.647409 0.568195 0.138470
H27   H     H_    0.346641 0.215110 0.565913 0.142011
H28   H     H_    0.011734 0.814988 0.435200 0.127423
H29   H     H_    0.715687 0.932053 0.442711 0.134625
H30   H     H_    0.178301 0.203296 0.434969 0.122606
H31   H     H_    0.135824 0.754044 0.951741 0.148263
H32   H     H_    0.618116 0.864186 0.951750 0.148238
H33   H     H_    0.245784 0.381559 0.951490 0.148264
H34   H     H_    0.284847 0.099126 0.925767 0.142039
H35   H     H_    0.901278 0.185656 0.925921 0.141996
H36   H     H_    0.814485 0.716746 0.926387 0.141885
O1    O     O_R   0.911480 0.572650 0.170990 -0.529447
O2    O     O_R   0.528970 0.640340 0.824320 -0.500832
O3    O     O_R   0.111370 0.471030 0.824320 -0.500753
O4    O     O_R   0.359660 0.888630 0.824320 -0.501697
O5    O     O_R   0.909980 0.572450 0.331530 -0.524795
O6    O     O_R   0.427550 0.337530 0.331530 -0.524538
O7    O     O_R   0.662470 0.090020 0.331530 -0.518037
O8    O     O_R   0.572450 0.909980 0.668470 -0.524082
O9    O     O_R   0.337530 0.427550 0.668470 -0.518973
O10   O     O_R   0.090020 0.662470 0.668470 -0.519241
O11   O     O_R   0.638950 0.528780 0.324500 -0.508356
O12   O     O_R   0.427350 0.338830 0.170990 -0.529279
O13   O     O_R   0.471220 0.110170 0.324500 -0.508690
O14   O     O_R   0.889830 0.361050 0.324500 -0.503558
O15   O     O_R   0.528780 0.638950 0.675500 -0.507014
O16   O     O_R   0.110170 0.471220 0.675500 -0.506957
O17   O     O_R   0.361050 0.889830 0.675500 -0.508635
O18   O     O_3   0.666667 0.333333 0.250560 -0.245938
O19   O     O_3   0.333333 0.666667 0.749440 -0.252289
O20   O     O_R   0.661170 0.088520 0.170990 -0.529256
O21   O     O_R   0.572650 0.911480 0.829010 -0.528805
O22   O     O_R   0.338830 0.427350 0.829010 -0.528662
O23   O     O_R   0.088520 0.661170 0.829010 -0.528018
O24   O     O_R   0.640340 0.528970 0.175680 -0.501117
O25   O     O_R   0.471030 0.111370 0.175680 -0.500683
O26   O     O_R   0.888630 0.359660 0.175680 -0.501894

loop_
_geom_bond_atom_site_label_1
_geom_bond_atom_site_label_2
_ccdc_geom_bond_type
C44   C49   A    
C28   H31   S    
C40   C47   A    
C11   C18   A    
C46   C59   S    
C32   C35   S    
C25   H1    S    
C59   H19   S    
C3    C49   S    
C32   H6    S    
C12   O25   A    
C26   H12   S    
C29   H32   S    
Cr1   O1    S    
Cr6   O4    S    
Cr2   O12   S    
Cr2   O25   S    
C39   C54   A    
Cr2   O6    S    
Cr4   O19   S    
C9    C39   S    
Cr5   O22   S    
Cr5   O9    S    
C10   O17   A    
C47   C60   S    
C4    H30   S    
C43   C53   A    
C23   O1    A    
C38   C55   A    
C20   C24   A    
C44   C58   S    
C32   H35   S    
C16   C22   A    
Cr5   O16   S    
C57   H17   S    
C13   C28   A    
C10   O8    A    
Cr1   O24   S    
Cr5   O19   S    
C52   H13   S    
C58   H25   S    
C41   C52   A    
Cr2   O18   S    
Cr3   O26   S    
C42   C51   A    
C60   H27   S    
C52   C54   A    
C9    O10   A    
C31   H5    S    
C5    C43   S    
C37   H4    S    
C27   C30   A    
C9    O16   A    
C14   C30   A    
C12   C16   S    
C19   C32   S    
Cr5   O3    S    
C45   O3    A    
C8    O15   A    
C47   C50   A    
C4    H24   S    
C25   C29   A    
C46   C48   A    
C17   C24   A    
C13   C19   A    
C33   H36   S    
C17   C27   A    
C56   O21   A    
C14   C20   A    
C2    H28   S    
C53   H14   S    
C1    O24   A    
C8    O9    A    
C45   O23   A    
C60   H20   S    
C2    C59   S    
C15   C26   A    
C2    C48   S    
C30   H33   S    
C33   C37   S    
Cr4   O15   S    
C4    C50   S    
C7    O14   A    
Cr3   O7    S    
C51   H11   S    
C38   C44   A    
C19   C21   A    
C36   H9    S    
C58   H18   S    
Cr4   O8    S    
C35   H8    S    
C4    C60   S    
C24   C37   S    
Cr6   O19   S    
C2    H21   S    
C31   H34   S    
C55   H16   S    
C56   O4    A    
C39   C46   A    
C20   C33   S    
C33   H7    S    
C37   H10   S    
Cr6   O17   S    
Cr1   O11   S    
C6    O7    A    
C7    O5    A    
C1    O12   A    
Cr3   O14   S    
Cr3   O20   S    
C36   H3    S    
C16   C25   A    
Cr4   O2    S    
C34   O22   A    
C40   C57   A    
C5    O11   A    
C3    H22   S    
C18   C22   A    
C26   C28   A    
C53   C57   A    
C14   C34   S    
C43   C50   A    
C21   C35   S    
Cr4   O21   S    
C22   C36   S    
C1    C17   S    
Cr6   O23   S    
C10   C38   S    
Cr2   O13   S    
C13   C45   S    
Cr3   O18   S    
C35   H2    S    
C15   C23   S    
C41   C48   A    
C27   H23   S    
C51   C55   A    
C59   H26   S    
C7    C41   S    
Cr1   O5    S    
C34   O2    A    
C6    O13   A    
C42   C49   A    
C3    C58   S    
C15   C21   A    
C12   O20   A    
C11   C29   A    
C6    C42   S    
C31   C36   S    
C3    H29   S    
C18   C31   S    
C8    C40   S    
Cr6   O10   S    
C54   H15   S    
C11   C56   S    
C23   O26   A    
Cr1   O18   S    
C5    O6    A    
