data_mof_unit_59737.cif
_audit_creation_date              2012-12-10T21:11:33-0500
_audit_creation_method            fapswitch 2.2
_symmetry_space_group_name_H-M    P1
_symmetry_Int_Tables_number       1
_space_group_crystal_system       triclinic
_cell_length_a                    17.505987
_cell_length_b                    16.80848
_cell_length_c                    10.400097
_cell_angle_alpha                 90.077662
_cell_angle_beta                  91.546258
_cell_angle_gamma                 89.98798
_cell_volume                      3059.10129035

loop_
_atom_site_label
_atom_site_type_symbol
_atom_type_description
_atom_site_fract_x
_atom_site_fract_y
_atom_site_fract_z
_atom_type_partial_charge
C1    C     C_R   0.353073 0.499964 0.498694 0.997060
C2    C     C_R   0.646860 0.499977 0.497939 0.993600
C3    C     C_R   0.884090 0.500024 0.433607 -0.108437
C4    C     C_R   0.112750 0.499450 0.452247 -0.086456
C5    C     C_1   0.964629 0.499634 0.430203 0.115747
C6    C     C_1   0.032399 0.499472 0.436302 0.126465
C7    C     C_R   0.451468 0.833923 0.418614 0.328899
C8    C     C_R   0.545095 0.167769 0.592653 0.361493
C9    C     C_R   0.552030 0.832064 0.582489 0.280192
C10   C     C_R   0.448819 0.166707 0.422104 0.261460
C11   C     C_R   0.450184 0.749278 0.421641 0.338278
C12   C     C_R   0.547733 0.252136 0.583836 0.326961
C13   C     C_R   0.551192 0.747688 0.578127 0.355676
C14   C     C_R   0.450898 0.250950 0.420158 0.369659
C15   C     C_R   0.501551 0.875853 0.502221 -0.198240
C16   C     C_R   0.498192 0.124255 0.506201 -0.205746
C17   C     C_1   0.501081 0.963618 0.504738 0.146683
C18   C     C_1   0.499901 0.036478 0.505506 0.141853
C19   C     C_R   0.513309 0.499716 0.260031 0.955346
C20   C     C_R   0.485303 0.500323 0.738930 0.960107
C21   C     C_R   0.557915 0.642972 0.101895 0.471166
C22   C     C_R   0.433263 0.359090 0.897791 0.444545
C23   C     C_R   0.450904 0.648270 0.897168 0.481065
C24   C     C_R   0.540356 0.351010 0.102054 0.469962
C25   C     C_R   0.536136 0.715754 0.047832 -0.252972
C26   C     C_R   0.449705 0.286442 0.957058 -0.231518
C27   C     C_R   0.479388 0.718575 0.951489 -0.263072
C28   C     C_R   0.506395 0.281719 0.053301 -0.197431
C29   C     C_R   0.478867 0.573870 0.942235 -0.045617
C30   C     C_R   0.515304 0.426268 0.055781 -0.046729
C31   C     C_R   0.523434 0.571623 0.056140 -0.049428
C32   C     C_R   0.470694 0.429102 0.941990 -0.047349
C33   C     C_R   0.466381 0.501746 0.875454 -0.111978
C34   C     C_R   0.529293 0.498540 0.122195 -0.117287
C35   C     C_R   0.845985 0.572628 0.447312 0.423145
C36   C     C_R   0.151689 0.426658 0.456200 0.436197
C37   C     C_R   0.150533 0.571767 0.475188 0.427396
C38   C     C_R   0.844809 0.427546 0.435202 0.427822
C39   C     C_R   0.768312 0.572189 0.472317 -0.211902
C40   C     C_R   0.231113 0.427461 0.472616 -0.251398
C41   C     C_R   0.229851 0.571553 0.491197 -0.240110
C42   C     C_R   0.767119 0.427749 0.460774 -0.230343
C43   C     C_R   0.728824 0.499906 0.479610 -0.158643
C44   C     C_R   0.270125 0.499638 0.489594 -0.138384
H1    H     H_    0.523099 0.224162 0.091339 0.186076
H2    H     H_    0.458752 0.775598 0.916941 0.156956
H3    H     H_    0.420230 0.233080 0.925472 0.188623
H4    H     H_    0.561951 0.770491 0.082689 0.173673
H5    H     H_    0.739335 0.628337 0.486408 0.228916
H6    H     H_    0.262391 0.372055 0.468809 0.211408
H7    H     H_    0.259824 0.627549 0.502682 0.223857
H8    H     H_    0.737126 0.371546 0.466111 0.225222
N1    N     N_R   0.500000 0.707230 0.500000 -0.162696
N2    N     N_R   0.500000 0.292770 0.500000 -0.166042
O1    O     O_R   0.389110 0.566570 0.499990 -0.565040
O2    O     O_R   0.610890 0.433430 0.500010 -0.563938
O3    O     O_R   0.610890 0.566570 0.500010 -0.562333
O4    O     O_R   0.389110 0.433430 0.499990 -0.574382
O5    O     O_R   0.499990 0.566540 0.316770 -0.565877
O6    O     O_R   0.500010 0.433460 0.683230 -0.566549
O7    O     O_R   0.500010 0.566540 0.683230 -0.566153
O8    O     O_R   0.499990 0.433460 0.316770 -0.558895
Zn1   Zn    Zn3+2 0.500000 0.588860 0.500000 1.094197
Zn2   Zn    Zn3+2 0.500000 0.411140 0.500000 1.090530
Cl1   Cl    Cl    0.634751 0.642977 0.215118 -0.666885
Cl2   Cl    Cl    0.358785 0.361273 0.780257 -0.656106
Cl3   Cl    Cl    0.374203 0.655714 0.784165 -0.641243
Cl4   Cl    Cl    0.619278 0.340772 0.210056 -0.652670
O9    O     O_3   0.886126 0.643472 0.446284 -0.607076
C45   C     C_3   0.870563 0.682329 0.328186 0.126301
H9    H     H_    0.810174 0.703119 0.322383 0.184733
H10   H     H_    0.881727 0.642415 0.244963 0.149796
C46   C     C_3   0.922421 0.754486 0.318167 -0.783021
H11   H     H_    0.983186 0.735381 0.320889 0.282441
H12   H     H_    0.910104 0.786025 0.226173 0.214391
H13   H     H_    0.912601 0.795947 0.399314 0.258557
O10   O     O_3   0.111529 0.356391 0.434613 -0.595473
C47   C     C_3   0.126041 0.302054 0.536092 0.118089
H14   H     H_    0.125466 0.331830 0.632050 0.154722
H15   H     H_    0.181951 0.271993 0.523789 0.150930
C48   C     C_3   0.064276 0.238456 0.533493 -0.786060
H16   H     H_    0.064727 0.205650 0.440757 0.251327
H17   H     H_    0.074886 0.195665 0.613250 0.207862
H18   H     H_    0.007349 0.266314 0.545187 0.293623
O11   O     O_3   0.109675 0.642447 0.473460 -0.595253
C49   C     C_3   0.114299 0.678002 0.596668 0.119971
H19   H     H_    0.172144 0.703504 0.615637 0.171343
H20   H     H_    0.100970 0.634437 0.673761 0.146247
C50   C     C_3   0.056545 0.745391 0.602668 -0.768698
H21   H     H_    0.997767 0.721574 0.588850 0.293776
H22   H     H_    0.061142 0.775086 0.698005 0.210057
H23   H     H_    0.067654 0.789877 0.526550 0.255430
O12   O     O_3   0.883957 0.356623 0.421519 -0.602828
C51   C     C_3   0.863438 0.322682 0.301155 0.128474
H24   H     H_    0.868972 0.366584 0.221541 0.149342
H25   H     H_    0.803789 0.299804 0.301554 0.184698
C52   C     C_3   0.916461 0.253300 0.274505 -0.783505
H26   H     H_    0.912290 0.207964 0.351591 0.257827
H27   H     H_    0.900169 0.225470 0.180830 0.216780
H28   H     H_    0.976365 0.274711 0.270468 0.278589
O13   O     O_3   0.399154 0.876204 0.342972 -0.581036
C53   C     C_3   0.420667 0.875228 0.212580 0.160746
H29   H     H_    0.368226 0.884053 0.151835 0.181005
H30   H     H_    0.445582 0.817724 0.182242 0.163640
C54   C     C_3   0.476102 0.942479 0.183672 -0.914462
H31   H     H_    0.531660 0.932591 0.235095 0.255280
H32   H     H_    0.486253 0.944294 0.078764 0.213139
H33   H     H_    0.451851 0.000376 0.213406 0.311565
O14   O     O_3   0.590959 0.126834 0.680945 -0.569353
C55   C     C_3   0.561938 0.135343 0.806290 0.162094
H34   H     H_    0.554038 0.198351 0.833542 0.179166
H35   H     H_    0.605117 0.111367 0.875987 0.173365
C56   C     C_3   0.487218 0.089847 0.823247 -0.974004
H36   H     H_    0.492326 0.028728 0.785539 0.272615
H37   H     H_    0.473760 0.087046 0.926885 0.242085
H38   H     H_    0.439415 0.120196 0.770927 0.246065
O15   O     O_3   0.607119 0.871736 0.655786 -0.544883
C57   C     C_3   0.583702 0.875702 0.784491 0.144320
H39   H     H_    0.583948 0.816060 0.829572 0.187270
H40   H     H_    0.525320 0.901125 0.791029 0.101377
C58   C     C_3   0.639677 0.927257 0.861486 -0.766645
H41   H     H_    0.647320 0.985040 0.812316 0.285172
H42   H     H_    0.617951 0.937823 0.959383 0.194486
H43   H     H_    0.696013 0.897037 0.869902 0.266009
O16   O     O_3   0.400531 0.126366 0.337303 -0.575634
C59   C     C_3   0.331454 0.110382 0.399410 0.146590
H44   H     H_    0.304048 0.166372 0.432621 0.154124
H45   H     H_    0.341316 0.070201 0.483307 0.136403
C60   C     C_3   0.276420 0.069397 0.305144 -0.751639
H46   H     H_    0.301404 0.012509 0.271828 0.271856
H47   H     H_    0.221753 0.056689 0.352810 0.200725
H48   H     H_    0.264771 0.108429 0.220778 0.264408
Cl5   Cl    Cl    0.382603 0.698423 0.323988 -0.571109
Cl6   Cl    Cl    0.615902 0.304210 0.678683 -0.567320
Cl7   Cl    Cl    0.618278 0.695176 0.674199 -0.568587
Cl8   Cl    Cl    0.388940 0.301284 0.312229 -0.570614

loop_
_geom_bond_atom_site_label_1
_geom_bond_atom_site_label_2
_ccdc_geom_bond_type
C4    C36   A    
O12   C51   S    
C46   H12   S    
C46   H11   S    
C35   C39   A    
C48   H18   S    
C52   H26   S    
C2    O3    A    
O10   C47   S    
C7    C11   A    
C21   C31   A    
C59   H44   S    
C22   C32   A    
C23   C29   A    
C37   O11   S    
C38   C42   A    
C36   O10   S    
C11   Cl5   S    
C5    C6    T    
C49   H20   S    
C19   O8    A    
C29   C33   A    
C9    O15   S    
C53   C54   S    
C23   Cl3   S    
C20   O7    A    
O7    Zn1   S    
C9    C13   A    
C57   H39   S    
C22   Cl2   S    
C58   H43   S    
O8    Zn2   S    
C55   H35   S    
C52   H27   S    
C55   H34   S    
C3    C38   A    
O1    Zn1   S    
O2    Zn2   S    
C45   H9    S    
C23   C27   A    
C50   H22   S    
C10   O16   S    
C11   N1    A    
C60   H48   S    
C7    C15   A    
C8    C16   A    
C12   Cl6   S    
C37   C41   A    
C13   Cl7   S    
O9    C45   S    
C1    O4    A    
C48   H17   S    
O3    Zn1   S    
C13   N1    A    
O4    Zn2   S    
C54   H33   S    
C28   H1    S    
C30   C34   A    
O13   C53   S    
C36   C40   A    
C4    C6    S    
C10   C14   A    
C49   H19   S    
C39   C43   A    
C59   C60   S    
C19   O5    A    
O11   C49   S    
C19   C34   S    
C48   H16   S    
C57   C58   S    
C51   H25   S    
C54   H32   S    
C1    C44   S    
C55   C56   S    
C3    C35   A    
C2    C43   S    
C8    C12   A    
C45   C46   S    
C17   C18   T    
C31   C34   A    
C51   H24   S    
C50   H23   S    
C53   H30   S    
C25   H4    S    
C35   O9    S    
C58   H41   S    
C56   H36   S    
C26   H3    S    
C20   C33   S    
C27   H2    S    
C14   N2    A    
C7    O13   S    
O16   C59   S    
C46   H13   S    
C24   C30   A    
C20   O6    A    
C42   C43   A    
C52   H28   S    
C60   H46   S    
C15   C17   S    
C21   C25   A    
C59   H45   S    
C21   Cl1   S    
C47   H14   S    
O5    Zn1   S    
C24   C28   A    
C3    C5    S    
C49   C50   S    
C45   H10   S    
C39   H5    S    
C25   C27   A    
C54   H31   S    
C26   C28   A    
C51   C52   S    
O6    Zn2   S    
C32   C33   A    
C56   H38   S    
C9    C15   A    
C29   C31   A    
C10   C16   A    
C8    O14   S    
C30   C32   A    
N1    Zn1   S    
C47   C48   S    
C14   Cl8   S    
C40   H6    S    
C38   O12   S    
C41   C44   A    
C47   H15   S    
C1    O1    A    
C53   H29   S    
C57   H40   S    
C58   H42   S    
C24   Cl4   S    
C40   C44   A    
C4    C37   A    
N2    Zn2   S    
C16   C18   S    
C22   C26   A    
O14   C55   S    
C2    O2    A    
C60   H47   S    
C50   H21   S    
O15   C57   S    
C41   H7    S    
C12   N2    A    
C42   H8    S    
C56   H37   S    
