data_mof_unit_34788.cif
_audit_creation_date              2012-12-10T16:58:23-0500
_audit_creation_method            fapswitch 2.2
_symmetry_space_group_name_H-M    P1
_symmetry_Int_Tables_number       1
_space_group_crystal_system       triclinic
_cell_length_a                    7.725854
_cell_length_b                    8.658407
_cell_length_c                    22.854748
_cell_angle_alpha                 90.732609
_cell_angle_beta                  86.378608
_cell_angle_gamma                 93.482647
_cell_volume                      1522.9041383

loop_
_atom_site_label
_atom_site_type_symbol
_atom_type_description
_atom_site_fract_x
_atom_site_fract_y
_atom_site_fract_z
_atom_type_partial_charge
C1    C     C_R   0.545243 0.794147 0.498457 0.985298
C2    C     C_R   0.365367 0.434202 0.294001 0.011522
C3    C     C_R   0.525306 0.726973 0.751171 -0.010547
C4    C     C_R   0.358149 0.456557 0.233283 0.013036
C5    C     C_R   0.477202 0.610086 0.792540 0.185451
C6    C     C_R   0.457107 0.583430 0.206508 0.101621
C7    C     C_2   0.567373 0.954614 0.490639 -0.080044
C8    C     C_2   0.435550 0.044533 0.509371 -0.124979
C9    C     C_R   0.503047 0.501448 0.611044 0.917563
C10   C     C_R   0.497602 0.502348 0.388605 0.890964
C11   C     C_R   0.251582 0.615120 0.128002 0.581330
C12   C     C_R   0.455108 0.205681 0.501094 0.926621
C13   C     C_R   0.584583 0.710541 0.883786 0.557429
C14   C     C_R   0.501208 0.776340 0.126897 0.540316
C15   C     C_R   0.288767 0.616610 0.880780 0.626473
C16   C     C_R   0.516662 0.782442 0.065629 0.024553
C17   C     C_R   0.265509 0.624575 0.942317 0.004016
C18   C     C_R   0.388080 0.698948 0.034903 -0.026920
C19   C     C_R   0.402795 0.693357 0.973458 -0.043129
C20   C     C_R   0.243651 0.623632 0.066334 -0.105434
C21   C     C_R   0.557591 0.752680 0.943175 -0.093016
C22   C     C_R   0.659505 0.861039 0.035109 0.051327
C23   C     C_R   0.455423 0.454030 0.774667 0.075713
C24   C     C_R   0.113271 0.561160 0.973154 0.072395
C25   C     C_R   0.682337 0.844343 0.973602 -0.075901
C26   C     C_R   0.103484 0.556598 0.035173 -0.070205
C27   C     C_2   0.828220 0.933398 0.941412 0.989337
C28   C     C_2   0.953406 0.468115 0.065203 0.939788
C29   C     C_2   0.439764 0.251165 0.694587 0.877087
C30   C     C_2   0.781393 0.676046 0.321336 0.967455
C31   C     C_2   0.552537 0.891316 0.769534 1.011770
C32   C     C_2   0.279613 0.330298 0.196732 1.052325
C33   C     C_R   0.615184 0.628751 0.232764 0.089077
C34   C     C_R   0.470306 0.414297 0.714603 -0.096472
C35   C     C_R   0.627314 0.606197 0.292931 -0.069133
C36   C     C_R   0.513240 0.532530 0.673485 -0.160860
C37   C     C_R   0.493587 0.518500 0.324794 -0.218553
C38   C     C_R   0.544912 0.687512 0.691660 -0.014276
H1    H     H_    0.013704 0.381765 0.457081 0.180672
H2    H     H_    0.300135 0.283322 0.814703 0.277180
H3    H     H_    0.763978 0.647466 0.154247 0.244528
H4    H     H_    0.809161 0.789075 0.205653 0.253775
H5    H     H_    0.288883 0.052738 0.699936 0.352563
H6    H     H_    0.042208 0.689058 0.325153 0.344334
H7    H     H_    0.696859 0.780846 0.623745 0.205165
H8    H     H_    0.481968 0.813321 0.622670 0.185389
H9    H     H_    0.325319 0.242581 0.344929 0.174657
H10   H     H_    0.166385 0.370868 0.352876 0.222754
H11   H     H_    0.704887 0.089109 0.762624 0.349382
H12   H     H_    0.986220 0.618045 0.542998 0.199029
H13   H     H_    0.296536 0.206697 0.121263 0.370180
H14   H     H_    0.809253 0.068625 0.483200 0.215148
H15   H     H_    0.691963 0.073034 0.420944 0.219166
H16   H     H_    0.275669 0.042701 0.583641 0.211184
H17   H     H_    0.173008 0.009461 0.520933 0.204266
H18   H     H_    0.904053 0.898438 0.062392 0.225371
H19   H     H_    0.800234 0.062209 0.050019 0.209961
H20   H     H_    0.861597 0.545935 0.951175 0.239706
H21   H     H_    0.955423 0.372840 0.953286 0.193729
H22   H     H_    0.902377 0.086006 0.877331 0.361601
H23   H     H_    0.869148 0.289207 0.117239 0.373992
H24   H     H_    0.517368 0.256846 0.813414 0.226428
N1    N     N_R   0.404463 0.656421 0.153094 -0.316327
N2    N     N_3   0.251379 0.317481 0.322757 -0.385793
N3    N     N_3   0.722906 0.007708 0.456608 -0.401951
N4    N     N_3   0.282324 0.985099 0.543136 -0.428857
N5    N     N_R   0.449495 0.648418 0.853688 -0.339309
N6    N     N_2   0.950330 0.457950 0.484560 -0.167146
N7    N     N_2   0.049670 0.542050 0.515440 -0.156593
N8    N     N_3   0.785350 0.950484 0.067136 -0.378319
N9    N     N_3   0.975192 0.488948 0.941186 -0.352637
N10   N     N_3   0.423004 0.337943 0.818932 -0.416424
N11   N     N_3   0.772993 0.672404 0.198643 -0.337328
N12   N     N_3   0.585965 0.807993 0.649490 -0.388442
O1    O     O_R   0.389250 0.738570 0.503790 -0.607999
O2    O     O_2   0.744732 0.726269 0.856579 -0.504439
O3    O     O_2   0.574022 0.890100 0.159614 -0.541084
O4    O     O_2   0.154526 0.573854 0.847924 -0.483849
O5    O     O_2   0.977923 0.920658 0.954241 -0.632452
O6    O     O_R   0.793176 0.031849 0.896158 -0.757570
O7    O     O_2   0.805428 0.504675 0.058859 -0.670483
O8    O     O_R   0.981118 0.338754 0.098542 -0.750122
O9    O     O_2   0.538883 0.196810 0.657002 -0.617036
O10   O     O_R   0.296062 0.160782 0.717603 -0.772835
O11   O     O_2   0.762476 0.770943 0.360894 -0.626146
O12   O     O_R   0.610750 0.261430 0.496210 -0.625678
O13   O     O_R   0.947859 0.634147 0.302368 -0.747351
O14   O     O_2   0.451359 0.947914 0.805877 -0.620193
O15   O     O_R   0.696137 0.980523 0.745639 -0.720970
O16   O     O_2   0.147593 0.255665 0.214443 -0.543852
O17   O     O_R   0.359617 0.295713 0.141891 -0.791154
O18   O     O_R   0.678390 0.711620 0.493890 -0.603509
O19   O     O_R   0.321610 0.288380 0.506110 -0.634678
O20   O     O_R   0.355400 0.513520 0.588790 -0.610477
O21   O     O_R   0.644600 0.486480 0.411210 -0.600137
O22   O     O_R   0.644550 0.486570 0.578900 -0.602043
O23   O     O_R   0.355450 0.513430 0.421100 -0.629371
O24   O     O_2   0.108914 0.575180 0.162494 -0.526259
Zn1   Zn    Zn3+2 0.306930 0.518000 0.506610 0.964613
Zn2   Zn    Zn3+2 0.693070 0.482000 0.493390 0.981037

loop_
_geom_bond_atom_site_label_1
_geom_bond_atom_site_label_2
_ccdc_geom_bond_type
C8    N4    S    
H1    N6    S    
C5    N5    S    
C7    C8    D    
C30   C35   S    
C11   O24   S    
C10   O21   A    
C35   C37   A    
H12   N7    S    
C24   C26   A    
C29   O9    D    
C11   N1    A    
H23   O8    S    
C13   N5    A    
H20   N9    S    
H10   N2    S    
C32   O17   S    
C18   C19   A    
C14   O3    S    
H13   O17   S    
C32   O16   D    
C3    C38   A    
N6    N7    D    
C31   O15   S    
C22   C25   A    
C9    C36   S    
H19   N8    S    
H6    O13   S    
O12   Zn2   S    
O19   Zn1   S    
C34   C36   A    
H5    O10   S    
O23   Zn1   S    
C2    N2    S    
C11   C20   A    
C17   C24   A    
C28   O8    S    
C1    O1    A    
C29   O10   S    
C4    C6    A    
C27   O6    S    
H9    N2    S    
O21   Zn2   S    
C17   C19   A    
C29   C34   S    
H7    N12   S    
C6    N1    S    
C10   O23   A    
C2    C4    A    
N6    Zn2   S    
C7    N3    S    
C5    C23   A    
C13   O2    S    
C8    C12   S    
C23   C34   A    
C15   N5    A    
O1    Zn1   S    
C13   C21   A    
C30   O11   D    
C3    C31   S    
C9    O22   A    
C4    C32   S    
N7    Zn1   S    
C33   N11   S    
C1    O18   A    
H18   N8    S    
C10   C37   S    
C14   C16   A    
C12   O19   A    
C27   O5    D    
H8    N12   S    
H17   N4    S    
H15   N3    S    
O18   Zn2   S    
C38   N12   S    
C15   C17   A    
C21   C25   A    
H22   O6    S    
H4    N11   S    
C16   C22   A    
C31   O14   D    
H2    N10   S    
C19   C21   A    
C28   O7    D    
C1    C7    S    
C23   N10   S    
H11   O15   S    
C3    C5    A    
H16   N4    S    
C25   C27   S    
C26   C28   S    
C6    C33   A    
C12   O12   A    
H24   N10   S    
C36   C38   A    
C2    C37   A    
C20   C26   A    
O20   Zn1   S    
C14   N1    A    
O22   Zn2   S    
C33   C35   A    
C18   C20   A    
H3    N11   S    
C15   O4    S    
C16   C18   A    
C30   O13   S    
C9    O20   A    
C22   N8    S    
H14   N3    S    
C24   N9    S    
H21   N9    S    
