data_mof_unit_65242.cif
_audit_creation_date              2012-12-11T14:03:36-0500
_audit_creation_method            fapswitch 2.2
_symmetry_space_group_name_H-M    P1
_symmetry_Int_Tables_number       1
_space_group_crystal_system       triclinic
_cell_length_a                    7.064777
_cell_length_b                    11.951403
_cell_length_c                    18.307219
_cell_angle_alpha                 89.433793
_cell_angle_beta                  92.699864
_cell_angle_gamma                 90.5016
_cell_volume                      1543.90731265

loop_
_atom_site_label
_atom_site_type_symbol
_atom_type_description
_atom_site_fract_x
_atom_site_fract_y
_atom_site_fract_z
_atom_type_partial_charge
O1    O     O_R   0.330540 0.606360 0.598870 -0.555368
O2    O     O_R   0.669460 0.106360 0.401130 -0.555552
O3    O     O_R   0.026770 0.620470 0.750430 -0.531042
O4    O     O_R   0.973230 0.120470 0.249570 -0.536039
O5    O     O_R   0.856460 0.393640 0.750930 -0.561673
O6    O     O_R   0.143540 0.893640 0.249070 -0.544305
C1    C     C_R   0.196951 0.636262 0.779693 0.661681
C2    C     C_R   0.800941 0.145475 0.223551 0.654439
O7    O     O_R   0.000920 0.620350 0.599420 -0.485515
O8    O     O_R   0.999080 0.120350 0.400580 -0.482624
O9    O     O_R   0.830430 0.393520 0.598850 -0.496903
O10   O     O_R   0.169570 0.893520 0.401150 -0.498255
C3    C     C_R   0.168867 0.651546 0.577815 0.760521
C4    C     C_R   0.831832 0.151144 0.422648 0.758341
O11   O     O_R   0.356570 0.606480 0.750960 -0.544860
O12   O     O_R   0.643430 0.106480 0.249040 -0.550340
O13   O     O_3   0.176990 0.425580 0.674890 -0.393155
O14   O     O_3   0.823010 0.925580 0.325110 -0.390710
V1    V     V_3+5 0.902170 0.513810 0.674910 1.626299
V2    V     V_3+5 0.097830 0.013810 0.325090 1.623962
O15   O     O_R   0.500800 0.379530 0.599380 -0.528057
O16   O     O_R   0.499200 0.879530 0.400620 -0.527840
C5    C     C_R   0.667651 0.354017 0.573729 0.828530
C6    C     C_R   0.331971 0.854068 0.426130 0.833414
O17   O     O_R   0.526650 0.379650 0.750390 -0.574113
O18   O     O_R   0.473350 0.879650 0.249610 -0.583081
C7    C     C_R   0.698181 0.346340 0.770397 0.682388
C8    C     C_R   0.302358 0.847492 0.229592 0.688311
V3    V     V_3+5 0.402160 0.486190 0.674900 1.510639
V4    V     V_3+5 0.597840 0.986190 0.325100 1.493285
O19   O     O_3   0.677210 0.574420 0.674910 -0.367593
O20   O     O_3   0.322790 0.074420 0.325090 -0.370964
C9    C     C_R   0.602471 0.081589 0.875949 -0.108037
C10   C     C_R   0.205267 0.572079 0.135944 -0.130341
H1    H     H_    0.621843 0.119737 0.761058 0.113571
H2    H     H_    0.224868 0.624248 0.248354 0.115888
H3    H     H_    0.513450 0.974124 0.998322 0.102425
H4    H     H_    0.107861 0.448359 0.018110 0.113219
H5    H     H_    0.558357 0.995878 0.866282 0.130595
H6    H     H_    0.173613 0.485900 0.149943 0.130236
C11   C     C_R   0.709030 0.259544 0.828195 -0.053976
C12   C     C_R   0.290723 0.759304 0.174212 -0.014279
C13   C     C_R   0.820470 0.339897 0.173813 -0.263130
C14   C     C_R   0.196863 0.827278 0.823278 -0.239419
C15   C     C_R   0.769517 0.423841 0.121459 -0.074528
C16   C     C_R   0.185287 0.911787 0.875596 -0.014499
C17   C     C_R   0.718178 0.390344 0.047750 0.367406
C18   C     C_R   0.191994 0.877939 0.952649 0.360949
C19   C     C_R   0.711579 0.273634 0.032202 -0.027728
C20   C     C_R   0.216084 0.761884 0.971341 -0.056523
C21   C     C_R   0.706436 0.195584 0.091225 0.021599
C22   C     C_R   0.194493 0.681308 0.914909 0.049109
C23   C     C_R   0.692044 0.231575 0.959726 0.114861
C24   C     C_R   0.240420 0.721610 0.045055 0.154794
C25   C     C_R   0.613745 0.124488 0.947372 0.144422
C26   C     C_R   0.193195 0.609098 0.062576 0.115447
C27   C     C_R   0.567088 0.057892 0.007166 0.045870
C28   C     C_R   0.142613 0.534850 0.006087 -0.046973
C29   C     C_R   0.626123 0.089080 0.077930 -0.086825
C30   C     C_R   0.149800 0.569867 0.933229 0.026153
C31   C     C_R   0.757263 0.291227 0.899267 -0.151951
C32   C     C_R   0.323122 0.787025 0.101518 -0.050743
C33   C     C_R   0.643901 0.150453 0.816241 -0.176241
C34   C     C_R   0.238903 0.649565 0.191894 -0.183891
C35   C     C_R   0.779288 0.226991 0.161400 -0.059879
C36   C     C_R   0.205814 0.715035 0.841273 -0.067255
H7    H     H_    0.846742 0.362794 0.906685 0.158949
H8    H     H_    0.385889 0.867485 0.089695 0.118044
H9    H     H_    0.878439 0.362636 0.227472 0.158595
H10   H     H_    0.180602 0.845773 0.765585 0.154655
H11   H     H_    0.609930 0.028612 0.121541 0.089176
H12   H     H_    0.117396 0.508942 0.891015 0.073552
C37   C     C_2   0.824791 0.250194 0.471781 0.269825
C38   C     C_2   0.177271 0.751207 0.529073 0.266377
C39   C     C_2   0.677211 0.264829 0.516972 -0.416938
C40   C     C_2   0.321977 0.764586 0.482765 -0.419881
H13   H     H_    0.561328 0.204428 0.515041 0.143219
H14   H     H_    0.434211 0.702931 0.483612 0.138838
S1    S     S_3+6 0.611472 0.484073 0.979618 -0.106661
O21   O     O_2   0.521179 0.579861 0.013646 -0.364150
O22   O     O_2   0.751840 0.534611 0.929530 -0.402714
O23   O     O_3   0.444331 0.414858 0.929377 -0.531892
H15   H     H_    0.445780 0.449536 0.880093 0.343184
S2    S     S_3+6 0.082704 0.963900 0.018049 -0.143307
O24   O     O_2   0.177537 0.076343 0.026532 -0.385891
O25   O     O_2   0.889743 0.971360 0.983076 -0.408576
O26   O     O_3   0.046170 0.921424 0.103282 -0.539714
H16   H     H_    0.976214 0.983083 0.125227 0.346141
C41   C     C_R   0.766594 0.542752 0.147822 0.126388
C42   C     C_R   0.734343 0.567990 0.221611 -0.155228
C43   C     C_R   0.746166 0.678674 0.245865 -0.112037
C44   C     C_R   0.773366 0.765274 0.195491 -0.059303
C45   C     C_R   0.784449 0.742146 0.122482 -0.142150
C46   C     C_R   0.800560 0.633397 0.100856 -0.009461
H17   H     H_    0.701418 0.503342 0.260858 0.135255
H18   H     H_    0.728838 0.697308 0.302877 0.146734
H19   H     H_    0.781413 0.851459 0.210587 0.157803
H20   H     H_    0.783694 0.807892 0.081820 0.198253
H21   H     H_    0.837653 0.623189 0.045660 0.189569
C47   C     C_R   0.172350 0.031285 0.844239 0.092083
C48   C     C_R   0.235521 0.059038 0.773182 -0.174844
C49   C     C_R   0.241572 0.170444 0.748586 -0.095914
C50   C     C_R   0.209623 0.255972 0.797510 -0.048252
C51   C     C_R   0.155339 0.231152 0.866378 -0.176261
C52   C     C_R   0.108698 0.122495 0.883614 0.012431
H22   H     H_    0.292062 0.998538 0.737004 0.132188
H23   H     H_    0.287607 0.190283 0.694361 0.142534
H24   H     H_    0.222926 0.342616 0.784655 0.152794
H25   H     H_    0.132131 0.297598 0.904236 0.140844
H26   H     H_    0.008113 0.116755 0.923765 0.223007
S3    S     S_3+6 0.001895 0.354855 0.459899 -0.017605
O27   O     O_2   0.916412 0.469461 0.462357 -0.363123
O28   O     O_2   0.153029 0.342969 0.519831 -0.327860
O29   O     O_3   0.100438 0.339897 0.378690 -0.522292
H27   H     H_    0.197807 0.399901 0.376993 0.345600
S4    S     S_3+6 0.007529 0.857444 0.542734 -0.016074
O30   O     O_2   0.099190 0.971223 0.538622 -0.359962
O31   O     O_2   0.850512 0.848290 0.484851 -0.330071
O32   O     O_3   0.915902 0.841687 0.625444 -0.518943
H28   H     H_    0.824049 0.903400 0.628653 0.348920

loop_
_geom_bond_atom_site_label_1
_geom_bond_atom_site_label_2
_ccdc_geom_bond_type
C9    C25   A    
O26   H16   S    
C10   C26   A    
C48   C49   A    
O13   V3    S    
C14   C36   A    
S3    O27   D    
S2    O26   S    
C17   S1    S    
O4    C2    A    
V1    O19   S    
O29   H27   S    
C42   H17   S    
C17   C19   A    
O9    V1    S    
C47   C52   A    
C45   C46   A    
C38   C40   D    
C10   H6    S    
C52   H26   S    
C40   H14   S    
O3    C1    A    
C51   H25   S    
C27   C29   A    
C30   H12   S    
C28   C30   A    
S4    O30   D    
C21   C35   A    
C15   C17   A    
C8    C12   S    
C41   C46   A    
C31   H7    S    
C47   C48   A    
O7    C3    A    
C22   C30   A    
C43   H18   S    
H4    C28   S    
C23   C31   A    
O7    V1    S    
O6    C8    A    
O8    V2    S    
C19   C21   A    
C20   C22   A    
O3    V1    S    
C50   H24   S    
O14   V4    S    
C11   C31   A    
C15   C41   S    
C12   C32   A    
C9    C33   A    
C18   C20   A    
C2    C35   S    
C2    O12   A    
O5    C7    A    
C37   C39   D    
C10   C34   A    
C51   C52   A    
C14   C16   A    
C44   H19   S    
O11   V3    S    
C16   C18   A    
C23   C25   A    
O17   V3    S    
C24   C26   A    
C4    C37   S    
C37   S3    S    
S2    O24   D    
O8    C4    A    
C43   C44   A    
S1    O22   D    
C6    C40   S    
C1    O11   A    
C24   C32   A    
O15   V3    S    
C18   S2    S    
C39   H13   S    
C7    C11   S    
C13   C35   A    
C38   S4    S    
O10   V2    S    
O1    V3    S    
C49   H23   S    
S3    O28   D    
C9    H5    S    
C14   H10   S    
C13   C15   A    
S4    O31   D    
O18   V4    S    
O15   C5    A    
O16   C6    A    
O1    C3    A    
C11   C33   A    
C12   C34   A    
C22   C36   A    
V2    O20   S    
C48   H22   S    
C16   C47   S    
O16   V4    S    
C5    C39   S    
S1    O23   S    
O32   H28   S    
O5    V1    S    
O17   C7    A    
O6    V2    S    
O10   C6    A    
O18   C8    A    
S4    O32   S    
C32   H8    S    
O2    V4    S    
C25   C27   A    
C20   C24   A    
H2    C34   S    
C1    C36   S    
V4    O20   S    
C42   C43   A    
C46   H21   S    
C19   C23   A    
O9    C5    A    
C44   C45   A    
O13   V1    S    
C26   C28   A    
S3    O29   S    
O14   V2    S    
C49   C50   A    
O2    C4    A    
S1    O21   D    
O4    V2    S    
C21   C29   A    
C3    C38   S    
V3    O19   S    
O23   H15   S    
C50   C51   A    
S2    O25   D    
H1    C33   S    
C41   C42   A    
C13   H9    S    
O12   V4    S    
C45   H20   S    
H3    C27   S    
C29   H11   S    
