data_mof_unit_60640.cif
_audit_creation_date              2012-12-10T20:53:52-0500
_audit_creation_method            fapswitch 2.2
_symmetry_space_group_name_H-M    P1
_symmetry_Int_Tables_number       1
_space_group_crystal_system       triclinic
_cell_length_a                    10.840554
_cell_length_b                    15.849989
_cell_length_c                    15.094232
_cell_angle_alpha                 90.004447
_cell_angle_beta                  103.979654
_cell_angle_gamma                 89.981612
_cell_volume                      2516.71467538

loop_
_atom_site_label
_atom_site_type_symbol
_atom_type_description
_atom_site_fract_x
_atom_site_fract_y
_atom_site_fract_z
_atom_type_partial_charge
C1    C     C_R   0.500043 0.338891 0.499984 0.906573
C2    C     C_1   0.498920 0.500005 0.192776 0.076082
C3    C     C_R   0.258574 0.497827 0.462274 0.945428
C4    C     C_R   0.741427 0.497800 0.537725 0.945430
C5    C     C_2   0.122593 0.488963 0.440541 -0.363966
C6    C     C_2   0.877417 0.488935 0.559459 -0.363972
C7    C     C_2   0.067711 0.473125 0.508585 -0.147955
C8    C     C_2   0.932317 0.473117 0.491412 -0.147961
C9    C     C_R   0.461136 0.956285 0.569233 -0.176940
C10   C     C_R   0.538833 0.043720 0.430759 -0.177048
C11   C     C_R   0.499960 0.913145 0.500004 0.167336
C12   C     C_R   0.499956 0.661107 0.500016 0.913082
C13   C     C_R   0.500010 0.086860 0.499989 0.167345
C14   C     C_R   0.538808 0.956230 0.430767 -0.176941
C15   C     C_R   0.461161 0.043776 0.569225 -0.177049
C16   C     C_1   0.499947 0.824355 0.500015 -0.065878
C17   C     C_1   0.500033 0.175648 0.499981 -0.066501
C18   C     C_1   0.500044 0.250489 0.499979 -0.169498
C19   C     C_1   0.499946 0.749513 0.500019 -0.171736
C20   C     C_R   0.387086 0.499826 0.931969 -0.207062
C21   C     C_R   0.612914 0.500117 0.068031 -0.207063
C22   C     C_R   0.502891 0.499969 0.905462 -0.140870
C23   C     C_R   0.497109 0.499982 0.094538 -0.140872
C24   C     C_R   0.617710 0.500112 0.975299 0.480632
C25   C     C_R   0.382290 0.499830 0.024701 0.480633
C26   C     C_1   0.501080 0.499973 0.807224 0.076083
H1    H     H_    0.877623 0.466104 0.421138 0.191612
H2    H     H_    0.701428 0.500229 0.120148 0.181030
H3    H     H_    0.271693 0.499692 0.109602 0.340005
H4    H     H_    0.728307 0.500223 0.890398 0.340005
H5    H     H_    0.122413 0.466103 0.578858 0.191609
H6    H     H_    0.932351 0.496205 0.629554 0.160353
H7    H     H_    0.067651 0.496239 0.370447 0.160350
H8    H     H_    0.431143 0.077708 0.622751 0.147324
H9    H     H_    0.568826 0.922298 0.377241 0.147531
H10   H     H_    0.431102 0.922397 0.622767 0.147531
H11   H     H_    0.568869 0.077609 0.377227 0.147325
H12   H     H_    0.298572 0.499712 0.879852 0.181026
N1    N     N_1   0.499960 0.500020 0.270540 -0.088214
N2    N     N_1   0.500040 0.499980 0.729460 -0.088215
O1    O     O_R   0.500000 0.378020 0.573650 -0.609526
O2    O     O_3   0.736667 0.500253 0.957107 -0.748116
O3    O     O_R   0.500000 0.621980 0.426350 -0.606443
O4    O     O_R   0.500060 0.378020 0.426320 -0.609521
O5    O     O_R   0.499940 0.621980 0.573680 -0.606440
O6    O     O_R   0.317790 0.500010 0.546150 -0.615567
O7    O     O_R   0.682210 0.499990 0.453850 -0.615567
O8    O     O_R   0.317850 0.500010 0.398830 -0.610472
O9    O     O_R   0.682150 0.499990 0.601170 -0.610473
O10   O     O_3   0.263333 0.499684 0.042893 -0.748116
Zn1   Zn    Zn3+2 0.499960 0.500000 0.598370 0.981828
Zn2   Zn    Zn3+2 0.500040 0.500000 0.401630 0.981828

loop_
_geom_bond_atom_site_label_1
_geom_bond_atom_site_label_2
_ccdc_geom_bond_type
C9    H10   S    
C6    H6    S    
C10   C13   A    
O7    Zn2   S    
O1    Zn1   S    
N2    Zn1   S    
C24   O2    S    
C11   C16   S    
C15   H8    S    
C13   C17   S    
C4    O9    A    
C1    O4    A    
O4    Zn2   S    
C23   C25   A    
N1    Zn2   S    
C9    C15   A    
C7    C8    S    
C9    C11   A    
C26   N2    T    
C1    C18   S    
C10   H11   S    
O6    Zn1   S    
C12   C19   S    
C1    O1    A    
C21   H2    S    
C20   C22   A    
C17   C18   T    
C12   O3    A    
H3    O10   S    
C13   C15   A    
C21   C23   A    
C16   C19   T    
C11   C14   A    
C22   C24   A    
O3    Zn2   S    
C7    H5    S    
C20   C25   A    
O5    Zn1   S    
C3    O8    A    
O8    Zn2   S    
C20   H12   S    
C4    C6    S    
C22   C26   S    
C21   C24   A    
C2    C23   S    
C5    C7    D    
C8    H1    S    
C25   O10   S    
H4    O2    S    
C6    C8    D    
C3    O6    A    
C3    C5    S    
C2    N1    T    
C14   H9    S    
C10   C14   A    
C12   O5    A    
O9    Zn1   S    
C4    O7    A    
C5    H7    S    
