data_mof_unit_30793.cif
_audit_creation_date              2013-03-05T15:46:03-0500
_audit_creation_method            fapswitch 2.2
_symmetry_space_group_name_H-M    P1
_symmetry_Int_Tables_number       1
_space_group_crystal_system       triclinic
_cell_length_a                    17.297905
_cell_length_b                    24.202125
_cell_length_c                    14.788743
_cell_angle_alpha                 90.015941
_cell_angle_beta                  124.609365
_cell_angle_gamma                 90.002578
_cell_volume                      5095.66714259

loop_
_atom_site_label
_atom_site_type_symbol
_atom_site_description
_atom_site_fract_x
_atom_site_fract_y
_atom_site_fract_z
_atom_type_partial_charge
C1    C     C_R   0.349965 0.151683 0.907864 -0.130649
C2    C     C_R   0.350092 0.848253 0.907882 -0.133947
C3    C     C_R   0.810481 0.626146 0.909020 -0.098495
C4    C     C_R   0.810643 0.373622 0.909161 -0.096785
H1    H     H_    0.312484 0.165278 0.823546 0.087766
H2    H     H_    0.312713 0.834599 0.823587 0.087717
H3    H     H_    0.753068 0.632659 0.825089 0.093425
H4    H     H_    0.753309 0.366781 0.825362 0.092993
N1    N     N_R   0.392140 0.102630 0.941800 -0.039525
N2    N     N_R   0.392140 0.897370 0.941800 -0.039454
N3    N     N_R   0.892140 0.602630 0.941800 -0.043840
N4    N     N_R   0.892140 0.397370 0.941800 -0.043946
C5    C     C_R   0.441807 0.847445 0.091233 -0.124547
C6    C     C_R   0.441771 0.152559 0.091236 -0.125051
C7    C     C_R   0.904922 0.370446 0.092727 -0.117322
C8    C     C_R   0.904760 0.629476 0.092630 -0.118249
H5    H     H_    0.487508 0.833456 0.175189 0.094619
H6    H     H_    0.487471 0.166587 0.175188 0.093786
H7    H     H_    0.934530 0.358809 0.176244 0.090122
H8    H     H_    0.934283 0.641148 0.176125 0.089132
N5    N     N_R   0.450890 0.896450 0.057150 -0.041378
N6    N     N_R   0.450890 0.103550 0.057150 -0.041843
N7    N     N_R   0.950890 0.396450 0.057150 -0.044489
N8    N     N_R   0.950890 0.603550 0.057150 -0.044745
C9    C     C_R   0.538407 0.045866 0.299327 -0.092549
C10   C     C_R   0.538523 0.954171 0.299409 -0.103784
C11   C     C_R   0.011070 0.545670 0.281226 -0.099113
C12   C     C_R   0.011151 0.454343 0.281267 -0.099595
H9    H     H_    0.553664 0.088420 0.325825 0.102931
H10   H     H_    0.553798 0.911632 0.325959 0.107796
H11   H     H_    0.018149 0.587679 0.308748 0.095080
H12   H     H_    0.018344 0.412345 0.308830 0.098506
N9    N     N_R   0.525160 0.027960 0.206160 -0.048135
N10   N     N_R   0.525160 0.972040 0.206160 -0.047343
N11   N     N_R   0.025160 0.527960 0.206160 -0.044596
N12   N     N_R   0.025160 0.472040 0.206160 -0.044469
C13   C     C_R   0.231199 0.953506 0.750679 -0.140321
C14   C     C_R   0.231021 0.046466 0.749863 -0.139776
C15   C     C_R   0.736142 0.453467 0.708702 -0.134042
C16   C     C_R   0.735637 0.546036 0.707795 -0.135908
H13   H     H_    0.210391 0.910689 0.735618 0.102564
H14   H     H_    0.209933 0.089207 0.732824 0.100291
H15   H     H_    0.719775 0.411236 0.680598 0.112369
H16   H     H_    0.718180 0.588066 0.678453 0.109402
N13   N     N_R   0.317870 0.971120 0.792790 -0.043003
N14   N     N_R   0.317870 0.028880 0.792790 -0.042539
N15   N     N_R   0.817870 0.471120 0.792790 -0.040778
N16   N     N_R   0.817870 0.528880 0.792790 -0.040039
C17   C     C_R   0.380334 0.184172 0.999420 0.050627
C18   C     C_R   0.380440 0.815788 0.999428 0.049744
C19   C     C_R   0.814773 0.641021 0.002214 0.045074
C20   C     C_R   0.814994 0.358790 0.002388 0.043943
C21   C     C_R   0.548986 0.000031 0.361618 0.106710
C22   C     C_R   0.993026 0.500003 0.322149 0.117570
C23   C     C_R   0.174548 0.999952 0.722919 0.072269
C24   C     C_R   0.680926 0.499555 0.661678 0.068244
C25   C     C_R   0.522802 0.045817 0.755243 -0.107816
C26   C     C_R   0.522888 0.954226 0.755263 -0.108132
C27   C     C_R   0.943566 0.545357 0.693030 -0.116495
C28   C     C_R   0.943604 0.454566 0.693091 -0.117014
H17   H     H_    0.530593 0.088734 0.743897 0.150357
H18   H     H_    0.530825 0.911319 0.743934 0.150401
H19   H     H_    0.927759 0.588004 0.669218 0.158009
H20   H     H_    0.927813 0.411902 0.669398 0.159084
N17   N     N_R   0.473480 0.027920 0.793480 -0.053495
N18   N     N_R   0.473480 0.972080 0.793480 -0.053504
N19   N     N_R   0.973480 0.527920 0.793480 -0.051479
N20   N     N_R   0.973480 0.472080 0.793480 -0.051787
C29   C     C_R   0.756068 0.953725 0.302465 -0.111260
C30   C     C_R   0.756452 0.046268 0.302272 -0.096274
C31   C     C_R   0.251216 0.453784 0.305189 -0.150136
C32   C     C_R   0.251798 0.545691 0.305939 -0.141050
H21   H     H_    0.769617 0.910906 0.327225 0.111690
H22   H     H_    0.770717 0.089043 0.327655 0.101922
H23   H     H_    0.262324 0.411009 0.330184 0.121413
H24   H     H_    0.265818 0.588349 0.332143 0.102553
N21   N     N_R   0.681610 0.971120 0.207570 -0.044804
N22   N     N_R   0.681610 0.028880 0.207570 -0.045556
N23   N     N_R   0.181610 0.471120 0.207570 -0.048194
N24   N     N_R   0.181610 0.528880 0.207570 -0.047389
C33   C     C_R   0.649064 0.151061 0.093173 -0.120538
C34   C     C_R   0.649069 0.848944 0.093085 -0.119449
C35   C     C_R   0.189601 0.623122 0.091347 -0.117373
C36   C     C_R   0.189550 0.376824 0.091298 -0.115094
H25   H     H_    0.687566 0.163519 0.178283 0.092220
H26   H     H_    0.687568 0.836473 0.178168 0.092608
H27   H     H_    0.247006 0.627799 0.176348 0.090501
H28   H     H_    0.246936 0.372065 0.176267 0.090701
N25   N     N_R   0.605410 0.102620 0.056870 -0.040322
N26   N     N_R   0.605410 0.897380 0.056870 -0.039979
N27   N     N_R   0.105410 0.602620 0.056870 -0.043076
N28   N     N_R   0.105410 0.397380 0.056870 -0.043104
C37   C     C_R   0.557419 0.846850 0.910853 -0.086113
C38   C     C_R   0.557396 0.153170 0.910946 -0.085869
C39   C     C_R   0.099024 0.376155 0.907815 -0.103397
C40   C     C_R   0.099054 0.623830 0.907851 -0.106701
H29   H     H_    0.510949 0.832346 0.827362 0.090121
H30   H     H_    0.510920 0.167679 0.827483 0.090069
H31   H     H_    0.072226 0.371480 0.822208 0.105880
H32   H     H_    0.072253 0.628509 0.822248 0.105076
N29   N     N_R   0.549680 0.896430 0.944180 -0.042493
N30   N     N_R   0.549680 0.103570 0.944180 -0.042615
N31   N     N_R   0.049680 0.396430 0.944180 -0.044151
N32   N     N_R   0.049680 0.603570 0.944180 -0.043990
Ni1   Ni    Ni4+2 0.433410 0.064680 0.868830 0.213464
Ni2   Ni    Ni4+2 0.433410 0.935320 0.868830 0.213131
Ni3   Ni    Ni4+2 0.933410 0.564680 0.868830 0.236112
Ni4   Ni    Ni4+2 0.933410 0.435320 0.868830 0.237732
Ni5   Ni    Ni4+2 0.565650 0.934380 0.131170 0.231286
Ni6   Ni    Ni4+2 0.565650 0.065620 0.131170 0.229824
Ni7   Ni    Ni4+2 0.065650 0.434380 0.131170 0.235881
Ni8   Ni    Ni4+2 0.065650 0.565620 0.131170 0.231652
C41   C     C_R   0.559315 0.000048 0.734393 0.092481
C42   C     C_R   0.918917 0.499929 0.625219 0.092615
C43   C     C_R   0.803022 0.999996 0.364578 0.110902
C44   C     C_R   0.297521 0.499516 0.368204 0.168048
C45   C     C_R   0.618208 0.184412 0.003071 0.055845
C46   C     C_R   0.618244 0.815607 0.002917 0.055359
C47   C     C_R   0.188543 0.635994 0.999102 0.037889
C48   C     C_R   0.188485 0.363968 0.999042 0.036823
C49   C     C_3   0.024247 0.946191 0.636013 -0.510506
C50   C     C_3   0.021171 0.049709 0.643585 -0.462370
C51   C     C_3   0.538824 0.443106 0.595613 -0.527679
C52   C     C_3   0.536135 0.545980 0.619744 -0.470081
H33   H     H_    0.056043 0.909265 0.624638 0.145111
H34   H     H_    0.057948 0.089368 0.655489 0.147164
H35   H     H_    0.562807 0.409044 0.566498 0.152884
H36   H     H_    0.568613 0.586831 0.627407 0.140476
H37   H     H_    0.034964 0.941248 0.717141 0.210937
H38   H     H_    0.018492 0.044043 0.716450 0.221606
H39   H     H_    0.565967 0.433522 0.682427 0.200304
H40   H     H_    0.549837 0.536448 0.701300 0.220377
C53   C     C_3   0.918975 0.947347 0.539948 0.258442
C54   C     C_3   0.921216 0.054625 0.537142 0.249879
C55   C     C_3   0.431096 0.444305 0.521953 0.257003
C56   C     C_3   0.430157 0.551382 0.531173 0.255129
H41   H     H_    0.907423 0.910146 0.489440 0.055042
H42   H     H_    0.923048 0.089476 0.489173 0.051159
H43   H     H_    0.410508 0.408783 0.464859 0.049884
H44   H     H_    0.420852 0.588599 0.481604 0.047360
H45   H     H_    0.106885 0.968994 0.520503 0.173960
H46   H     H_    0.095686 0.042714 0.520741 0.170501
H47   H     H_    0.586702 0.476632 0.449827 0.193495
H48   H     H_    0.575222 0.549563 0.463116 0.184055
H49   H     H_    0.953895 0.959357 0.383003 0.191627
H50   H     H_    0.948249 0.033044 0.370134 0.192179
H51   H     H_    0.428927 0.465471 0.339043 0.192449
H52   H     H_    0.419775 0.539190 0.334447 0.189036
C57   C     C_3   0.065941 0.002891 0.525607 -0.380339
C58   C     C_3   0.551934 0.507937 0.470669 -0.364656
C59   C     C_3   0.073295 0.999760 0.634934 0.262055
C60   C     C_3   0.578970 0.499252 0.588078 0.270420
C61   C     C_3   0.897704 0.000200 0.467523 0.044204
C62   C     C_3   0.397741 0.499449 0.454328 0.033578
C63   C     C_3   0.963942 0.998532 0.428129 -0.523647
C64   C     C_3   0.445709 0.502963 0.390874 -0.524169
C65   C     C_R   0.290817 0.731422 0.899155 -0.144624
C66   C     C_R   0.290687 0.268477 0.899096 -0.144846
C67   C     C_R   0.658695 0.314339 0.905841 -0.115293
C68   C     C_R   0.658600 0.685604 0.905526 -0.109991
H53   H     H_    0.268348 0.749066 0.820737 0.115340
H54   H     H_    0.268190 0.250790 0.820682 0.116389
H55   H     H_    0.637553 0.331396 0.827423 0.115121
H56   H     H_    0.637519 0.668558 0.827100 0.121260
C69   C     C_R   0.608635 0.269920 0.906009 -0.117508
C70   C     C_R   0.608683 0.730109 0.905695 -0.110326
C71   C     C_R   0.243801 0.685125 0.899073 -0.129814
C72   C     C_R   0.243681 0.314777 0.898994 -0.127950
H57   H     H_    0.551267 0.254115 0.827663 0.121520
H58   H     H_    0.551459 0.745967 0.827343 0.123842
H59   H     H_    0.186822 0.669026 0.820736 0.122193
H60   H     H_    0.186673 0.330825 0.820652 0.123237
C73   C     C_R   0.641448 0.242405 0.004943 0.103845
C74   C     C_R   0.641453 0.757610 0.004672 0.100187
C75   C     C_R   0.262065 0.665472 0.998568 0.127210
C76   C     C_R   0.261989 0.334493 0.998487 0.126700
C77   C     C_R   0.709895 0.267448 0.104827 -0.138269
C78   C     C_R   0.709723 0.732511 0.104530 -0.138245
C79   C     C_R   0.341886 0.684256 0.097861 -0.146208
C80   C     C_R   0.341846 0.315774 0.097781 -0.145869
H61   H     H_    0.732371 0.249649 0.183159 0.125955
H62   H     H_    0.732160 0.750304 0.182873 0.125460
H63   H     H_    0.362291 0.667421 0.176178 0.110794
H64   H     H_    0.362304 0.332671 0.176093 0.111101
C81   C     C_R   0.388862 0.730624 0.098054 -0.146840
C82   C     C_R   0.388799 0.269393 0.097995 -0.146473
C83   C     C_R   0.759869 0.311923 0.104597 -0.131232
C84   C     C_R   0.759548 0.687948 0.104297 -0.130582
H65   H     H_    0.443683 0.747716 0.176546 0.118207
H66   H     H_    0.443644 0.252346 0.176491 0.118210
H67   H     H_    0.818420 0.327172 0.182765 0.122161
H68   H     H_    0.817969 0.672641 0.182469 0.121785
C85   C     C_R   0.356767 0.757707 0.998825 0.120949
C86   C     C_R   0.356657 0.242249 0.998784 0.120080
C87   C     C_R   0.741565 0.330649 0.004533 0.115443
C88   C     C_R   0.741310 0.669196 0.004258 0.109971
C89   C     C_R   0.620976 0.950384 0.640074 0.311062
C90   C     C_R   0.620081 0.049976 0.639578 0.305807
C91   C     C_R   0.877391 0.450175 0.457689 0.300102
C92   C     C_R   0.877108 0.549575 0.457565 0.300544
C93   C     C_R   0.602280 0.950311 0.535479 -0.147287
C94   C     C_R   0.600815 0.050006 0.534766 -0.139158
C95   C     C_R   0.917637 0.450037 0.399099 -0.220229
C96   C     C_R   0.917366 0.549837 0.398983 -0.220927
H69   H     H_    0.602324 0.911242 0.500208 0.167800
H70   H     H_    0.599866 0.089123 0.499023 0.162004
H71   H     H_    0.924371 0.411106 0.368317 0.149122
H72   H     H_    0.923862 0.588783 0.368065 0.148623
C97   C     C_R   0.582811 0.000093 0.477810 0.045030
C98   C     C_R   0.946793 0.499971 0.379352 0.044358
C99   C     C_R   0.611694 0.000149 0.682640 -0.053137
C100  C     C_R   0.875851 0.499870 0.505960 -0.029833
N33   N     N_R   0.857539 0.942389 0.578567 0.268568
O1    O     O_R   0.786188 0.908833 0.528544 -0.400541
O2    O     O_R   0.878989 0.965919 0.669279 -0.328456
N34   N     N_R   0.853284 0.070131 0.562671 0.260549
O3    O     O_R   0.869467 0.113890 0.622149 -0.356170
O4    O     O_R   0.771225 0.046816 0.514080 -0.376382
N35   N     N_R   0.389907 0.435408 0.584560 0.263927
O5    O     O_R   0.320069 0.401182 0.547273 -0.395906
O6    O     O_R   0.428424 0.456119 0.682481 -0.351237
N36   N     N_R   0.378351 0.562037 0.581245 0.261968
O7    O     O_R   0.405276 0.602593 0.650811 -0.392355
O8    O     O_R   0.297805 0.538753 0.544536 -0.349612
Br1   Br    Br    0.668435 0.883369 0.724143 -0.519873
Br2   Br    Br    0.667363 0.117144 0.723298 -0.514709
Br3   Br    Br    0.817582 0.383673 0.459322 -0.592221
Br4   Br    Br    0.816644 0.615805 0.458834 -0.596615

loop_
_geom_bond_atom_site_label_1
_geom_bond_atom_site_label_2
_geom_bond_distance
_ccdc_geom_bond_type
C26   H18   1.072999 S    
C35   H27   1.077493 S    
C53   H41   1.112909 S    
C37   H29   1.079916 S    
N25   N30   1.371951 A    
C30   N22   1.324597 A    
C6    H6    1.080017 S    
C40   C47   1.389520 A    
C28   C42   1.381659 A    
N11   N12   1.353385 A    
N8    Ni8   1.874540 S    
C8    C19   1.387397 A    
N27   N32   1.371951 A    
C4    H4    1.072622 S    
N19   Ni3   1.841347 S    
C65   C71   1.384097 A    
C31   N23   1.317474 A    
N21   Ni5   1.874976 S    
C11   C22   1.378456 A    
C66   C72   1.384016 A    
C35   C47   1.389339 A    
N13   N14   1.397917 A    
C67   C87   1.401377 A    
H52   C64   1.114246 S    
N4    N7    1.404998 A    
C66   C86   1.402895 A    
C55   C62   1.568316 S    
C4    C20   1.384847 A    
C1    H1    1.079533 S    
C68   H56   1.080574 S    
H46   C57   1.113946 S    
C71   C75   1.401219 A    
C8    H8    1.071818 S    
N34   O4    1.300249 A    
C14   H14   1.078106 S    
C3    H3    1.073142 S    
C19   C88   1.457527 S    
C57   C59   1.549981 S    
C12   C22   1.378413 A    
C18   C85   1.462710 S    
C39   H31   1.078782 S    
N1    N6    1.404981 A    
N9    Ni6   1.853115 S    
N16   Ni3   1.859015 S    
C17   C86   1.462592 S    
C38   H30   1.079911 S    
N1    Ni1   1.841841 S    
N14   Ni1   1.859015 S    
C33   C45   1.380101 A    
N3    N8    1.404981 A    
C54   N34   1.472461 S    
C52   H40   1.113343 S    
N30   Ni1   1.904213 S    
C72   C76   1.401144 A    
C91   C100  1.406408 A    
C92   Br4   1.919898 S    
C42   C100  1.474139 S    
C25   H17   1.072815 S    
C50   C54   1.545941 S    
H48   C58   1.113925 S    
C2    C18   1.385341 A    
N28   N31   1.371934 A    
C27   N19   1.334092 A    
C49   H33   1.111093 S    
C7    H7    1.071795 S    
C29   N21   1.323896 A    
C56   H44   1.113988 S    
C10   N10   1.334337 A    
H47   C58   1.114089 S    
C29   C43   1.381801 A    
H50   C63   1.114850 S    
C96   H72   1.081077 S    
C37   N29   1.332413 A    
C39   N31   1.334119 A    
C16   C24   1.375709 A    
C90   C94   1.388118 A    
C26   C41   1.393991 A    
C81   C85   1.402290 A    
C95   C98   1.402691 A    
C29   H21   1.079676 S    
N31   Ni4   1.904609 S    
C68   C70   1.381405 A    
C4    N4    1.333209 A    
C74   C78   1.401419 A    
C44   C62   1.455805 S    
C32   H24   1.080679 S    
C52   H36   1.110644 S    
C33   N25   1.331155 A    
C7    N7    1.334375 A    
C52   C60   1.562433 S    
C8    N8    1.334625 A    
C58   C64   1.523198 S    
C43   C61   1.472329 S    
C91   C95   1.385884 A    
C56   C62   1.568742 S    
C2    H2    1.079564 S    
C20   C87   1.457351 S    
N18   Ni2   1.841617 S    
C93   C97   1.402403 A    
C24   C60   1.454143 S    
C26   N18   1.336110 A    
C79   H63   1.080712 S    
N33   O2    1.302215 A    
N2    N5    1.404998 A    
C69   H57   1.080347 S    
C70   C74   1.401338 A    
C51   H39   1.112660 S    
C52   C56   1.538137 S    
C11   H11   1.075864 S    
N19   N20   1.351449 A    
C12   H12   1.075835 S    
C1    N1    1.333428 A    
N34   O3    1.301306 A    
C41   C99   1.481355 S    
C48   C76   1.462025 S    
C49   H37   1.111571 S    
N35   O5    1.300983 A    
N4    Ni4   1.842108 S    
C3    C19   1.384959 A    
C25   C41   1.393599 A    
C11   N11   1.335149 A    
N33   O1    1.300973 A    
C95   H71   1.081011 S    
N25   Ni6   1.827904 S    
C49   C59   1.554427 S    
C51   C55   1.534311 S    
C13   C23   1.391317 A    
N27   Ni8   1.827904 S    
C50   H34   1.108880 S    
N36   O8    1.301564 A    
N26   N29   1.371934 A    
C30   H22   1.080777 S    
C89   C99   1.409640 A    
C58   C60   1.534784 S    
C92   C96   1.385965 A    
N35   O6    1.302234 A    
N6    Ni6   1.874540 S    
C76   C80   1.402109 A    
C51   H35   1.113476 S    
N15   N16   1.397917 A    
C16   H16   1.079641 S    
C36   C48   1.389180 A    
C55   N35   1.469928 S    
N24   Ni8   1.875360 S    
N12   Ni7   1.852843 S    
N9    N10   1.353385 A    
C5    N5    1.332545 A    
N22   Ni6   1.875360 S    
C15   C24   1.373330 A    
C92   C100  1.406412 A    
C7    C20   1.386803 A    
C89   C93   1.388893 A    
H51   C64   1.114434 S    
C12   N12   1.334890 A    
C78   H62   1.080432 S    
C80   C82   1.384497 A    
C81   H65   1.080315 S    
C21   C97   1.467296 S    
C70   H58   1.080343 S    
C40   N32   1.334112 A    
N3    Ni3   1.841841 S    
C30   C43   1.381866 A    
C65   C85   1.402858 A    
N2    Ni2   1.842108 S    
C61   C63   1.553100 S    
C37   C46   1.380533 A    
C34   C46   1.380255 A    
C94   C97   1.402542 A    
C13   N13   1.325302 A    
C2    N2    1.333734 A    
C10   C21   1.386108 A    
C65   H53   1.080073 S    
C35   N27   1.335421 A    
N13   Ni2   1.859390 S    
C14   C23   1.392057 A    
C15   N15   1.315359 A    
C72   H60   1.080762 S    
C45   C73   1.455882 S    
N29   Ni2   1.904609 S    
C16   N16   1.320990 A    
C32   C44   1.376833 A    
C51   C60   1.558545 S    
C53   C61   1.572235 S    
C47   C75   1.462126 S    
H49   C63   1.114620 S    
C83   C87   1.401309 A    
C62   C64   1.568702 S    
C82   C86   1.402215 A    
C36   H28   1.077396 S    
C9    C21   1.386275 A    
N23   Ni7   1.874976 S    
C77   C83   1.381721 A    
C54   H42   1.114260 S    
C71   H59   1.080759 S    
N17   Ni1   1.841347 S    
N28   Ni7   1.827634 S    
C23   C59   1.473745 S    
C79   C81   1.384543 A    
C5    H5    1.080015 S    
C39   C48   1.389438 A    
C6    C17   1.385625 A    
N7    Ni7   1.874154 S    
C84   H68   1.080794 S    
C75   C79   1.402065 A    
C90   Br2   1.921704 S    
C27   H19   1.074698 S    
C34   N26   1.331285 A    
C68   C88   1.401405 A    
C28   H20   1.074513 S    
C55   H43   1.112137 S    
C53   N33   1.469492 S    
C50   C59   1.556192 S    
C6    N6    1.332621 A    
C57   C63   1.520824 S    
C78   C84   1.381837 A    
C83   H67   1.080779 S    
C32   N24   1.322557 A    
C34   H26   1.079909 S    
C31   H23   1.079282 S    
C9    H9    1.079902 S    
H45   C57   1.114042 S    
C91   Br3   1.920830 S    
C27   C42   1.381985 A    
C77   H61   1.080433 S    
C40   H32   1.078799 S    
C5    C18   1.385399 A    
C38   C45   1.380508 A    
C31   C44   1.373490 A    
C67   H55   1.080550 S    
N17   N18   1.351449 A    
C13   H13   1.077857 S    
N36   O7    1.301481 A    
N20   Ni4   1.841617 S    
C14   N14   1.325873 A    
C3    N3    1.332867 A    
C28   N20   1.333764 A    
C66   H54   1.080054 S    
N23   N24   1.397917 A    
C54   C61   1.576065 S    
C67   C69   1.381277 A    
C22   C98   1.457322 S    
C56   N36   1.473631 S    
C84   C88   1.401309 A    
C90   C99   1.409323 A    
N15   Ni4   1.859390 S    
C94   H70   1.080002 S    
C15   H15   1.078723 S    
C96   C98   1.402722 A    
N10   Ni5   1.852843 S    
C93   H69   1.079967 S    
N21   N22   1.397917 A    
C46   C74   1.456122 S    
C82   H66   1.080325 S    
C36   N28   1.335467 A    
N26   Ni5   1.827634 S    
C49   C53   1.548025 S    
C73   C77   1.401387 A    
C69   C73   1.401256 A    
C1    C17   1.385251 A    
C50   H38   1.113064 S    
N32   Ni3   1.904213 S    
C33   H25   1.079922 S    
N11   Ni8   1.853115 S    
C80   H64   1.080700 S    
C38   N30   1.332373 A    
C9    N9    1.334052 A    
N5    Ni5   1.874154 S    
C25   N17   1.335442 A    
C10   H10   1.079946 S    
C89   Br1   1.921481 S    
