data_mof_unit_44544.cif
_audit_creation_date              2012-12-11T15:12:23-0500
_audit_creation_method            fapswitch 2.2
_symmetry_space_group_name_H-M    P1
_symmetry_Int_Tables_number       1
_space_group_crystal_system       triclinic
_cell_length_a                    30.446069
_cell_length_b                    22.16071
_cell_length_c                    18.031492
_cell_angle_alpha                 89.999944
_cell_angle_beta                  123.613419
_cell_angle_gamma                 90.000179
_cell_volume                      10131.7135516

loop_
_atom_site_label
_atom_site_type_symbol
_atom_type_description
_atom_site_fract_x
_atom_site_fract_y
_atom_site_fract_z
_atom_type_partial_charge
C1    C     C_R   0.543435 0.587191 0.739619 -0.114257
C2    C     C_R   0.301008 0.782618 0.411690 0.090311
C3    C     C_R   0.376817 0.180957 0.149312 -0.002293
C4    C     C_R   0.815992 0.191902 0.957049 -0.003411
C5    C     C_R   0.123184 0.680957 0.850688 -0.002292
C6    C     C_R   0.184007 0.191902 0.042951 -0.003410
C7    C     C_R   0.876820 0.680950 0.149327 -0.002296
C8    C     C_R   0.233970 0.663070 0.944886 -0.058741
C9    C     C_R   0.706317 0.194902 0.863084 -0.078506
C10   C     C_R   0.766033 0.663062 0.055123 -0.058742
C11   C     C_R   0.293683 0.194900 0.136918 -0.078506
C12   C     C_R   0.733969 0.163070 0.944886 -0.058741
C13   C     C_R   0.213620 0.367764 0.425081 0.036197
C14   C     C_R   0.206318 0.694904 0.863085 -0.078507
C15   C     C_R   0.266031 0.163068 0.055116 -0.058741
C16   C     C_R   0.793683 0.694899 0.136921 -0.078500
C17   C     C_R   0.731859 0.211715 0.820154 0.152579
C18   C     C_R   0.203917 0.640730 0.978610 0.138356
C19   C     C_R   0.268140 0.211714 0.179847 0.152578
C20   C     C_R   0.796089 0.640714 0.021408 0.138340
C21   C     C_R   0.231861 0.711719 0.820157 0.152579
C22   C     C_R   0.703917 0.140732 0.978614 0.138356
C23   C     C_R   0.768139 0.711718 0.179846 0.152581
C24   C     C_R   0.698991 0.782626 0.588300 0.090234
C25   C     C_R   0.296083 0.140730 0.021390 0.138355
C26   C     C_R   0.786992 0.213026 0.868799 0.151107
C27   C     C_R   0.148143 0.640113 0.922351 0.177948
C28   C     C_R   0.213007 0.213027 0.131201 0.151106
C29   C     C_R   0.851864 0.640100 0.077672 0.177975
C30   C     C_R   0.286994 0.713033 0.868804 0.151106
C31   C     C_R   0.648142 0.140115 0.922356 0.177948
C32   C     C_R   0.713006 0.713032 0.131196 0.151106
C33   C     C_R   0.351858 0.140113 0.077648 0.177951
C34   C     C_R   0.575725 0.611957 0.426207 -0.116458
C35   C     C_R   0.286378 0.867761 0.574917 0.036197
C36   C     C_R   0.403488 0.421085 0.575111 -0.094456
C37   C     C_R   0.424281 0.611963 0.573790 -0.116452
C38   C     C_R   0.596512 0.421084 0.424889 -0.094459
C39   C     C_R   0.075720 0.111962 0.426209 -0.116454
C40   C     C_R   0.903487 0.921088 0.575111 -0.094451
C41   C     C_R   0.924281 0.111963 0.573791 -0.116455
C42   C     C_R   0.096511 0.921084 0.424889 -0.094458
C43   C     C_R   0.383790 0.588152 0.260671 -0.140584
C44   C     C_R   0.602047 0.386493 0.695810 -0.110210
C45   C     C_R   0.616210 0.588153 0.739328 -0.140582
C46   C     C_R   0.801009 0.282620 0.411692 0.090320
C47   C     C_R   0.397953 0.386493 0.304191 -0.110215
C48   C     C_R   0.883790 0.088151 0.260670 -0.140584
C49   C     C_R   0.102046 0.886493 0.695810 -0.110213
C50   C     C_R   0.116210 0.088151 0.739329 -0.140586
C51   C     C_R   0.897953 0.886493 0.304191 -0.110217
C52   C     C_R   0.594817 0.608144 0.785971 0.105971
C53   C     C_R   0.427842 0.351649 0.282800 0.085804
C54   C     C_R   0.405184 0.608144 0.214029 0.105971
C55   C     C_R   0.572158 0.351649 0.717201 0.085802
C56   C     C_R   0.094817 0.108143 0.785972 0.105972
C57   C     C_R   0.713618 0.867773 0.425076 0.036192
C58   C     C_R   0.927841 0.851649 0.282800 0.085803
C59   C     C_R   0.905183 0.108143 0.214028 0.105972
C60   C     C_R   0.072158 0.851649 0.717201 0.085804
C61   C     C_R   0.611782 0.645747 0.500985 0.074498
C62   C     C_R   0.352932 0.409683 0.502452 0.097769
C63   C     C_R   0.388229 0.645755 0.499011 0.074498
C64   C     C_R   0.647067 0.409683 0.497548 0.097770
C65   C     C_R   0.111772 0.145754 0.500988 0.074498
C66   C     C_R   0.852930 0.909690 0.502453 0.097764
C67   C     C_R   0.888228 0.145754 0.499011 0.074500
C68   C     C_R   0.198990 0.282622 0.588308 0.090320
C69   C     C_R   0.147067 0.909682 0.497547 0.097772
C70   C     C_R   0.687963 0.386017 0.413900 -0.194457
C71   C     C_R   0.385072 0.737635 0.575762 -0.181909
C72   C     C_R   0.312036 0.386021 0.586101 -0.194458
C73   C     C_R   0.614939 0.737624 0.424229 -0.181897
C74   C     C_R   0.187961 0.886013 0.413898 -0.194458
C75   C     C_R   0.885072 0.237634 0.575763 -0.181911
C76   C     C_R   0.812030 0.886039 0.586100 -0.194456
C77   C     C_R   0.114929 0.237634 0.424237 -0.181910
C78   C     C_R   0.693886 0.397484 0.495394 0.104855
C79   C     C_R   0.776906 0.346933 0.493138 0.020848
C80   C     C_R   0.368685 0.706933 0.496603 0.092922
C81   C     C_R   0.306113 0.397487 0.504606 0.104855
C82   C     C_R   0.631329 0.706923 0.503389 0.092947
C83   C     C_R   0.193885 0.897483 0.495392 0.104857
C84   C     C_R   0.868684 0.206932 0.496604 0.092925
C85   C     C_R   0.806110 0.897499 0.504606 0.104853
C86   C     C_R   0.131317 0.206932 0.503396 0.092928
C87   C     C_R   0.744012 0.392479 0.574943 -0.203021
C88   C     C_R   0.330053 0.732883 0.414687 -0.225567
C89   C     C_R   0.255987 0.392481 0.425057 -0.203023
C90   C     C_R   0.312730 0.807605 0.492843 0.002124
C91   C     C_R   0.669959 0.732876 0.585303 -0.225641
C92   C     C_R   0.244011 0.892479 0.574941 -0.203023
C93   C     C_R   0.830052 0.232882 0.414689 -0.225575
C94   C     C_R   0.755986 0.892492 0.425055 -0.203022
C95   C     C_R   0.169948 0.232882 0.585311 -0.225585
C96   C     C_3   0.903719 0.386381 0.812534 -0.772772
C97   C     C_3   0.278516 0.808853 0.220132 -0.839592
C98   C     C_3   0.096280 0.386383 0.187466 -0.772774
C99   C     C_3   0.721388 0.808775 0.779771 -0.839660
C100  C     C_3   0.403721 0.886387 0.812528 -0.772773
C101  C     C_R   0.223093 0.346936 0.506862 0.020848
C102  C     C_3   0.778530 0.308851 0.220146 -0.839577
C103  C     C_3   0.596278 0.886389 0.187463 -0.772772
C104  C     C_3   0.221458 0.308842 0.779843 -0.839557
C105  C     C_R   0.469737 0.387977 0.299654 -0.099455
C106  C     C_R   0.687269 0.807612 0.507148 0.002146
C107  C     C_R   0.276905 0.846932 0.493136 0.020850
C108  C     C_R   0.812731 0.307606 0.492845 0.002123
C109  C     C_R   0.723089 0.846947 0.506857 0.020846
C110  C     C_R   0.187268 0.307608 0.507155 0.002122
C111  C     C_R   0.728889 0.359878 0.412251 0.142351
C112  C     C_R   0.357119 0.787893 0.574449 0.101930
C113  C     C_R   0.271110 0.359882 0.587749 0.142351
C114  C     C_R   0.642886 0.787889 0.425540 0.101932
C115  C     C_R   0.228886 0.859874 0.412249 0.142349
C116  C     C_R   0.456565 0.587191 0.260382 -0.114251
C117  C     C_R   0.857119 0.287892 0.574452 0.101932
C118  C     C_R   0.771103 0.859900 0.587746 0.142344
C119  C     C_R   0.142881 0.287893 0.425548 0.101932
C120  C     C_R   0.836114 0.357618 0.655347 0.185506
C121  C     C_R   0.256806 0.803335 0.329966 0.169627
C122  C     C_R   0.163885 0.357620 0.344653 0.185506
C123  C     C_R   0.743180 0.803362 0.670027 0.169738
C124  C     C_R   0.336114 0.857620 0.655343 0.185508
C125  C     C_R   0.756808 0.303340 0.329968 0.169632
C126  C     C_R   0.663886 0.857624 0.344647 0.185504
C127  C     C_R   0.530263 0.387978 0.700346 -0.099454
C128  C     C_R   0.243190 0.303345 0.670033 0.169646
C129  C     C_R   0.370302 0.815330 0.654181 -0.187668
C130  C     C_R   0.720505 0.341221 0.331213 -0.281063
C131  C     C_R   0.629702 0.815326 0.345808 -0.187662
C132  C     C_R   0.279494 0.341226 0.668788 -0.281068
C133  C     C_R   0.870302 0.315328 0.654184 -0.187669
C134  C     C_R   0.220501 0.841215 0.331211 -0.281057
C135  C     C_R   0.129698 0.315330 0.345816 -0.187667
C136  C     C_R   0.779482 0.841249 0.668785 -0.281037
C137  C     C_R   0.376021 0.636796 0.125325 0.031148
C138  C     C_R   0.043435 0.087190 0.739619 -0.114264
C139  C     C_R   0.584990 0.288955 0.752517 0.040726
C140  C     C_R   0.623981 0.636796 0.874676 0.031142
C141  C     C_R   0.415010 0.288955 0.247486 0.040727
C142  C     C_R   0.876020 0.136793 0.125322 0.031148
C143  C     C_R   0.084990 0.788956 0.752516 0.040726
C144  C     C_R   0.123980 0.136794 0.874678 0.031148
C145  C     C_R   0.915010 0.788954 0.247488 0.040725
C146  C     C_R   0.370725 0.700906 0.012151 -0.155168
C147  C     C_R   0.569287 0.195695 0.805824 -0.161532
C148  C     C_R   0.629277 0.700908 0.987848 -0.155171
C149  C     C_R   0.969737 0.887977 0.299655 -0.099454
C150  C     C_R   0.430714 0.195694 0.194180 -0.161532
C151  C     C_R   0.870724 0.200900 0.012144 -0.155166
C152  C     C_R   0.069287 0.695693 0.805820 -0.161533
C153  C     C_R   0.129276 0.200901 0.987855 -0.155167
C154  C     C_R   0.930717 0.695688 0.194197 -0.161531
C155  C     C_R   0.400176 0.676984 0.097671 0.194310
C156  C     C_R   0.549455 0.248274 0.753884 0.196922
C157  C     C_R   0.599826 0.676986 0.902328 0.194312
C158  C     C_R   0.450545 0.248274 0.246120 0.196923
C159  C     C_R   0.900176 0.176978 0.097665 0.194308
C160  C     C_R   0.956565 0.087190 0.260381 -0.114265
C161  C     C_R   0.049455 0.748273 0.753880 0.196923
C162  C     C_R   0.099824 0.176979 0.902334 0.194308
C163  C     C_R   0.950547 0.748271 0.246131 0.196924
C164  C     C_R   0.321637 0.626154 0.068508 -0.210739
C165  C     C_R   0.636638 0.269375 0.788524 -0.196053
C166  C     C_R   0.678364 0.626150 0.931494 -0.210785
C167  C     C_R   0.363362 0.269374 0.211479 -0.196053
C168  C     C_R   0.821636 0.126152 0.068507 -0.210738
C169  C     C_R   0.136639 0.769376 0.788525 -0.196055
C170  C     C_R   0.178364 0.126151 0.931493 -0.210740
C171  C     C_R   0.030263 0.887977 0.700346 -0.099455
C172  C     C_R   0.863361 0.769375 0.211476 -0.196051
C173  C     C_R   0.290047 0.660122 0.990784 0.106516
C174  C     C_R   0.654371 0.213276 0.829457 0.113329
C175  C     C_R   0.709955 0.660117 0.009220 0.106495
C176  C     C_R   0.345629 0.213275 0.170545 0.113329
C177  C     C_R   0.790045 0.160120 0.990783 0.106516
C178  C     C_R   0.154372 0.713277 0.829457 0.113330
C179  C     C_R   0.209954 0.160119 0.009218 0.106514
C180  C     C_R   0.845630 0.713274 0.170550 0.113331
C181  C     C_R   0.626278 0.610465 0.574555 -0.114185
C182  C     C_R   0.786378 0.367761 0.574920 0.036197
C183  C     C_R   0.353699 0.421450 0.427812 -0.108088
C184  C     C_R   0.373728 0.610469 0.425444 -0.114183
C185  C     C_R   0.646301 0.421449 0.572188 -0.108087
C186  C     C_R   0.126273 0.110468 0.574556 -0.114186
C187  C     C_R   0.853698 0.921453 0.427812 -0.108080
C188  C     C_R   0.873728 0.110469 0.425444 -0.114186
C189  C     C_R   0.146301 0.921449 0.572188 -0.108085
C190  C     C_R   0.315994 0.691907 0.957053 -0.003410
C191  C     C_R   0.623184 0.180958 0.850691 -0.002291
C192  C     C_R   0.684008 0.691905 0.042947 -0.003401
H1    H     H_    0.518468 0.584113 0.764683 0.128202
H2    H     H_    0.304297 0.590542 0.084722 0.161091
H3    H     H_    0.584682 0.839763 0.161239 0.267043
H4    H     H_    0.293404 0.282071 0.804041 0.199220
H5    H     H_    0.230440 0.287400 0.842456 0.265593
H6    H     H_    0.178944 0.301846 0.728004 0.255106
H7    H     H_    0.229669 0.357997 0.791645 0.246927
H8    H     H_    0.334691 0.299447 0.208960 0.138600
H9    H     H_    0.695702 0.590534 0.915281 0.161110
H10   H     H_    0.165310 0.799450 0.791045 0.138600
H11   H     H_    0.804296 0.090541 0.084723 0.161089
H12   H     H_    0.834689 0.799450 0.208951 0.138600
H13   H     H_    0.195704 0.090541 0.915277 0.161091
H14   H     H_    0.390885 0.729404 0.991547 0.189953
H15   H     H_    0.542485 0.168123 0.812698 0.188029
H16   H     H_    0.609118 0.729408 0.008449 0.189953
H17   H     H_    0.499947 0.377652 0.288052 0.132546
H18   H     H_    0.457515 0.168121 0.187307 0.188029
H19   H     H_    0.890884 0.229395 0.991538 0.189953
H20   H     H_    0.042486 0.668120 0.812691 0.188029
H21   H     H_    0.109116 0.229397 0.008460 0.189953
H22   H     H_    0.957520 0.668113 0.187331 0.188028
H23   H     H_    0.654130 0.621147 0.643516 0.118682
H24   H     H_    0.320029 0.426258 0.360151 0.098273
H25   H     H_    0.345876 0.621151 0.356482 0.118686
H26   H     H_    0.679971 0.426257 0.639849 0.098276
H27   H     H_    0.154124 0.121150 0.643517 0.118687
H28   H     H_    0.481533 0.584113 0.235319 0.128199
H29   H     H_    0.820029 0.926263 0.360151 0.098272
H30   H     H_    0.845876 0.121151 0.356482 0.118687
H31   H     H_    0.179971 0.926256 0.639849 0.098274
H32   H     H_    0.556498 0.625059 0.357521 0.126883
H33   H     H_    0.415643 0.425969 0.643544 0.090279
H34   H     H_    0.443510 0.625068 0.642476 0.126888
H35   H     H_    0.584357 0.425969 0.356456 0.090279
H36   H     H_    0.056491 0.125066 0.357524 0.126889
H37   H     H_    0.915642 0.925973 0.643545 0.090279
H38   H     H_    0.943509 0.125067 0.642476 0.126890
H39   H     H_    0.500053 0.377652 0.711949 0.132546
H40   H     H_    0.084357 0.925968 0.356455 0.090278
H41   H     H_    0.342667 0.587674 0.236964 0.135525
H42   H     H_    0.636422 0.372605 0.697277 0.121574
H43   H     H_    0.657333 0.587677 0.763033 0.135526
H44   H     H_    0.363578 0.372604 0.302724 0.121574
H45   H     H_    0.842667 0.087674 0.236964 0.135524
H46   H     H_    0.136422 0.872605 0.697277 0.121576
H47   H     H_    0.157333 0.087674 0.763036 0.135525
H48   H     H_    0.863578 0.872604 0.302725 0.121580
H49   H     H_    0.650260 0.391858 0.351602 0.123800
H50   H     H_    0.018468 0.084111 0.764682 0.128204
H51   H     H_    0.416638 0.719955 0.639025 0.155454
H52   H     H_    0.349739 0.391862 0.648399 0.123800
H53   H     H_    0.583377 0.719940 0.360966 0.155448
H54   H     H_    0.150258 0.891852 0.351600 0.123800
H55   H     H_    0.916637 0.219953 0.639026 0.155452
H56   H     H_    0.849731 0.891884 0.648399 0.123797
H57   H     H_    0.083363 0.219953 0.360974 0.155451
H58   H     H_    0.748881 0.402608 0.637564 0.128260
H59   H     H_    0.319027 0.711441 0.352992 0.161937
H60   H     H_    0.251119 0.402609 0.362436 0.128259
H61   H     H_    0.999947 0.877651 0.288053 0.132544
H62   H     H_    0.680990 0.711431 0.646998 0.162000
H63   H     H_    0.248881 0.902609 0.637562 0.128260
H64   H     H_    0.819024 0.211440 0.352993 0.161937
H65   H     H_    0.751118 0.902617 0.362435 0.128258
H66   H     H_    0.180977 0.211439 0.647006 0.161937
H67   H     H_    0.406240 0.801559 0.715264 0.175989
H68   H     H_    0.684372 0.353384 0.268951 0.143058
H69   H     H_    0.593769 0.801548 0.284723 0.175994
H70   H     H_    0.315626 0.353389 0.731050 0.143056
H71   H     H_    0.906239 0.301556 0.715267 0.175989
H72   H     H_    0.981532 0.084111 0.235318 0.128205
H73   H     H_    0.184368 0.853375 0.268949 0.143059
H74   H     H_    0.093761 0.301557 0.284733 0.175989
H75   H     H_    0.815611 0.853418 0.731048 0.143025
H76   H     H_    0.832678 0.429748 0.726368 0.176071
H77   H     H_    0.907428 0.414619 0.866633 0.256556
H78   H     H_    0.930692 0.404597 0.794642 0.244177
H79   H     H_    0.915314 0.339754 0.838754 0.267046
H80   H     H_    0.206588 0.782040 0.195968 0.199235
H81   H     H_    0.269539 0.787414 0.157519 0.265590
H82   H     H_    0.321033 0.801881 0.271963 0.255124
H83   H     H_    0.000053 0.877652 0.711947 0.132547
H84   H     H_    0.270281 0.858001 0.208317 0.246929
H85   H     H_    0.167322 0.429749 0.273631 0.176069
H86   H     H_    0.092572 0.414621 0.133367 0.256554
H87   H     H_    0.069307 0.404599 0.205358 0.244179
H88   H     H_    0.084685 0.339755 0.161246 0.267046
H89   H     H_    0.793378 0.782147 0.804065 0.199196
H90   H     H_    0.730239 0.787152 0.842201 0.265712
H91   H     H_    0.678875 0.801935 0.727751 0.255066
H92   H     H_    0.729692 0.857899 0.791897 0.246918
H93   H     H_    0.332678 0.929751 0.726363 0.176069
H94   H     H_    0.665309 0.299448 0.791041 0.138601
H95   H     H_    0.407429 0.914627 0.866626 0.256555
H96   H     H_    0.430692 0.904604 0.794633 0.244176
H97   H     H_    0.415317 0.839761 0.838750 0.267046
H98   H     H_    0.706594 0.282059 0.195964 0.199232
H99   H     H_    0.769544 0.287419 0.157525 0.265589
H100  H     H_    0.821044 0.301859 0.271976 0.255121
H101  H     H_    0.770313 0.358004 0.208353 0.246929
H102  H     H_    0.667321 0.929753 0.273624 0.176071
H103  H     H_    0.592568 0.914631 0.133365 0.256553
H104  H     H_    0.569308 0.904603 0.205361 0.244179
I1    I     I_    0.466023 0.257734 0.677535 -0.366883
I2    I     I_    0.234130 0.635749 0.118060 -0.448427
I3    I     I_    0.313249 0.226650 0.321657 -0.309269
I4    I     I_    0.765883 0.635709 0.881962 -0.448440
I5    I     I_    0.186754 0.726657 0.678348 -0.309275
I6    I     I_    0.734132 0.135755 0.118065 -0.448426
I7    I     I_    0.813245 0.726660 0.321654 -0.309275
I8    I     I_    0.265870 0.135751 0.881939 -0.448424
I9    I     I_    0.826092 0.243342 0.806651 -0.369648
I10   I     I_    0.102981 0.586749 0.956305 -0.305367
I11   I     I_    0.173907 0.243344 0.193347 -0.369649
I12   I     I_    0.478895 0.709169 0.179254 -0.474139
I13   I     I_    0.897031 0.586726 0.043738 -0.305338
I14   I     I_    0.326096 0.743352 0.806660 -0.369653
I15   I     I_    0.602982 0.086755 0.956316 -0.305368
I16   I     I_    0.673903 0.743352 0.193337 -0.369660
I17   I     I_    0.397019 0.086752 0.043691 -0.305362
I18   I     I_    0.533977 0.257734 0.322469 -0.366884
I19   I     I_    0.521109 0.709174 0.820743 -0.474145
I20   I     I_    0.966023 0.757732 0.677531 -0.366868
I21   I     I_    0.978896 0.209162 0.179243 -0.474136
I22   I     I_    0.033979 0.757732 0.322484 -0.366884
I23   I     I_    0.021105 0.209163 0.820755 -0.474140
I24   I     I_    0.686750 0.226651 0.678344 -0.309268
N1    N     N_R   0.532970 0.559900 0.665210 -0.046208
N2    N     N_R   0.402100 0.440070 0.454470 -0.042848
N3    N     N_R   0.402100 0.559930 0.454470 -0.045570
N4    N     N_R   0.597900 0.440070 0.545530 -0.042848
N5    N     N_R   0.097900 0.059930 0.545530 -0.045570
N6    N     N_R   0.902100 0.940070 0.454470 -0.042848
N7    N     N_R   0.902100 0.059930 0.454470 -0.045570
N8    N     N_R   0.097900 0.940070 0.545530 -0.042848
N9    N     N_R   0.567170 0.559950 0.454460 -0.048446
N10   N     N_R   0.432830 0.440050 0.545540 -0.042244
N11   N     N_R   0.432830 0.559950 0.545540 -0.048447
N12   N     N_R   0.467030 0.440100 0.334790 -0.050338
N13   N     N_R   0.567170 0.440050 0.454460 -0.042244
N14   N     N_R   0.067170 0.059950 0.454460 -0.048447
N15   N     N_R   0.932830 0.940050 0.545540 -0.042244
N16   N     N_R   0.932830 0.059950 0.545540 -0.048447
N17   N     N_R   0.067170 0.940050 0.454460 -0.042243
N18   N     N_R   0.421470 0.559970 0.334770 -0.043567
N19   N     N_R   0.578530 0.440030 0.665230 -0.047159
N20   N     N_R   0.578530 0.559970 0.665230 -0.043564
N21   N     N_R   0.421470 0.440030 0.334770 -0.047160
N22   N     N_R   0.921470 0.059970 0.334770 -0.043566
N23   N     N_R   0.467030 0.559900 0.334790 -0.046207
N24   N     N_R   0.078530 0.940030 0.665230 -0.047160
N25   N     N_R   0.078530 0.059970 0.665230 -0.043566
N26   N     N_R   0.921470 0.940030 0.334770 -0.047160
N27   N     N_2   0.849660 0.387788 0.735935 -0.102083
N28   N     N_2   0.246042 0.781976 0.246887 -0.104052
N29   N     N_2   0.150339 0.387790 0.264064 -0.102084
N30   N     N_2   0.753937 0.782004 0.753104 -0.104070
N31   N     N_2   0.349661 0.887792 0.735931 -0.102082
N32   N     N_2   0.746046 0.281984 0.246888 -0.104052
N33   N     N_2   0.650339 0.887794 0.264058 -0.102081
N34   N     N_R   0.532970 0.440100 0.665210 -0.050338
N35   N     N_2   0.253952 0.281988 0.753113 -0.104051
N36   N     N_R   0.032970 0.059900 0.665210 -0.046207
N37   N     N_R   0.967030 0.940100 0.334790 -0.050337
N38   N     N_R   0.967030 0.059900 0.334790 -0.046207
N39   N     N_R   0.032970 0.940100 0.665210 -0.050338
N40   N     N_R   0.597900 0.559930 0.545530 -0.045568
Ni1   Ni    Ni4+2 0.483030 0.500000 0.604430 0.223916
Ni2   Ni    Ni4+2 0.516970 0.500000 0.395570 0.223916
Ni3   Ni    Ni4+2 0.983030 0.000000 0.604430 0.223916
Ni4   Ni    Ni4+2 0.016970 0.000000 0.395570 0.223917
Ni5   Ni    Ni4+2 0.587400 0.500000 0.604430 0.229995
Ni6   Ni    Ni4+2 0.412600 0.500000 0.395570 0.229989
Ni7   Ni    Ni4+2 0.087400 0.000000 0.604430 0.229990
Ni8   Ni    Ni4+2 0.912600 0.000000 0.395570 0.229988

loop_
_geom_bond_atom_site_label_1
_geom_bond_atom_site_label_2
_ccdc_geom_bond_type
C87   H58   S    
C7    C29   A    
C6    C179  A    
C127  N34   A    
C184  N3    A    
C101  C113  A    
C50   N25   A    
C75   C117  A    
N26   Ni8   S    
C74   C83   A    
C117  C133  A    
C87   C182  A    
C153  H21   S    
C48   H45   S    
H4    N35   S    
C103  H104  S    
C41   C67   A    
C100  H95   S    
C49   C60   A    
C36   N10   A    
C116  N23   A    
N18   Ni6   S    
C14   C21   A    
C162  I23   S    
C90   C107  A    
C98   H87   S    
N40   Ni5   S    
C48   N22   A    
C94   H65   S    
C73   H53   S    
C183  H24   S    
C55   C139  S    
C120  C133  A    
C2    C90   A    
C62   C183  A    
C11   C15   A    
N9    N40   A    
C57   C109  A    
C59   C142  S    
C10   C20   A    
C54   C116  A    
C167  H8    S    
N19   Ni5   S    
C112  C129  A    
C68   C128  A    
C174  C191  A    
C47   C53   A    
N37   Ni4   S    
H89   N30   S    
C39   C65   A    
C76   H56   S    
C66   C85   S    
H102  N33   S    
C36   C62   A    
N7    N16   A    
C37   C63   A    
C109  C118  A    
C102  H101  S    
C38   C64   A    
C99   N30   S    
C68   C95   A    
C181  N40   A    
C170  H13   S    
H93   N31   S    
C101  C110  A    
C72   C113  A    
C34   C61   A    
C76   C118  A    
C73   C114  A    
C1    H1    S    
N26   N37   A    
C59   C160  A    
C43   C54   A    
C1    N1    A    
C41   N16   A    
C164  C173  A    
C68   C110  A    
N34   Ni1   S    
C39   H36   S    
C128  N35   S    
C47   N21   A    
C37   H34   S    
C62   C81   S    
H80   N28   S    
C136  H75   S    
C17   I24   S    
N24   N39   A    
C118  C136  A    
C186  H27   S    
C2    C121  A    
C35   C124  A    
C104  H6    S    
C130  H68   S    
C115  C134  A    
N25   Ni7   S    
C79   C182  A    
C61   C82   S    
C165  C174  A    
C97   N28   S    
C102  N32   S    
C80   C88   A    
C10   C16   A    
C44   C55   A    
N9    Ni2   S    
N23   Ni2   S    
C79   C108  A    
N4    Ni5   S    
C6    C153  A    
C35   C107  A    
C86   C95   A    
C142  C168  A    
C92   H63   S    
C3    C176  A    
C120  C182  A    
C76   C85   A    
C143  C161  A    
C102  H99   S    
C78   C87   A    
C36   H33   S    
C89   H60   S    
C15   C179  A    
H76   N27   S    
C49   N24   A    
C139  C156  A    
C93   H64   S    
N16   Ni3   S    
C11   C176  A    
C150  H18   S    
C50   H47   S    
C22   I6    S    
C60   C143  S    
C123  N30   S    
C164  H2    S    
C75   C84   A    
C15   C25   A    
C45   N20   A    
C149  H61   S    
N18   N23   A    
C12   C22   A    
C137  C155  A    
C139  C165  A    
C33   I17   S    
C169  H10   S    
C5    C27   A    
C6    C28   A    
C147  C191  A    
C46   C108  A    
N38   Ni4   S    
C51   H48   S    
C38   N13   A    
C116  H28   S    
C152  C161  A    
C124  N31   S    
C84   C93   A    
C134  H73   S    
C145  C172  A    
N5    N14   A    
C1    C52   A    
C63   C80   S    
C185  H26   S    
C126  N33   S    
C156  I1    S    
C171  H83   S    
C175  C192  A    
C43   N18   A    
C148  H16   S    
C145  C163  A    
C45   C52   A    
C31   I15   S    
C96   H77   S    
C32   I16   S    
C24   C123  A    
C50   C56   A    
C151  C159  A    
N22   Ni8   S    
C103  N33   S    
C71   C112  A    
N2    Ni6   S    
C19   C28   A    
C14   C178  A    
C120  N27   S    
C55   C127  A    
C16   C23   A    
C57   C94   A    
C24   C106  A    
C48   C59   A    
C132  H70   S    
C10   C175  A    
C133  H71   S    
C65   C186  A    
N36   Ni3   S    
C188  N7    A    
C60   C171  A    
C64   C78   S    
C108  C117  A    
C129  H67   S    
C110  C119  A    
C103  H103  S    
C100  H96   S    
C27   I10   S    
C170  C179  A    
C98   H88   S    
C99   H92   S    
C138  N36   A    
N5    Ni7   S    
C7    C154  A    
H85   N29   S    
C74   C115  A    
C189  N8    A    
C28   I11   S    
C7    C180  A    
C40   N15   A    
C148  C157  A    
C30   C190  A    
C9    C12   A    
C5    C178  A    
C185  N4    A    
C98   N29   S    
C53   C105  A    
C183  N2    A    
C41   H38   S    
C104  N35   S    
C160  H72   S    
C40   H37   S    
C16   C180  A    
C25   C33   A    
C38   H35   S    
C131  H69   S    
C106  C109  A    
C42   H40   S    
C148  C192  A    
C95   H66   S    
C113  C132  A    
C96   N27   S    
C114  C131  A    
C72   H52   S    
C46   C125  A    
C142  C159  A    
C154  H22   S    
C58   C145  S    
C65   C86   S    
C96   H79   S    
C25   I8    S    
C11   C19   A    
C166  C175  A    
C103  H3    S    
H98   N32   S    
C70   H49   S    
C74   H54   S    
C54   C137  S    
C3    C33   A    
C168  C177  A    
N2    N10   A    
C31   C191  A    
C173  C190  A    
C105  H17   S    
C32   C192  A    
N14   Ni4   S    
C172  H12   S    
N24   Ni7   S    
C146  C155  A    
N19   N34   A    
C135  H74   S    
N12   Ni2   S    
C121  C134  A    
C97   H82   S    
C159  I21   S    
C72   C81   A    
C81   C89   A    
C35   C92   A    
C172  C180  A    
C152  H20   S    
C40   C66   A    
C66   C187  A    
C29   I13   S    
N1    Ni1   S    
C140  C166  A    
C141  C167  A    
C34   N9    A    
N21   Ni6   S    
C98   H86   S    
N1    N20   A    
C187  H29   S    
C119  C135  A    
C157  I19   S    
C166  H9    S    
C100  H97   S    
C4    C177  A    
C44   N19   A    
C149  N37   A    
N7    Ni8   S    
C181  H23   S    
C51   C58   A    
C147  C156  A    
N6    Ni8   S    
C88   H59   S    
C184  H25   S    
N11   Ni1   S    
C18   I2    S    
C51   N26   A    
C43   H41   S    
C77   H57   S    
C73   C82   A    
C144  C170  A    
C75   H55   S    
C67   C188  A    
C102  H100  S    
C47   H44   S    
N4    N13   A    
C3    C150  A    
C63   C184  A    
C150  C158  A    
N6    N15   A    
C45   H43   S    
C49   H46   S    
C4    C26   A    
C21   C30   A    
C61   C181  A    
C153  C162  A    
C23   C32   A    
C37   N11   A    
C71   H51   S    
N10   Ni1   S    
C42   N17   A    
C52   C140  S    
C124  C129  A    
C161  I20   S    
C53   C141  S    
C97   H84   S    
C8    C18   A    
C122  C135  A    
C70   C111  A    
C82   C91   A    
C56   C144  S    
C99   H90   S    
C141  C158  A    
C155  I12   S    
C125  N32   S    
N39   Ni3   S    
N12   N21   A    
C122  N29   S    
C188  H30   S    
C186  N5    A    
C70   C78   A    
C104  H5    S    
C90   C112  A    
C146  H14   S    
C83   C92   A    
C5    C152  A    
C151  H19   S    
C106  C114  A    
C17   C26   A    
C158  I18   S    
N13   Ni2   S    
C163  I22   S    
C171  N39   A    
C187  N6    A    
C96   H78   S    
C111  C130  A    
C125  C130  A    
C2    C88   A    
C64   C185  A    
C138  H50   S    
C58   C149  A    
C12   C177  A    
N8    Ni7   S    
C67   C84   S    
C128  C132  A    
C71   C80   A    
C34   H32   S    
C13   C89   A    
C20   C29   A    
C22   C31   A    
N25   N36   A    
C154  C163  A    
C143  C169  A    
C69   C189  A    
C57   C126  A    
C8    C173  A    
C42   C69   A    
C165  H94   S    
C69   C83   S    
C44   H42   S    
C140  C157  A    
C56   C138  A    
C85   C94   A    
N3    Ni6   S    
C127  H39   S    
N15   Ni3   S    
C9    C174  A    
C147  H15   S    
C30   I14   S    
C107  C115  A    
C9    C17   A    
C77   C86   A    
C104  H7    S    
N3    N11   A    
C13   C101  A    
N22   N38   A    
C24   C91   A    
C169  C178  A    
C4    C151  A    
C105  N12   A    
C8    C14   A    
C100  N31   S    
C144  C162  A    
C18   C27   A    
N8    N17   A    
C77   C119  A    
C137  C164  A    
C189  H31   S    
C91   H62   S    
N20   Ni5   S    
C168  H11   S    
C79   C111  A    
C123  C136  A    
C13   C122  A    
C46   C93   A    
C126  C131  A    
C20   I4    S    
C19   I3    S    
C21   I5    S    
C121  N28   S    
C160  N38   A    
N17   Ni4   S    
C23   I7    S    
C39   N14   A    
C26   I9    S    
C146  C190  A    
C97   H81   S    
C167  C176  A    
C99   H91   S    
