data_mof_unit_49917.cif
_audit_creation_date              2013-03-05T16:56:53-0500
_audit_creation_method            fapswitch 2.2
_symmetry_space_group_name_H-M    P1
_symmetry_Int_Tables_number       1
_space_group_crystal_system       triclinic
_cell_length_a                    17.495846
_cell_length_b                    16.785768
_cell_length_c                    15.718812
_cell_angle_alpha                 88.772868
_cell_angle_beta                  90.721535
_cell_angle_gamma                 89.489915
_cell_volume                      4614.70081863

loop_
_atom_site_label
_atom_site_type_symbol
_atom_site_description
_atom_site_fract_x
_atom_site_fract_y
_atom_site_fract_z
_atom_type_partial_charge
O1    O     O_R   0.389130 0.566570 0.500000 -0.626991
O2    O     O_R   0.389130 0.433430 0.500000 -0.609851
C1    C     C_R   0.353183 0.500285 0.502642 0.890097
O3    O     O_R   0.500020 0.566570 0.377150 -0.601470
O4    O     O_R   0.500020 0.433430 0.377150 -0.620489
C2    C     C_R   0.499190 0.500682 0.337889 0.927833
Zn1   Zn    Zn3+2 0.500020 0.588860 0.500000 0.937222
Zn2   Zn    Zn3+2 0.500020 0.411140 0.500000 0.938083
O5    O     O_R   0.610900 0.566520 0.500010 -0.623023
O6    O     O_R   0.610900 0.433480 0.500010 -0.626105
O7    O     O_R   0.500010 0.566510 0.622860 -0.628479
O8    O     O_R   0.500010 0.433490 0.622860 -0.624334
C3    C     C_R   0.646877 0.499765 0.501099 0.921095
C4    C     C_R   0.501139 0.499121 0.661952 0.908696
C5    C     C_3   0.461343 0.564260 0.044705 -0.484863
C6    C     C_3   0.480649 0.416927 0.050610 -0.472966
C7    C     C_3   0.482468 0.413874 0.952626 0.309982
C8    C     C_3   0.458930 0.562451 0.946787 0.309043
H1    H     H_    0.399486 0.547237 0.926007 0.040804
H2    H     H_    0.422075 0.406214 0.930114 0.033319
H3    H     H_    0.402074 0.557037 0.068607 0.139107
H4    H     H_    0.420235 0.411714 0.071330 0.126786
H5    H     H_    0.510072 0.363822 0.078609 0.206551
H6    H     H_    0.480709 0.623248 0.065626 0.212914
C9    C     C_1   0.506305 0.496719 0.750499 -0.228002
C10   C     C_3   0.514141 0.496903 0.082587 0.178790
C11   C     C_3   0.512306 0.494791 0.917104 0.173438
C12   C     C_3   0.595297 0.507655 0.950162 -0.400581
C13   C     C_3   0.599820 0.510041 0.051079 0.042687
C14   C     C_1   0.510351 0.494841 0.825649 -0.049916
C15   C     C_1   0.507181 0.499711 0.173947 -0.079824
C16   C     C_1   0.502289 0.501425 0.249050 -0.190442
H7    H     H_    0.621293 0.559706 0.917980 0.164142
H8    H     H_    0.630066 0.457511 0.925539 0.198114
C17   C     C_R   0.846538 0.576523 0.518409 0.452255
C18   C     C_R   0.845792 0.435266 0.561308 0.456253
C19   C     C_R   0.768288 0.571799 0.499849 -0.341354
C20   C     C_R   0.767897 0.432007 0.542603 -0.310362
H9    H     H_    0.737453 0.623527 0.475192 0.178136
H10   H     H_    0.737846 0.376485 0.552603 0.166232
C21   C     C_R   0.729211 0.500288 0.512417 -0.152659
C22   C     C_R   0.884831 0.506625 0.545824 -0.076857
C23   C     C_1   0.965529 0.506111 0.550596 0.082122
C24   C     C_1   0.033341 0.504857 0.548462 -0.054371
C25   C     C_R   0.150249 0.572114 0.507085 0.015463
C26   C     C_R   0.156121 0.433874 0.560443 0.012406
C27   C     C_R   0.228796 0.570294 0.496136 -0.260639
C28   C     C_R   0.234960 0.433891 0.549144 -0.249984
H11   H     H_    0.256475 0.622953 0.471747 0.147134
H12   H     H_    0.268164 0.381324 0.567138 0.155956
C29   C     C_R   0.270981 0.501070 0.514826 -0.056319
C30   C     C_R   0.113819 0.503516 0.539073 0.038958
C31   C     C_R   0.484318 0.840589 0.439101 -0.396789
C32   C     C_R   0.452455 0.162860 0.462513 -0.400124
H13   H     H_    0.466717 0.878617 0.385570 0.168223
H14   H     H_    0.411790 0.127666 0.427114 0.168599
C33   C     C_R   0.479922 0.756930 0.432494 0.113950
C34   C     C_R   0.448853 0.246883 0.456144 0.118416
N1    N     N_R   0.500030 0.707230 0.500020 -0.121241
N2    N     N_R   0.500030 0.292770 0.500020 -0.120885
C35   C     C_R   0.526635 0.740744 0.573332 -0.150870
C36   C     C_R   0.555222 0.256069 0.549653 -0.148781
H15   H     H_    0.543560 0.702349 0.626143 0.156472
H16   H     H_    0.596109 0.292811 0.582341 0.146271
C37   C     C_R   0.533356 0.824800 0.581829 0.427002
C38   C     C_R   0.559857 0.171467 0.559123 0.428403
C39   C     C_R   0.509944 0.875566 0.513856 0.043423
C40   C     C_R   0.508224 0.124203 0.513432 0.041536
C41   C     C_1   0.511835 0.963240 0.518238 0.035222
C42   C     C_1   0.511315 0.036319 0.517717 0.034107
C43   C     C_R   0.451133 0.726471 0.351514 0.169155
C44   C     C_R   0.491553 0.741699 0.276415 -0.156895
C45   C     C_R   0.458330 0.725584 0.197518 -0.130911
C46   C     C_R   0.385152 0.692937 0.193147 -0.129914
C47   C     C_R   0.345096 0.676696 0.267772 -0.162870
C48   C     C_R   0.377583 0.694754 0.346611 -0.100483
H17   H     H_    0.547472 0.768798 0.278944 0.130341
H18   H     H_    0.488745 0.740205 0.139864 0.139801
H19   H     H_    0.358868 0.681673 0.131972 0.115036
H20   H     H_    0.287968 0.652643 0.264398 0.128678
H21   H     H_    0.344543 0.687794 0.403488 0.122400
C49   C     C_R   0.388713 0.283249 0.401435 0.173686
C50   C     C_R   0.405242 0.309487 0.318410 -0.109256
C51   C     C_R   0.347390 0.342311 0.266034 -0.164915
C52   C     C_R   0.272402 0.346801 0.295315 -0.124823
C53   C     C_R   0.254979 0.317377 0.376554 -0.132056
C54   C     C_R   0.312823 0.284932 0.429220 -0.158435
H22   H     H_    0.462846 0.304815 0.294400 0.125892
H23   H     H_    0.360588 0.363825 0.202621 0.124631
H24   H     H_    0.227667 0.372152 0.254688 0.122163
H25   H     H_    0.196688 0.319658 0.398714 0.134003
H26   H     H_    0.298650 0.261432 0.491701 0.121463
O9    O     O_3   0.556745 0.858065 0.657860 -0.642718
C55   C     C_3   0.629000 0.827715 0.685477 0.065541
H27   H     H_    0.667705 0.879201 0.693607 0.171296
H28   H     H_    0.657580 0.787794 0.639458 0.112673
C56   C     C_3   0.621275 0.784444 0.771657 -0.326882
H29   H     H_    0.599442 0.826782 0.819248 0.226191
H30   H     H_    0.579756 0.735121 0.766346 0.227667
C57   C     C_3   0.697995 0.750150 0.802738 -0.979685
H31   H     H_    0.719867 0.706095 0.757010 0.261820
H32   H     H_    0.690926 0.719667 0.865418 0.265638
H33   H     H_    0.740355 0.798524 0.809921 0.261952
O10   O     O_3   0.617996 0.133842 0.606147 -0.642596
C58   C     C_3   0.624123 0.163538 0.689665 0.082910
H34   H     H_    0.616994 0.112555 0.735047 0.166113
H35   H     H_    0.579356 0.208176 0.705947 0.103708
C59   C     C_3   0.703817 0.198275 0.703203 -0.355909
H36   H     H_    0.747417 0.150504 0.695371 0.229726
H37   H     H_    0.714203 0.245809 0.654577 0.209605
C60   C     C_3   0.712826 0.233031 0.791682 -0.979683
H38   H     H_    0.676236 0.287009 0.797186 0.272156
H39   H     H_    0.773209 0.250198 0.802458 0.263675
H40   H     H_    0.697083 0.188414 0.841503 0.272600
O11   O     O_3   0.531619 0.350343 0.928770 -0.627778
C61   C     C_3   0.496762 0.300444 0.868432 0.096344
H41   H     H_    0.543133 0.271112 0.833025 0.162099
H42   H     H_    0.461462 0.334196 0.820131 0.125603
C62   C     C_3   0.449792 0.235664 0.912944 -0.368688
H43   H     H_    0.486888 0.202097 0.959393 0.233197
H44   H     H_    0.402116 0.263356 0.948177 0.207818
C63   C     C_3   0.416819 0.177829 0.848797 -0.966249
H45   H     H_    0.378673 0.210046 0.802388 0.262543
H46   H     H_    0.383068 0.131616 0.882702 0.267041
H47   H     H_    0.463569 0.147960 0.814031 0.261026
O12   O     O_3   0.483030 0.636643 0.911548 -0.649511
C64   C     C_3   0.420522 0.687091 0.888930 0.058902
H48   H     H_    0.440158 0.749556 0.894386 0.165778
H49   H     H_    0.371332 0.680298 0.932896 0.118082
C65   C     C_3   0.395877 0.673468 0.796448 -0.323718
H50   H     H_    0.446252 0.679240 0.754496 0.237435
H51   H     H_    0.372912 0.612352 0.790270 0.204371
C66   C     C_3   0.334744 0.733483 0.766687 -0.956370
H52   H     H_    0.283356 0.728330 0.807154 0.256465
H53   H     H_    0.317967 0.721490 0.699818 0.266771
H54   H     H_    0.357161 0.795089 0.769644 0.271222
C67   C     C_R   0.629999 0.590543 0.086291 0.107222
C68   C     C_R   0.658136 0.592902 0.171295 -0.117740
C69   C     C_R   0.683777 0.663620 0.206598 -0.133336
C70   C     C_R   0.681976 0.734161 0.158449 -0.124566
C71   C     C_R   0.654023 0.734151 0.075112 -0.163058
C72   C     C_R   0.627982 0.663645 0.039416 -0.184020
H55   H     H_    0.660197 0.539706 0.211328 0.128316
H56   H     H_    0.704809 0.663658 0.271675 0.125392
H57   H     H_    0.701621 0.788995 0.185978 0.123170
H58   H     H_    0.651664 0.789274 0.038092 0.135818
H59   H     H_    0.604731 0.668947 0.976093 0.191126
C73   C     C_R   0.659879 0.445324 0.079730 0.134634
C74   C     C_R   0.647684 0.385719 0.143193 -0.154933
C75   C     C_R   0.705396 0.331050 0.166431 -0.131072
C76   C     C_R   0.776876 0.335221 0.128601 -0.104596
C77   C     C_R   0.791362 0.394940 0.068256 -0.129978
C78   C     C_R   0.734078 0.449883 0.044909 -0.162156
H60   H     H_    0.595197 0.380797 0.177518 0.122882
H61   H     H_    0.694786 0.285690 0.214740 0.129862
H62   H     H_    0.821377 0.292822 0.146937 0.120999
H63   H     H_    0.847245 0.399064 0.039787 0.129453
H64   H     H_    0.747659 0.496509 0.998995 0.123610
O13   O     O_3   0.888597 0.645518 0.503229 -0.637563
C79   C     C_3   0.849666 0.715670 0.527957 0.105809
H65   H     H_    0.891310 0.753277 0.562341 0.155750
H66   H     H_    0.802867 0.704334 0.574196 0.119564
C80   C     C_3   0.820829 0.763090 0.449071 -0.357581
H67   H     H_    0.869327 0.795111 0.419557 0.212183
H68   H     H_    0.797318 0.722470 0.400633 0.219527
C81   C     C_3   0.759109 0.823548 0.471732 -0.975016
H69   H     H_    0.707382 0.792248 0.494643 0.259052
H70   H     H_    0.743008 0.859936 0.414350 0.267792
H71   H     H_    0.780371 0.863796 0.521815 0.264321
O14   O     O_3   0.885416 0.367081 0.587415 -0.646852
C82   C     C_3   0.868496 0.348046 0.673290 0.068501
H72   H     H_    0.879251 0.283171 0.683304 0.172424
H73   H     H_    0.807383 0.358700 0.689287 0.131416
C83   C     C_3   0.920747 0.393678 0.733870 -0.337233
H74   H     H_    0.981387 0.383069 0.717005 0.250668
H75   H     H_    0.908528 0.458599 0.727355 0.205955
C84   C     C_3   0.908780 0.367524 0.826271 -0.985071
H76   H     H_    0.848802 0.379352 0.845076 0.267380
H77   H     H_    0.947492 0.401445 0.868390 0.263743
H78   H     H_    0.921845 0.302956 0.834978 0.265051
C85   C     C_R   0.108072 0.646100 0.482534 0.113886
C86   C     C_R   0.123155 0.717197 0.524886 -0.160567
C87   C     C_R   0.086421 0.788062 0.498892 -0.138657
C88   C     C_R   0.035185 0.788560 0.429973 -0.133284
C89   C     C_R   0.020166 0.718068 0.387285 -0.079426
C90   C     C_R   0.056339 0.646942 0.413484 -0.088157
H79   H     H_    0.163474 0.717676 0.577748 0.129658
H80   H     H_    0.098083 0.842706 0.531800 0.128483
H81   H     H_    0.007196 0.843599 0.409599 0.115052
H82   H     H_    0.980496 0.718549 0.333879 0.118013
H83   H     H_    0.044876 0.592853 0.379379 0.114494
C91   C     C_R   0.119752 0.360267 0.593564 0.093619
C92   C     C_R   0.064443 0.321036 0.544696 -0.106797
C93   C     C_R   0.031185 0.250964 0.575726 -0.080946
C94   C     C_R   0.052921 0.219530 0.655528 -0.140961
C95   C     C_R   0.108441 0.257764 0.704151 -0.142230
C96   C     C_R   0.142066 0.327693 0.673222 -0.183542
H84   H     H_    0.047407 0.344478 0.482511 0.124766
H85   H     H_    0.988361 0.221162 0.537997 0.136183
H86   H     H_    0.026837 0.165493 0.679608 0.121281
H87   H     H_    0.125401 0.233236 0.765842 0.131784
H88   H     H_    0.184999 0.356790 0.711546 0.128950

loop_
_geom_bond_atom_site_label_1
_geom_bond_atom_site_label_2
_geom_bond_distance
_ccdc_geom_bond_type
C5    C8    1.540159 S    
C38   C40   1.407876 A    
C82   H72   1.111003 S    
C47   C48   1.397186 A    
O9    C55   1.418226 S    
C50   H22   1.083388 S    
C45   C46   1.398620 A    
C2    C16   1.397979 S    
C80   H67   1.109708 S    
C67   C72   1.417643 A    
C13   C73   1.560095 S    
C3    C21   1.449341 S    
C56   H29   1.111612 S    
C25   C85   1.480478 S    
C89   H82   1.082345 S    
C27   H11   1.077309 S    
C52   C53   1.397495 A    
C88   C89   1.398030 A    
Zn1   O7    1.959414 S    
C82   H73   1.115227 S    
O12   C64   1.414329 S    
O4    C2    1.274780 A    
C12   C13   1.588648 S    
C80   H68   1.110481 S    
C68   H55   1.081384 S    
C34   C49   1.470568 S    
C43   C48   1.398838 A    
O7    C4    1.275561 A    
C33   N1    1.376158 A    
C74   C75   1.398188 A    
C32   C40   1.400186 A    
O14   C82   1.416018 S    
C34   N2    1.374814 A    
C92   H84   1.083142 S    
C26   C30   1.410188 A    
C90   H83   1.083198 S    
C7    H2    1.119455 S    
C59   H36   1.111634 S    
N2    C36   1.367660 A    
C8    H1    1.119505 S    
C25   C27   1.387275 A    
C78   H64   1.083198 S    
C35   H15   1.076887 S    
C17   C22   1.402933 A    
O5    C3    1.280022 A    
C86   C87   1.397830 A    
C36   H16   1.080866 S    
C83   H74   1.110563 S    
C18   C22   1.402423 A    
C28   C29   1.398194 A    
O13   C79   1.419034 S    
C22   C23   1.412873 S    
C61   H42   1.114635 S    
C6    C7    1.542857 S    
C84   H77   1.110397 S    
Zn2   N2    1.986923 S    
C66   H54   1.110927 S    
C76   C77   1.392367 A    
C47   H20   1.082398 S    
C92   C93   1.398123 A    
C86   H79   1.083402 S    
C24   C30   1.417631 S    
C62   H44   1.110983 S    
C93   C94   1.397342 A    
C67   C68   1.419610 A    
C12   H8    1.113138 S    
C10   C15   1.444482 S    
C74   H60   1.073839 S    
C54   H26   1.083027 S    
C11   C14   1.437527 S    
C81   H70   1.110370 S    
C55   H27   1.111199 S    
O3    Zn1   1.974820 S    
C46   H19   1.081719 S    
Zn1   N1    1.986940 S    
O10   C58   1.417334 S    
C56   H30   1.110074 S    
C32   H14   1.084618 S    
C31   H13   1.085023 S    
C6    C10   1.560043 S    
C82   C83   1.533287 S    
C26   C28   1.392964 A    
N1    C35   1.371142 A    
C46   C47   1.397075 A    
C36   C38   1.426186 A    
C7    C11   1.554554 S    
C79   C80   1.536405 S    
C38   O10   1.389087 S    
C80   C81   1.525938 S    
C70   C71   1.392506 A    
C20   C21   1.397040 A    
O3    C2    1.278107 A    
C1    C29   1.453257 S    
C53   C54   1.398550 A    
C95   C96   1.398339 A    
C5    C10   1.557233 S    
C27   C29   1.394948 A    
C55   C56   1.531382 S    
C37   C39   1.406880 A    
C85   C86   1.404374 A    
C45   H18   1.081500 S    
C57   H33   1.110798 S    
C33   C43   1.466875 S    
C39   C41   1.475396 S    
C79   H66   1.116568 S    
C48   H21   1.075565 S    
C65   H51   1.110816 S    
C23   C24   1.187335 T    
C64   H49   1.115627 S    
C87   C88   1.397219 A    
C44   H17   1.083221 S    
C35   C37   1.425853 A    
C58   H35   1.114983 S    
C69   H56   1.082750 S    
C50   C51   1.398397 A    
O11   C61   1.414777 S    
Zn2   O8    1.975187 S    
C84   H78   1.110901 S    
C57   H32   1.109248 S    
C96   H88   1.083243 S    
C60   H39   1.109434 S    
C58   C59   1.530265 S    
C51   C52   1.397769 A    
C62   H43   1.111637 S    
C55   H28   1.116335 S    
C28   H12   1.082637 S    
C83   C84   1.525825 S    
C71   H58   1.082650 S    
C81   H71   1.111054 S    
C40   C42   1.475786 S    
C5    H6    1.104747 S    
O8    C4    1.273082 A    
C12   H7    1.104586 S    
C84   H76   1.111125 S    
C6    H5    1.105718 S    
C75   H61   1.082642 S    
C66   H52   1.110788 S    
C52   H24   1.082288 S    
C65   C66   1.525026 S    
C51   H23   1.081281 S    
C63   H46   1.110330 S    
C64   H48   1.110987 S    
C56   C57   1.526264 S    
C7    O11   1.423472 S    
C94   H86   1.082269 S    
C32   C34   1.412593 A    
C62   C63   1.526175 S    
C9    C14   1.182223 T    
Zn1   O5    1.972569 S    
C77   H63   1.082546 S    
C6    H4    1.113587 S    
C60   H38   1.110266 S    
C17   C19   1.399484 A    
O1    Zn1   1.979129 S    
C72   H59   1.072161 S    
C15   C16   1.185646 T    
O2    Zn2   1.972588 S    
C8    C11   1.547395 S    
C26   C91   1.482327 S    
C44   C45   1.395725 A    
O6    C3    1.283546 A    
C31   C33   1.413037 A    
C70   H57   1.082371 S    
O4    Zn2   1.959087 S    
C85   C90   1.404221 A    
C61   C62   1.531361 S    
C13   C67   1.564762 S    
C58   H34   1.111215 S    
C18   O14   1.384752 S    
C25   C30   1.407576 A    
C59   C60   1.526554 S    
C53   H25   1.082450 S    
C91   C92   1.405129 A    
C63   H47   1.111179 S    
C18   C20   1.392380 A    
C65   H50   1.111068 S    
C95   H87   1.082306 S    
C64   C65   1.533520 S    
C43   C44   1.403660 A    
C19   H9    1.080355 S    
C87   H80   1.082375 S    
C91   C96   1.404918 A    
C20   H10   1.083628 S    
C69   C70   1.391469 A    
C89   C90   1.398020 A    
C81   H69   1.110564 S    
C37   O9    1.388482 S    
C57   H31   1.111129 S    
C59   H37   1.110783 S    
C61   H41   1.107421 S    
O2    C1    1.283241 A    
C60   H40   1.110859 S    
C73   C74   1.417074 A    
C4    C9    1.393346 S    
C19   C21   1.398289 A    
C41   C42   1.226493 T    
C31   C39   1.395518 A    
C79   H65   1.111005 S    
C83   H75   1.110974 S    
C17   O13   1.395529 S    
C68   C69   1.396331 A    
C94   C95   1.397509 A    
C93   H85   1.082373 S    
C76   H62   1.082344 S    
C5    H3    1.114113 S    
C77   C78   1.396253 A    
C10   C13   1.600285 S    
Zn2   O6    1.979126 S    
C49   C50   1.402828 A    
C73   C78   1.417238 A    
C11   C12   1.554445 S    
C66   H53   1.110782 S    
C88   H81   1.082237 S    
O1    C1    1.283122 A    
C63   H45   1.111063 S    
C71   C72   1.398092 A    
C8    O12   1.421703 S    
C49   C54   1.403201 A    
C75   C76   1.393196 A    
