data_mof_unit_54893.cif
_audit_creation_date              2012-12-11T14:04:11-0500
_audit_creation_method            fapswitch 2.2
_symmetry_space_group_name_H-M    P1
_symmetry_Int_Tables_number       1
_space_group_crystal_system       triclinic
_cell_length_a                    19.040406
_cell_length_b                    11.071714
_cell_length_c                    18.799106
_cell_angle_alpha                 89.890688
_cell_angle_beta                  89.734877
_cell_angle_gamma                 90.29539
_cell_volume                      3962.9357251

loop_
_atom_site_label
_atom_site_type_symbol
_atom_type_description
_atom_site_fract_x
_atom_site_fract_y
_atom_site_fract_z
_atom_type_partial_charge
C1    C     C_R   0.225263 0.520236 0.638865 0.560191
C2    C     C_R   0.776716 0.527665 0.358889 0.544164
C3    C     C_R   0.724998 0.022652 0.639357 0.560355
C4    C     C_R   0.276809 0.026073 0.359432 0.550019
C5    C     C_2   0.304891 0.919123 0.547950 -0.157822
C6    C     C_2   0.715505 0.893002 0.455410 -0.141412
C7    C     C_2   0.797817 0.426079 0.547523 -0.131964
C8    C     C_2   0.208658 0.391708 0.453833 -0.135100
C9    C     C_R   0.010905 0.658879 0.421965 -0.039485
C10   C     C_R   0.001555 0.664107 0.571637 -0.032893
C11   C     C_R   0.508219 0.166423 0.422929 -0.040248
C12   C     C_R   0.499140 0.158420 0.572520 -0.041848
C13   C     C_R   0.033948 0.875754 0.419507 -0.092770
C14   C     C_R   0.008501 0.889561 0.565170 -0.086477
C15   C     C_R   0.501678 0.390252 0.428537 -0.089813
C16   C     C_R   0.478453 0.377292 0.574487 -0.093530
C17   C     C_R   0.043041 0.984383 0.454916 -0.142432
C18   C     C_R   0.028733 0.992192 0.527209 -0.108783
C19   C     C_R   0.481390 0.492563 0.465966 -0.152797
C20   C     C_R   0.468800 0.485430 0.538567 -0.159432
C21   C     C_R   0.008268 0.774280 0.532393 -0.013304
C22   C     C_R   0.017212 0.769646 0.457477 -0.007904
C23   C     C_R   0.494876 0.270566 0.537096 -0.002280
C24   C     C_R   0.503184 0.275784 0.462168 -0.007082
C25   C     C_R   0.994893 0.553733 0.533969 -0.006921
C26   C     C_R   0.012696 0.550501 0.462079 -0.025008
C27   C     C_R   0.501308 0.050239 0.531557 -0.023702
C28   C     C_R   0.518848 0.056957 0.459623 -0.020456
C29   C     C_R   0.971300 0.445497 0.566537 -0.132892
C30   C     C_R   0.022703 0.437158 0.429781 -0.080331
C31   C     C_R   0.492283 0.934298 0.561746 -0.064560
C32   C     C_R   0.542463 0.951816 0.424581 -0.072475
C33   C     C_R   0.965483 0.336947 0.528791 -0.036096
C34   C     C_R   0.990782 0.333172 0.457821 0.019730
C35   C     C_R   0.522745 0.832348 0.530694 -0.026602
C36   C     C_R   0.546141 0.839833 0.459431 -0.035967
C37   C     C_2   0.254809 0.925759 0.917073 -0.108702
C38   C     C_2   0.761022 0.897662 0.071528 -0.092654
C39   C     C_2   0.738808 0.396589 0.928657 -0.093580
C40   C     C_2   0.244911 0.426792 0.083286 -0.108793
C41   C     C_2   0.255006 0.937704 0.073426 -0.093788
C42   C     C_2   0.751541 0.898359 0.915193 -0.109621
C43   C     C_2   0.747921 0.398342 0.085063 -0.106643
C44   C     C_2   0.244370 0.438330 0.926950 -0.103807
C45   C     C_R   0.226230 0.870653 0.646121 0.537264
C46   C     C_R   0.791203 0.829089 0.359715 0.536953
C47   C     C_R   0.723647 0.366791 0.644778 0.540339
C48   C     C_R   0.289677 0.330192 0.359937 0.540645
C49   C     C_2   0.227006 0.021075 0.029662 -0.150256
C50   C     C_2   0.810721 0.917899 0.951083 -0.163240
C51   C     C_2   0.688940 0.417658 0.048946 -0.162859
C52   C     C_2   0.272477 0.522308 0.970418 -0.150088
C53   C     C_2   0.214719 0.000221 0.954738 -0.165659
C54   C     C_2   0.816148 0.892208 0.026555 -0.150565
C55   C     C_2   0.683537 0.391385 0.973542 -0.148475
C56   C     C_2   0.285062 0.501642 0.045355 -0.164427
C57   C     C_2   0.011457 0.655243 0.926703 -0.096218
C58   C     C_2   0.009812 0.664998 0.083532 -0.110604
C59   C     C_2   0.511737 0.155338 0.926812 -0.104147
C60   C     C_2   0.510135 0.164962 0.083683 -0.107699
C61   C     C_2   0.025134 0.566508 0.045999 -0.162523
C62   C     C_2   0.039713 0.571988 0.970250 -0.149726
C63   C     C_2   0.525239 0.066443 0.046069 -0.162703
C64   C     C_2   0.539855 0.071913 0.970320 -0.153707
C65   C     C_R   0.028817 0.655284 0.645259 0.517330
C66   C     C_R   0.973909 0.654363 0.352579 0.506624
C67   C     C_R   0.528278 0.154005 0.645612 0.507135
C68   C     C_R   0.473264 0.155809 0.352958 0.507685
C69   C     C_R   0.237686 0.470617 0.852659 0.554470
C70   C     C_R   0.760667 0.463990 0.150392 0.556811
C71   C     C_R   0.739187 0.963774 0.849680 0.556504
C72   C     C_R   0.262168 0.970741 0.147486 0.557413
C73   C     C_R   0.228275 0.874736 0.851752 0.555771
C74   C     C_R   0.774143 0.870156 0.145515 0.558980
C75   C     C_R   0.725705 0.369514 0.854610 0.552883
C76   C     C_R   0.271646 0.375175 0.148356 0.563295
C77   C     C_R   0.031929 0.651343 0.852453 0.551651
C78   C     C_R   0.971871 0.652946 0.150162 0.548621
C79   C     C_R   0.532047 0.151345 0.852519 0.546052
C80   C     C_R   0.471946 0.152947 0.150204 0.555673
C81   C     C_2   0.240300 0.886775 0.570264 0.006263
C82   C     C_2   0.778750 0.852040 0.435416 -0.005474
C83   C     C_2   0.734664 0.387906 0.569282 0.009806
C84   C     C_2   0.272943 0.349675 0.435315 -0.003841
C85   C     C_2   0.275421 0.014238 0.435908 -0.125804
C86   C     C_2   0.733605 0.000908 0.564246 -0.121225
C87   C     C_2   0.773629 0.520423 0.435201 -0.132216
C88   C     C_2   0.233960 0.491798 0.564555 -0.114514
C89   C     C_2   0.319828 0.944222 0.472542 -0.164107
C90   C     C_2   0.697190 0.918487 0.529169 -0.181555
C91   C     C_2   0.814045 0.446693 0.472569 -0.152689
C92   C     C_2   0.189486 0.424282 0.526974 -0.172176
Cr1   Cr    Cr6+3 0.113970 0.508630 0.747920 1.003570
Cr2   Cr    Cr6+3 0.886030 0.508630 0.252080 1.052113
Cr3   Cr    Cr6+3 0.613970 0.008630 0.747920 1.055375
Cr4   Cr    Cr6+3 0.386030 0.008630 0.252080 1.030379
Cr5   Cr    Cr6+3 0.269200 0.666740 0.749850 1.033730
Cr6   Cr    Cr6+3 0.730800 0.666740 0.250150 1.068280
Cr7   Cr    Cr6+3 0.769200 0.166740 0.749850 1.012752
Cr8   Cr    Cr6+3 0.230800 0.166740 0.250150 1.036960
Cr9   Cr    Cr6+3 0.112300 0.820070 0.749800 1.000611
Cr10  Cr    Cr6+3 0.887700 0.820070 0.250200 1.028433
Cr11  Cr    Cr6+3 0.612300 0.320070 0.749800 1.031598
Cr12  Cr    Cr6+3 0.387700 0.320070 0.250200 1.012563
H1    H     H_    0.365547 0.903637 0.447700 0.170100
H2    H     H_    0.656645 0.866174 0.555191 0.164365
H3    H     H_    0.855579 0.395975 0.447442 0.185125
H4    H     H_    0.139182 0.395405 0.548683 0.158284
H5    H     H_    0.168380 0.041663 0.931852 0.154331
H6    H     H_    0.868910 0.876368 0.046319 0.151308
H7    H     H_    0.630724 0.375602 0.953694 0.155629
H8    H     H_    0.331756 0.543089 0.067924 0.156208
H9    H     H_    0.275585 0.852244 0.054579 0.090267
H10   H     H_    0.708257 0.847500 0.938590 0.105253
H11   H     H_    0.790878 0.347189 0.061972 0.112170
H12   H     H_    0.223607 0.352718 0.946118 0.085578
H13   H     H_    0.303193 0.889666 0.938750 0.106292
H14   H     H_    0.707653 0.912468 0.053558 0.091319
H15   H     H_    0.792222 0.411291 0.946719 0.095548
H16   H     H_    0.196196 0.390723 0.061911 0.098835
H17   H     H_    0.022576 0.477107 0.069854 0.158359
H18   H     H_    0.071935 0.499394 0.949237 0.156271
H19   H     H_    0.522318 0.976989 0.069814 0.158981
H20   H     H_    0.571844 0.999063 0.949250 0.155494
H21   H     H_    0.016014 0.754696 0.060720 0.106461
H22   H     H_    0.979543 0.729211 0.946194 0.088456
H23   H     H_    0.516722 0.254681 0.060993 0.102579
H24   H     H_    0.480107 0.229585 0.946384 0.096555
H25   H     H_    0.346589 0.932107 0.586250 0.116763
H26   H     H_    0.676385 0.910245 0.415462 0.162042
H27   H     H_    0.837806 0.442961 0.586663 0.113536
H28   H     H_    0.168923 0.405176 0.413520 0.140438
H29   H     H_    0.233453 0.061481 0.463021 0.098136
H30   H     H_    0.774660 0.051129 0.537230 0.160979
H31   H     H_    0.732763 0.572343 0.461105 0.094045
H32   H     H_    0.280750 0.528045 0.539582 0.103482
H33   H     H_    0.064700 0.060869 0.426642 0.154224
H34   H     H_    0.035836 0.077108 0.554523 0.127398
H35   H     H_    0.472654 0.576462 0.438069 0.138373
H36   H     H_    0.446829 0.561415 0.566567 0.163100
H37   H     H_    0.045805 0.873371 0.363164 0.141281
H38   H     H_    0.994846 0.902457 0.620352 0.141070
H39   H     H_    0.514526 0.401796 0.372893 0.150810
H40   H     H_    0.465855 0.376185 0.630569 0.145583
H41   H     H_    0.046968 0.433218 0.377584 0.178068
H42   H     H_    0.950220 0.447470 0.620104 0.123321
H43   H     H_    0.562301 0.958872 0.370593 0.173172
H44   H     H_    0.467042 0.924273 0.613101 0.181194
H45   H     H_    0.207293 0.106253 0.050178 0.154260
H46   H     H_    0.855536 0.962464 0.926224 0.155051
H47   H     H_    0.644368 0.462466 0.073496 0.156596
H48   H     H_    0.292350 0.607617 0.949557 0.156835
O1    O     O_R   0.043230 0.549300 0.667990 -0.527833
O2    O     O_R   0.956770 0.549300 0.332010 -0.511192
O3    O     O_R   0.543230 0.049300 0.667990 -0.512397
O4    O     O_R   0.456770 0.049300 0.332010 -0.516730
O5    O     O_R   0.262920 0.788600 0.824420 -0.502405
O6    O     O_R   0.737080 0.788600 0.175580 -0.484932
O7    O     O_R   0.762920 0.288600 0.824420 -0.497216
O8    O     O_R   0.237080 0.288600 0.175580 -0.499142
O9    O     O_R   0.167530 0.905110 0.830340 -0.510941
O10   O     O_R   0.832470 0.905110 0.169660 -0.504795
O11   O     O_R   0.667530 0.405110 0.830340 -0.504930
O12   O     O_R   0.332470 0.405110 0.169660 -0.506211
O13   O     O_R   0.054010 0.748440 0.822860 -0.493136
O14   O     O_R   0.945990 0.748440 0.177140 -0.504150
O15   O     O_R   0.554010 0.248440 0.822860 -0.499304
O16   O     O_R   0.445990 0.248440 0.177140 -0.497555
O17   O     O_3   0.165160 0.665150 0.749190 -0.269732
O18   O     O_3   0.834840 0.665150 0.250810 -0.305340
O19   O     O_3   0.665160 0.165150 0.749190 -0.280663
O20   O     O_3   0.334840 0.165150 0.250810 -0.294103
O21   O     O_R   0.178620 0.457600 0.674100 -0.497810
O22   O     O_R   0.821380 0.457600 0.325900 -0.496850
O23   O     O_R   0.678620 0.957600 0.674100 -0.489252
O24   O     O_R   0.321380 0.957600 0.325900 -0.502247
O25   O     O_R   0.284680 0.542100 0.669460 -0.524718
O26   O     O_R   0.715320 0.542100 0.330540 -0.501484
O27   O     O_R   0.784680 0.042100 0.669460 -0.510753
O28   O     O_R   0.215320 0.042100 0.330540 -0.517988
O29   O     O_R   0.262860 0.790390 0.676650 -0.505480
O30   O     O_R   0.737140 0.790390 0.323350 -0.481194
O31   O     O_R   0.762860 0.290390 0.676650 -0.513328
O32   O     O_R   0.237140 0.290390 0.323350 -0.510309
O33   O     O_R   0.167460 0.907030 0.670940 -0.523246
O34   O     O_R   0.832540 0.907030 0.329060 -0.493967
O35   O     O_R   0.667460 0.407030 0.670940 -0.507639
O36   O     O_R   0.332540 0.407030 0.329060 -0.502663
O37   O     O_R   0.053950 0.750220 0.675100 -0.518206
O38   O     O_R   0.946050 0.750220 0.324900 -0.523994
O39   O     O_R   0.553950 0.250220 0.675100 -0.511567
O40   O     O_R   0.446050 0.250220 0.324900 -0.529012
O41   O     O_R   0.043300 0.547370 0.827390 -0.516843
O42   O     O_R   0.956700 0.547370 0.172610 -0.502347
O43   O     O_R   0.543300 0.047370 0.827390 -0.505671
O44   O     O_R   0.456700 0.047370 0.172610 -0.506166
O45   O     O_R   0.178690 0.455820 0.821860 -0.500067
O46   O     O_R   0.821310 0.455820 0.178140 -0.489496
O47   O     O_R   0.678690 0.955820 0.821860 -0.496685
O48   O     O_R   0.321310 0.955820 0.178140 -0.488652
O49   O     O_R   0.284750 0.540170 0.828860 -0.506248
O50   O     O_R   0.715250 0.540170 0.171140 -0.506831
O51   O     O_R   0.784750 0.040170 0.828860 -0.513195
O52   O     O_R   0.215250 0.040170 0.171140 -0.508348
C93   C     C_3   0.184157 0.840626 0.519538 -0.234163
C94   C     C_3   0.205923 0.728860 0.475924 -0.297612
C95   C     C_3   0.204552 0.745101 0.395158 -0.403652
H49   H     H_    0.193446 0.656799 0.369463 0.140932
H50   H     H_    0.164086 0.810005 0.378003 0.167856
H51   H     H_    0.256616 0.775568 0.375754 0.192601
H52   H     H_    0.259551 0.700328 0.490554 0.170562
H53   H     H_    0.168200 0.655275 0.488712 0.157457
H54   H     H_    0.138756 0.812526 0.552142 0.160973
H55   H     H_    0.164982 0.913247 0.485350 0.158736
C96   C     C_3   0.838810 0.831609 0.487026 -0.245360
C97   C     C_3   0.823477 0.733076 0.543516 -0.305693
C98   C     C_3   0.838673 0.770836 0.620202 -0.403766
H56   H     H_    0.858042 0.691907 0.650812 0.127401
H57   H     H_    0.878329 0.843828 0.623271 0.169636
H58   H     H_    0.789780 0.801506 0.646472 0.192447
H59   H     H_    0.768068 0.702337 0.541730 0.167722
H60   H     H_    0.857073 0.654566 0.531137 0.162684
H61   H     H_    0.884433 0.801923 0.455407 0.146301
H62   H     H_    0.855763 0.917914 0.511176 0.197553
C99   C     C_3   0.675043 0.353073 0.518816 -0.237596
C100  C     C_3   0.692355 0.241236 0.473085 -0.297536
C101  C     C_3   0.677747 0.257123 0.393779 -0.407014
H63   H     H_    0.669473 0.167183 0.369005 0.138216
H64   H     H_    0.630711 0.312806 0.384205 0.160847
H65   H     H_    0.723428 0.299663 0.367052 0.198665
H66   H     H_    0.748398 0.216385 0.478313 0.195285
H67   H     H_    0.659817 0.164445 0.492522 0.154552
H68   H     H_    0.628116 0.330127 0.551089 0.162784
H69   H     H_    0.657619 0.430567 0.486339 0.147198
C102  C     C_3   0.328770 0.313549 0.488407 -0.250557
C103  C     C_3   0.304924 0.227121 0.548805 -0.297222
C104  C     C_3   0.323271 0.267672 0.624441 -0.404970
H70   H     H_    0.364149 0.208256 0.647568 0.125635
H71   H     H_    0.343444 0.361066 0.626022 0.184387
H72   H     H_    0.276078 0.261444 0.659203 0.174717
H73   H     H_    0.247933 0.206433 0.546095 0.172740
H74   H     H_    0.333788 0.142604 0.541081 0.162447
H75   H     H_    0.370277 0.266417 0.458293 0.137211
H76   H     H_    0.353028 0.395510 0.509027 0.165475
C105  C     C_2   0.930058 0.235286 0.566444 0.173118
H77   H     H_    0.931675 0.231430 0.624125 0.117645
O53   O     O_2   0.895566 0.159323 0.535220 -0.576961
C106  C     C_2   0.977021 0.231359 0.408295 0.210218
H78   H     H_    0.943886 0.155995 0.422871 0.187520
O54   O     O_2   0.001912 0.231231 0.348263 -0.533647
C107  C     C_2   0.539320 0.728397 0.577673 0.178653
H79   H     H_    0.573569 0.656672 0.560198 0.100511
O55   O     O_2   0.516831 0.723430 0.638602 -0.515720
C108  C     C_2   0.576530 0.735193 0.420594 0.177499
H80   H     H_    0.594766 0.655750 0.448228 0.090538
O56   O     O_2   0.581888 0.736675 0.355831 -0.498338

loop_
_geom_bond_atom_site_label_1
_geom_bond_atom_site_label_2
_ccdc_geom_bond_type
Cr6   O6    S    
C70   O50   A    
C7    C83   D    
C14   H38   S    
C15   C19   A    
C69   O49   A    
C46   O30   A    
C6    C82   D    
Cr7   O7    S    
Cr8   O20   S    
C14   C18   A    
C5    C89   S    
C35   C36   A    
C62   H18   S    
C6    H26   S    
C45   O33   A    
C96   H62   S    
Cr5   O17   S    
C57   C62   D    
C32   H43   S    
C93   C94   S    
C11   C68   S    
C98   H58   S    
C71   O51   A    
C12   C23   A    
Cr1   O17   S    
C59   C64   D    
C50   C54   S    
C4    O24   A    
C60   C63   D    
C99   H69   S    
C32   C36   A    
C14   C21   A    
C61   H17   S    
C17   H33   S    
C16   H40   S    
C48   O36   A    
Cr9   O37   S    
C38   C74   S    
C67   O39   A    
C9    C22   A    
C107  O55   D    
Cr7   O19   S    
C68   O40   A    
C77   O13   A    
C100  H66   S    
Cr12  O40   S    
C104  H71   S    
C73   O5    A    
C11   C24   A    
C2    O22   A    
C79   O43   A    
C103  C104  S    
C54   H6    S    
C75   O11   A    
C78   O42   A    
C103  H74   S    
C18   H34   S    
Cr3   O23   S    
C97   H59   S    
C65   O1    A    
C43   H11   S    
C21   C22   A    
C46   C82   S    
C1    O25   A    
C94   H52   S    
C86   H30   S    
C39   C55   D    
C88   C92   D    
C29   C33   A    
C40   C56   D    
C17   C18   A    
C8    H28   S    
C95   H51   S    
C73   O9    A    
C102  C103  S    
Cr9   O17   S    
C82   C96   S    
C8    C92   S    
C39   C75   S    
Cr6   O26   S    
C92   H4    S    
C102  H75   S    
Cr7   O31   S    
Cr3   O43   S    
C52   H48   S    
C72   O52   A    
Cr12  O20   S    
C37   C53   D    
C44   C52   D    
C1    C88   S    
C5    H25   S    
C51   H47   S    
C70   O46   A    
C8    C84   D    
C104  H70   S    
C3    C86   S    
C69   O45   A    
C61   C62   S    
C4    O28   A    
Cr9   O33   S    
C41   C49   D    
C3    O27   A    
C48   O32   A    
C106  O54   D    
C9    C26   A    
C33   C34   A    
C10   C21   A    
C25   C29   A    
Cr12  O36   S    
C12   C67   S    
C45   C81   S    
C78   O14   A    
C42   H10   S    
C87   C91   D    
C30   C34   A    
C12   C27   A    
C45   O29   A    
C95   H49   S    
C11   C28   A    
C87   H31   S    
Cr1   O21   S    
C107  H79   S    
C84   C102  S    
Cr11  O35   S    
C97   C98   S    
C88   H32   S    
C47   O31   A    
Cr10  O10   S    
C86   C90   D    
C59   C79   S    
C57   H22   S    
C74   O10   A    
C74   O6    A    
C94   C95   S    
C4    C85   S    
C51   C55   S    
C59   H24   S    
C64   H20   S    
C27   C31   A    
C36   C108  S    
C40   C76   S    
Cr5   O25   S    
Cr2   O46   S    
Cr5   O5    S    
C103  H73   S    
Cr6   O30   S    
Cr1   O45   S    
C96   C97   S    
Cr7   O27   S    
C108  H80   S    
C57   C77   S    
C72   O48   A    
C5    C81   D    
C50   H46   S    
C108  O56   D    
C101  H63   S    
C38   C54   D    
C28   C32   A    
C16   C20   A    
C1    O21   A    
C35   C107  S    
C99   C100  S    
C2    C87   S    
C100  C101  S    
Cr10  O34   S    
Cr11  O15   S    
C46   O34   A    
C33   C105  S    
C90   H2    S    
C42   C50   D    
C41   C72   S    
C15   H39   S    
C31   H44   S    
C10   C25   A    
Cr3   O47   S    
C15   C24   A    
C101  H64   S    
C65   O37   A    
C93   H55   S    
C26   C30   A    
C16   C23   A    
C47   C83   S    
C105  O53   D    
C34   C106  S    
Cr9   O13   S    
C31   C35   A    
C76   O12   A    
C55   H7    S    
Cr11  O39   S    
C66   O2    A    
C47   O35   A    
Cr8   O28   S    
Cr8   O8    S    
C7    C91   S    
C29   H42   S    
C106  H78   S    
C30   H41   S    
C81   C93   S    
C83   C99   S    
C10   C65   S    
C75   O7    A    
Cr4   O48   S    
C39   H15   S    
C37   C73   S    
C60   C80   S    
C85   C89   D    
Cr4   O24   S    
Cr7   O51   S    
C77   O41   A    
Cr2   O42   S    
C7    H27   S    
C13   H37   S    
Cr6   O50   S    
C60   H23   S    
Cr1   O41   S    
Cr5   O29   S    
C41   H9    S    
C40   H16   S    
C68   O4    A    
C96   H61   S    
Cr12  O12   S    
C63   H19   S    
Cr12  O16   S    
C71   O47   A    
C67   O3    A    
C49   H45   S    
C43   C70   S    
Cr11  O11   S    
C13   C17   A    
C80   O44   A    
C99   H68   S    
C89   H1    S    
C20   H36   S    
C19   C20   A    
Cr9   O9    S    
C25   C26   A    
C3    O23   A    
C6    C90   S    
C9    C66   S    
Cr2   O2    S    
Cr8   O52   S    
Cr11  O19   S    
C43   C51   D    
Cr4   O4    S    
C76   O8    A    
Cr10  O18   S    
C58   C61   D    
C100  H67   S    
C66   O38   A    
C98   H56   S    
Cr1   O1    S    
C42   C71   S    
Cr10  O38   S    
C56   H8    S    
C13   C22   A    
Cr3   O3    S    
C94   H53   S    
C98   H57   S    
Cr8   O32   S    
C97   H60   S    
C102  H76   S    
C49   C53   S    
C58   C78   S    
C23   C24   A    
C93   H54   S    
C63   C64   S    
Cr6   O18   S    
C48   C84   S    
Cr4   O44   S    
C101  H65   S    
C37   H13   S    
C44   H12   S    
C58   H21   S    
Cr10  O14   S    
Cr5   O49   S    
Cr4   O20   S    
C104  H72   S    
Cr2   O22   S    
C27   C28   A    
C95   H50   S    
C44   C69   S    
C38   H14   S    
C53   H5    S    
C2    O26   A    
C79   O15   A    
C105  H77   S    
Cr3   O19   S    
C80   O16   A    
C19   H35   S    
Cr2   O18   S    
C52   C56   S    
C85   H29   S    
C91   H3    S    
