data_mof_unit_43158.cif
_audit_creation_date              2012-12-10T16:50:15-0500
_audit_creation_method            fapswitch 2.2
_symmetry_space_group_name_H-M    P1
_symmetry_Int_Tables_number       1
_space_group_crystal_system       triclinic
_cell_length_a                    23.481368
_cell_length_b                    8.713607
_cell_length_c                    7.494653
_cell_angle_alpha                 102.818295
_cell_angle_beta                  94.884905
_cell_angle_gamma                 93.50861
_cell_volume                      1484.74345742

loop_
_atom_site_label
_atom_site_type_symbol
_atom_type_description
_atom_site_fract_x
_atom_site_fract_y
_atom_site_fract_z
_atom_type_partial_charge
C1    C     C_R   0.497506 0.200335 0.454416 0.877805
C2    C     C_R   0.502494 0.799665 0.545584 0.877800
C3    C     C_R   0.236218 0.544857 0.362276 -0.072607
C4    C     C_R   0.763791 0.455305 0.637860 -0.072622
C5    C     C_R   0.295413 0.543498 0.360241 -0.176438
C6    C     C_R   0.704596 0.456645 0.639864 -0.176390
C7    C     C_R   0.328737 0.501900 0.504073 -0.034468
C8    C     C_R   0.671265 0.498113 0.495938 -0.034472
C9    C     C_R   0.301983 0.461075 0.649619 -0.211512
C10   C     C_R   0.698015 0.538850 0.350344 -0.211517
C11   C     C_R   0.242425 0.458266 0.649438 0.013280
C12   C     C_R   0.757576 0.541706 0.350574 0.013307
C13   C     C_R   0.209457 0.500958 0.505229 0.289684
C14   C     C_R   0.790549 0.499121 0.494859 0.289692
C15   C     C_2   0.488474 0.033948 0.434253 0.106126
C16   C     C_2   0.511525 0.966052 0.565747 0.106131
C17   C     C_R   0.391127 0.500295 0.501318 0.816320
C18   C     C_R   0.608873 0.499705 0.498682 0.816336
C19   C     C_R   0.884547 0.639685 0.563862 0.602940
C20   C     C_R   0.115458 0.360401 0.436223 0.602924
C21   C     C_R   0.875291 0.361911 0.434145 0.589780
C22   C     C_R   0.124714 0.638175 0.565954 0.589765
C23   C     C_R   0.934797 0.359455 0.434149 -0.063869
C24   C     C_R   0.065209 0.640631 0.565949 -0.063865
C25   C     C_R   0.969908 0.501154 0.500251 -0.064267
C26   C     C_R   0.030098 0.498933 0.499845 -0.064266
C27   C     C_R   0.944917 0.644589 0.566602 -0.100253
C28   C     C_R   0.055089 0.355498 0.433491 -0.100252
C29   C     C_R   0.959520 0.218146 0.368948 -0.107248
C30   C     C_R   0.040486 0.781941 0.631151 -0.107249
C31   C     C_R   0.018711 0.214304 0.367776 0.417952
C32   C     C_R   0.981294 0.785783 0.632320 0.417951
Cu1   Cu    Cu3+1 0.506340 0.517380 0.684380 1.027097
Cu2   Cu    Cu3+1 0.493660 0.482620 0.315620 1.027098
H1    H     H_    0.932725 0.108718 0.318128 0.232747
H2    H     H_    0.067281 0.891369 0.681975 0.232746
H3    H     H_    0.210920 0.579363 0.252267 0.169100
H4    H     H_    0.789093 0.420874 0.747924 0.169120
H5    H     H_    0.315171 0.576745 0.247394 0.177599
H6    H     H_    0.684842 0.423481 0.752764 0.177570
H7    H     H_    0.327220 0.428737 0.761372 0.162873
H8    H     H_    0.672775 0.571091 0.238525 0.162861
N1    N     N_R   0.851669 0.500295 0.497675 -0.485646
N2    N     N_R   0.148337 0.499790 0.502418 -0.485646
N3    N     N_2   0.484110 0.456420 0.038520 -0.213335
N4    N     N_2   0.515890 0.543580 0.961480 -0.213335
O1    O     O_R   0.504120 0.286130 0.619770 -0.578644
O2    O     O_R   0.495880 0.713870 0.380230 -0.578641
O3    O     O_R   0.493410 0.256770 0.308360 -0.549726
O4    O     O_R   0.506590 0.743230 0.691640 -0.549724
O5    O     O_R   0.423230 0.514630 0.655730 -0.605213
O6    O     O_R   0.576770 0.485370 0.344270 -0.605221
O7    O     O_R   0.412530 0.485280 0.344320 -0.588745
O8    O     O_R   0.587470 0.514720 0.655680 -0.588755
O9    O     O_2   0.858365 0.771648 0.626300 -0.432395
O10   O     O_2   0.141639 0.228441 0.373762 -0.432405
O11   O     O_2   0.841065 0.227153 0.370527 -0.486225
O12   O     O_2   0.158941 0.772933 0.629577 -0.486234
Cl1   Cl    Cl    0.043178 0.027059 0.281595 -0.496374
Cl2   Cl    Cl    0.956827 0.973026 0.718510 -0.496367
C33   C     C_1   0.215465 0.409193 0.795825 0.288751
N5    N     N_1   0.193646 0.369059 0.912442 -0.231750
C34   C     C_1   0.784537 0.590737 0.204180 0.288756
N6    N     N_1   0.806362 0.630839 0.087563 -0.231873
Cl3   Cl    Cl    0.438462 0.934941 0.246248 -0.574234
Cl4   Cl    Cl    0.561538 0.065059 0.753753 -0.574217
C35   C     C_1   0.445280 0.341105 0.927622 0.614581
N7    N     N_1   0.412665 0.243849 0.837332 -0.313638
C36   C     C_1   0.554723 0.658887 0.072378 0.614564
N8    N     N_1   0.587340 0.756136 0.162667 -0.313620

loop_
_geom_bond_atom_site_label_1
_geom_bond_atom_site_label_2
_ccdc_geom_bond_type
N3    C35   S    
C30   C32   A    
C5    C7    A    
C22   O12   S    
C1    C15   S    
C19   N1    A    
C2    C16   S    
Cu1   O5    S    
C19   C27   A    
C29   H1    S    
Cu2   O6    S    
C3    C13   A    
C30   H2    S    
C20   O10   S    
C28   C31   A    
C17   O5    A    
Cu2   O3    S    
C23   C25   A    
Cu1   Cu2   S    
C27   C32   A    
C3    C5    A    
C18   O6    A    
C29   C31   A    
Cu2   N3    S    
N3    N4    D    
C21   O11   S    
Cu1   N4    S    
C9    C11   A    
C36   N8    T    
C10   C12   A    
Cu1   O4    S    
C23   C29   A    
C8    C10   A    
C26   C28   A    
C20   N2    A    
C4    H4    S    
C8    C18   S    
C24   C30   A    
C5    H5    S    
C21   C23   A    
C4    C14   A    
C33   N5    T    
Cu1   O1    S    
C22   C24   A    
Cu2   O2    S    
C32   Cl2   S    
C34   N6    T    
C19   O9    S    
C35   N7    T    
C15   Cl3   S    
C20   C28   A    
C17   O7    A    
C12   C14   A    
C11   C13   A    
C6    H6    S    
C16   Cl4   S    
C3    H3    S    
Cu2   O7    S    
C4    C6    A    
C1    O3    A    
C31   Cl1   S    
Cu1   O8    S    
C7    C9    A    
C12   C34   S    
C18   O8    A    
C1    O1    A    
C10   H8    S    
C6    C8    A    
C2    O4    A    
C2    O2    A    
C25   C26   A    
C21   N1    A    
C9    H7    S    
N4    C36   S    
C13   N2    S    
C22   N2    A    
C15   C16   D    
C24   C26   A    
C14   N1    S    
C11   C33   S    
C25   C27   A    
C7    C17   S    
