data_mof_unit_13011.cif
_audit_creation_date              2012-12-10T19:18:35-0500
_audit_creation_method            fapswitch 2.2
_symmetry_space_group_name_H-M    P1
_symmetry_Int_Tables_number       1
_space_group_crystal_system       triclinic
_cell_length_a                    15.770141
_cell_length_b                    14.98558
_cell_length_c                    10.615942
_cell_angle_alpha                 90.179406
_cell_angle_beta                  89.417414
_cell_angle_gamma                 90.234479
_cell_volume                      2508.64673671

loop_
_atom_site_label
_atom_site_type_symbol
_atom_type_description
_atom_site_fract_x
_atom_site_fract_y
_atom_site_fract_z
_atom_type_partial_charge
C1    C     C_R   0.337999 0.499861 0.501458 0.896164
C2    C     C_3   0.498219 0.500242 0.122728 -0.151335
C3    C     C_3   0.049604 0.573318 0.602268 -0.441112
C4    C     C_3   0.048733 0.408680 0.550861 -0.581962
C5    C     C_3   0.949974 0.409271 0.561056 0.713721
C6    C     C_3   0.950805 0.580279 0.593339 0.733378
C7    C     C_1   0.750890 0.500415 0.502662 -0.167853
C8    C     C_3   0.082934 0.501249 0.509815 0.104484
C9    C     C_3   0.917745 0.500878 0.507311 0.097665
C10   C     C_3   0.953690 0.513544 0.368967 0.751143
C11   C     C_3   0.052124 0.522933 0.375501 -0.551823
C12   C     C_1   0.826031 0.500593 0.504999 0.162213
C13   C     C_1   0.174208 0.500326 0.509379 -0.003919
C14   C     C_R   0.499078 0.500008 0.257009 0.954172
C15   C     C_1   0.249341 0.499730 0.506103 -0.204077
C16   C     C_3   0.408722 0.051373 0.491308 0.162626
C17   C     C_3   0.410007 0.946883 0.476160 0.183963
C18   C     C_3   0.544081 0.053748 0.614762 0.218578
C19   C     C_3   0.535085 0.949082 0.621091 0.256550
C20   C     C_3   0.501796 0.089853 0.491600 -0.202329
C21   C     C_3   0.502032 0.910402 0.492394 -0.188597
C22   C     C_3   0.561725 0.946583 0.381886 0.757506
C23   C     C_3   0.553433 0.053385 0.373290 0.815678
C24   C     C_1   0.499842 0.809295 0.496124 0.084126
C25   C     C_1   0.500057 0.190752 0.494227 0.183218
C26   C     C_R   0.662193 0.500145 0.500304 0.918009
C27   C     C_R   0.500244 0.499938 0.743429 0.949900
C28   C     C_3   0.492912 0.585510 0.041841 -0.244058
C29   C     C_3   0.431082 0.452114 0.043160 -0.272438
C30   C     C_3   0.426347 0.536830 0.959151 -0.259279
C31   C     C_3   0.499522 0.499521 0.878038 -0.085254
C32   C     C_3   0.564975 0.547116 0.959576 0.287926
C33   C     C_3   0.504376 0.416494 0.961321 0.407770
C34   C     C_3   0.570755 0.463388 0.041565 0.351841
H1    H     H_    0.367661 0.566807 0.921230 0.164938
H2    H     H_    0.371379 0.918145 0.555350 0.042505
H3    H     H_    0.380247 0.064375 0.586534 0.030754
H4    H     H_    0.507878 0.082272 0.696376 0.024409
H5    H     H_    0.485769 0.934904 0.694879 -0.006695
H6    H     H_    0.487945 0.654277 0.080185 0.169375
H7    H     H_    0.376913 0.412713 0.081276 0.163848
H8    H     H_    0.070898 0.556767 0.698947 0.151068
H9    H     H_    0.076961 0.389409 0.642525 0.190505
H10   H     H_    0.069609 0.358124 0.480464 0.187628
H11   H     H_    0.079408 0.638930 0.579506 0.209634
H12   H     H_    0.071512 0.592367 0.351237 0.213084
H13   H     H_    0.084171 0.479331 0.304676 0.166070
N1    N     N_1   0.498630 0.731150 0.497460 -0.129587
N2    N     N_1   0.498630 0.268850 0.497460 -0.126962
O1    O     O_R   0.377210 0.574260 0.500130 -0.620141
O2    O     O_R   0.377210 0.425740 0.500130 -0.623787
O3    O     O_R   0.500050 0.574220 0.314080 -0.639406
O4    O     O_R   0.500050 0.425780 0.314080 -0.597926
O5    O     O_R   0.622930 0.574200 0.500140 -0.615205
O6    O     O_R   0.622930 0.425800 0.500140 -0.609291
O7    O     O_R   0.500090 0.574240 0.686180 -0.604905
O8    O     O_R   0.500090 0.425760 0.686180 -0.595604
Zn1   Zn    Zn3+2 0.500090 0.599130 0.500180 0.953461
Zn2   Zn    Zn3+2 0.500090 0.400870 0.500180 0.984220
O9    O     O_3   0.919957 0.591570 0.316010 -0.756830
H14   H     H_    0.939304 0.593989 0.226738 0.345438
O10   O     O_3   0.929222 0.441157 0.291585 -0.772743
H15   H     H_    0.972499 0.393412 0.294187 0.341835
O11   O     O_3   0.631610 0.077824 0.616534 -0.510429
C35   C     C_3   0.655299 0.128950 0.722983 0.118637
H16   H     H_    0.721247 0.109561 0.745858 0.175591
H17   H     H_    0.616734 0.114667 0.809104 0.111727
C36   C     C_3   0.654110 0.228627 0.690689 -0.327232
H18   H     H_    0.677495 0.238422 0.592489 0.258076
H19   H     H_    0.588130 0.253324 0.698358 0.246521
C37   C     C_3   0.708900 0.284473 0.778456 -0.871292
H20   H     H_    0.711083 0.354388 0.744155 0.279412
H21   H     H_    0.774722 0.258508 0.781103 0.262792
H22   H     H_    0.680893 0.284465 0.874481 0.273643
O12   O     O_3   0.614890 0.911177 0.651706 -0.536347
C38   C     C_3   0.608099 0.845272 0.745943 0.152952
H23   H     H_    0.663421 0.800116 0.734965 0.186654
H24   H     H_    0.550402 0.802796 0.736188 0.128749
C39   C     C_3   0.610592 0.888164 0.876535 -0.381291
H25   H     H_    0.667937 0.931089 0.884798 0.231864
H26   H     H_    0.553714 0.930521 0.891622 0.218505
C40   C     C_3   0.612312 0.816516 0.977286 -0.935187
H27   H     H_    0.560757 0.767184 0.962202 0.279870
H28   H     H_    0.602219 0.847622 0.070002 0.290297
H29   H     H_    0.674772 0.782713 0.976093 0.264677
O13   O     O_3   0.511303 0.079970 0.261738 -0.793750
H30   H     H_    0.461968 0.040907 0.245691 0.412945
O14   O     O_3   0.538273 0.909596 0.264142 -0.830242
H31   H     H_    0.528302 0.844732 0.272269 0.332967
O15   O     O_3   0.637195 0.091365 0.378013 -0.597520
C41   C     C_3   0.665457 0.138204 0.269419 0.199873
H32   H     H_    0.720383 0.180001 0.298010 0.153246
H33   H     H_    0.617583 0.186192 0.234264 0.181562
C42   C     C_3   0.696051 0.073530 0.166555 -0.351507
H34   H     H_    0.747703 0.031718 0.204513 0.215682
H35   H     H_    0.643146 0.029701 0.136142 0.264667
C43   C     C_3   0.730314 0.122853 0.051865 -1.013188
H36   H     H_    0.681093 0.168226 0.015283 0.274510
H37   H     H_    0.747642 0.074024 0.977202 0.263081
H38   H     H_    0.787979 0.161360 0.077084 0.272423
O16   O     O_3   0.647384 0.925099 0.415228 -0.563242
C44   C     C_3   0.696522 0.874848 0.328097 0.126842
H39   H     H_    0.763463 0.896032 0.340975 0.169504
H40   H     H_    0.682740 0.889256 0.228523 0.136699
C45   C     C_3   0.691151 0.774621 0.356185 -0.367216
H41   H     H_    0.702259 0.763186 0.458112 0.253141
H42   H     H_    0.627647 0.748237 0.332454 0.219070
C46   C     C_3   0.756514 0.722329 0.279413 -0.894905
H43   H     H_    0.746316 0.732264 0.177092 0.246620
H44   H     H_    0.750047 0.650074 0.300485 0.286906
H45   H     H_    0.821659 0.744360 0.303757 0.298500
O17   O     O_3   0.359547 0.090552 0.394346 -0.583556
C47   C     C_3   0.301566 0.154969 0.440810 0.149136
H46   H     H_    0.290710 0.203683 0.364021 0.167230
H47   H     H_    0.326582 0.194095 0.521864 0.120277
C48   C     C_3   0.216861 0.110828 0.475805 -0.376244
H48   H     H_    0.194037 0.070564 0.394755 0.228770
H49   H     H_    0.225530 0.065814 0.557585 0.204424
C49   C     C_3   0.149952 0.180360 0.509249 -0.971050
H50   H     H_    0.171633 0.222994 0.588544 0.266116
H51   H     H_    0.090023 0.146498 0.537652 0.269178
H52   H     H_    0.137326 0.222734 0.425979 0.260822
O18   O     O_3   0.378425 0.920431 0.356556 -0.574626
C50   C     C_3   0.294147 0.887845 0.363903 0.158387
H53   H     H_    0.263731 0.901686 0.272129 0.164742
H54   H     H_    0.255172 0.922405 0.437077 0.111796
C51   C     C_3   0.293673 0.786862 0.385865 -0.366044
H55   H     H_    0.334456 0.753791 0.313704 0.240766
H56   H     H_    0.319557 0.772095 0.480393 0.221670
C52   C     C_3   0.204151 0.748472 0.378486 -0.953467
H57   H     H_    0.162716 0.779004 0.451923 0.270134
H58   H     H_    0.206389 0.675426 0.394230 0.273185
H59   H     H_    0.176872 0.760825 0.284110 0.264464
O19   O     O_3   0.632143 0.596754 0.908516 -0.781158
H60   H     H_    0.658297 0.627376 0.981242 0.324980
O20   O     O_3   0.510593 0.329165 0.915532 -0.767478
H61   H     H_    0.515998 0.291073 0.991168 0.345498
O21   O     O_3   0.639378 0.418459 0.097300 -0.659543
C53   C     C_3   0.716650 0.446800 0.043229 0.083849
H62   H     H_    0.732849 0.514586 0.078748 0.162583
H63   H     H_    0.713690 0.446881 0.938405 0.186396
C54   C     C_3   0.786420 0.382987 0.082606 -0.321695
H64   H     H_    0.792897 0.384907 0.186632 0.280108
H65   H     H_    0.768692 0.314176 0.054985 0.215421
C55   C     C_3   0.870734 0.407036 0.019522 -0.862201
H66   H     H_    0.864719 0.402586 0.915774 0.287973
H67   H     H_    0.920429 0.359671 0.049809 0.263534
H68   H     H_    0.890250 0.475907 0.045558 0.282426
O22   O     O_3   0.910834 0.578897 0.713632 -0.751075
H69   H     H_    0.945812 0.546357 0.775156 0.352110
O23   O     O_3   0.923887 0.400400 0.687700 -0.802295
H70   H     H_    0.944100 0.341887 0.718828 0.320964
O24   O     O_3   0.914967 0.337735 0.491687 -0.762776
H71   H     H_    0.939219 0.281363 0.524189 0.325653
O25   O     O_3   0.932238 0.663175 0.537881 -0.722264
H72   H     H_    0.870078 0.672630 0.544972 0.361743

loop_
_geom_bond_atom_site_label_1
_geom_bond_atom_site_label_2
_ccdc_geom_bond_type
C3    H8    S    
O16   C44   S    
O6    Zn2   S    
C53   H63   S    
C11   H13   S    
C38   C39   S    
C4    C8    S    
C3    C6    S    
C26   O6    A    
C43   H38   S    
C6    C9    S    
C55   H66   S    
O4    Zn2   S    
O18   C50   S    
C46   H43   S    
C45   H42   S    
C8    C13   S    
C7    C26   S    
C30   H1    S    
C2    C29   S    
C19   H5    S    
C19   C21   S    
C38   H24   S    
C8    C11   S    
C30   C31   S    
C44   H40   S    
C53   C54   S    
O8    Zn2   S    
C20   C25   S    
C28   H6    S    
C29   C33   S    
C48   H48   S    
C39   C40   S    
C44   C45   S    
C18   C19   S    
C55   H67   S    
C6    O22   S    
C17   O18   S    
C14   O3    A    
C46   H44   S    
C36   H18   S    
C35   H17   S    
C23   O13   S    
O23   H70   S    
C31   C33   S    
C1    C15   S    
C17   H2    S    
C22   O14   S    
C1    O1    A    
C6    O25   S    
C16   H3    S    
C47   C48   S    
C2    C34   S    
C21   C22   S    
C54   C55   S    
C10   O10   S    
C26   O5    A    
C9    C10   S    
O17   C47   S    
C43   H37   S    
C43   H36   S    
C49   H51   S    
C7    C12   T    
C45   C46   S    
C27   C31   S    
C24   N1    T    
C28   C32   S    
C38   H23   S    
C3    C8    S    
C27   O8    A    
C41   H32   S    
C39   H26   S    
O13   H30   S    
C16   C17   S    
C4    H10   S    
C42   C43   S    
C34   O21   S    
C17   C21   S    
O9    H14   S    
O1    Zn1   S    
C52   H58   S    
O12   C38   S    
C51   H56   S    
C5    C9    S    
C29   C30   S    
C41   H33   S    
C1    O2    A    
C31   C32   S    
C20   C23   S    
C16   C20   S    
C35   C36   S    
O10   H15   S    
C33   C34   S    
C23   O15   S    
C42   H34   S    
C42   H35   S    
C22   O16   S    
O3    Zn1   S    
C48   H49   S    
C50   C51   S    
C40   H27   S    
C40   H28   S    
C10   C11   S    
C13   C15   T    
C54   H65   S    
C52   H59   S    
O2    Zn2   S    
C51   H55   S    
C55   H68   S    
C16   O17   S    
C50   H54   S    
C47   H46   S    
O5    Zn1   S    
C49   H52   S    
C10   O9    S    
C29   H7    S    
C27   O7    A    
C4    C5    S    
N2    Zn2   S    
C37   H22   S    
C49   H50   S    
C48   C49   S    
N1    Zn1   S    
O19   H60   S    
C4    H9    S    
C40   H29   S    
C45   H41   S    
C5    O23   S    
C46   H45   S    
O11   C35   S    
C28   C30   S    
C52   H57   S    
C18   H4    S    
C51   C52   S    
C3    H11   S    
C37   H20   S    
O22   H69   S    
C41   C42   S    
C32   O19   S    
C53   H62   S    
C33   O20   S    
C18   O11   S    
O15   C41   S    
C36   C37   S    
C5    O24   S    
C19   O12   S    
O7    Zn1   S    
C18   C20   S    
C44   H39   S    
C2    C14   S    
C9    C12   S    
C25   N2    T    
O21   C53   S    
C39   H25   S    
C14   O4    A    
O14   H31   S    
C36   H19   S    
C35   H16   S    
C21   C24   S    
C37   H21   S    
O25   H72   S    
C54   H64   S    
C22   C23   S    
O20   H61   S    
C11   H12   S    
C2    C28   S    
O24   H71   S    
C32   C34   S    
C50   H53   S    
C47   H47   S    
