data_mof_unit_19998.cif
_audit_creation_date              2013-03-05T16:10:50-0500
_audit_creation_method            fapswitch 2.2
_symmetry_space_group_name_H-M    P1
_symmetry_Int_Tables_number       1
_space_group_crystal_system       triclinic
_cell_length_a                    10.673816
_cell_length_b                    9.85768
_cell_length_c                    11.548894
_cell_angle_alpha                 89.969605
_cell_angle_beta                  90.271173
_cell_angle_gamma                 89.816676
_cell_volume                      1215.14378895

loop_
_atom_site_label
_atom_site_type_symbol
_atom_site_description
_atom_site_fract_x
_atom_site_fract_y
_atom_site_fract_z
_atom_type_partial_charge
O1    O     O_R   0.316770 0.614620 0.499990 -0.597915
O2    O     O_R   0.683230 0.385380 0.500010 -0.598324
O3    O     O_R   0.683230 0.614620 0.500010 -0.605206
O4    O     O_R   0.316770 0.385380 0.499990 -0.605182
N1    N     N_R   0.500000 0.857200 0.500000 -0.101840
N2    N     N_R   0.500000 0.142800 0.500000 -0.101944
C1    C     C_R   0.260325 0.500271 0.499353 1.017354
C2    C     C_R   0.739675 0.499733 0.500679 1.018995
O5    O     O_R   0.500020 0.614670 0.334450 -0.631969
O6    O     O_R   0.499980 0.385330 0.665550 -0.631935
O7    O     O_R   0.499980 0.614670 0.665550 -0.588350
O8    O     O_R   0.500020 0.385330 0.334450 -0.588443
C3    C     C_R   0.500270 0.500037 0.281859 0.966721
C4    C     C_R   0.499672 0.499963 0.718141 0.966104
Zn1   Zn    Zn3+2 0.500000 0.653120 0.500000 1.045316
Zn2   Zn    Zn3+2 0.500000 0.346880 0.500000 1.045128
C5    C     C_1   0.500209 0.500086 0.161439 -0.051143
C6    C     C_1   0.499687 0.499915 0.838561 -0.051357
C7    C     C_1   0.500049 0.500040 0.059306 0.073876
C8    C     C_1   0.499823 0.499961 0.940693 0.073901
C9    C     C_R   0.064206 0.422402 0.416007 0.207079
C10   C     C_R   0.935803 0.577582 0.584085 0.206361
C11   C     C_R   0.934669 0.420955 0.417955 0.210727
C12   C     C_R   0.065339 0.579069 0.582071 0.211301
C13   C     C_R   0.872134 0.498855 0.501489 -0.355271
C14   C     C_R   0.127867 0.501164 0.498556 -0.355166
C15   C     C_R   0.579663 0.071566 0.570501 -0.013288
C16   C     C_R   0.420341 0.928434 0.429495 -0.012629
C17   C     C_R   0.420403 0.072208 0.429447 -0.012795
C18   C     C_R   0.579612 0.927790 0.570542 -0.012921
H1    H     H_    0.643412 0.125673 0.626911 0.156519
H2    H     H_    0.356597 0.874327 0.373082 0.156572
H3    H     H_    0.356861 0.126836 0.372899 0.184216
H4    H     H_    0.643184 0.873160 0.627068 0.183813
N3    N     N_R   0.130534 0.351531 0.326284 0.236006
O9    O     O_R   0.112795 0.222435 0.309986 -0.315636
O10   O     O_R   0.207223 0.416665 0.259144 -0.399429
N4    N     N_R   0.869502 0.648572 0.673785 0.235693
O11   O     O_R   0.888728 0.777213 0.691195 -0.314832
O12   O     O_R   0.791972 0.583774 0.740323 -0.399908
N5    N     N_R   0.866508 0.349285 0.329966 0.251589
O13   O     O_R   0.806333 0.416402 0.250081 -0.378731
O14   O     O_R   0.852358 0.218568 0.337708 -0.298327
N6    N     N_R   0.133523 0.650811 0.669982 0.251865
O15   O     O_R   0.191895 0.583796 0.751048 -0.377190
O16   O     O_R   0.149855 0.781103 0.660907 -0.299404

loop_
_geom_bond_atom_site_label_1
_geom_bond_atom_site_label_2
_geom_bond_distance
_ccdc_geom_bond_type
O4    Zn2   1.991053 S    
C9    C14   1.404088 A    
C9    N3    1.437899 S    
N1    C16   1.366768 A    
O2    Zn2   1.993437 S    
N5    O13   1.300944 A    
C4    C6    1.390717 S    
N3    O9    1.300851 A    
C11   N5    1.434615 S    
C3    C5    1.390719 S    
C7    C8    1.369843 S    
C11   C13   1.403393 A    
O5    Zn1   1.949327 S    
O6    Zn2   1.949325 S    
N6    O15   1.300889 A    
C15   C18   1.417299 A    
N4    O12   1.300856 A    
C2    C13   1.413835 S    
N5    O14   1.300953 A    
C1    C14   1.413822 S    
O4    C1    1.281139 A    
O1    Zn1   1.993438 S    
C16   C17   1.417286 A    
N3    O10   1.300918 A    
N6    O16   1.300944 A    
N1    C18   1.366690 A    
C6    C8    1.179511 T    
C9    C11   1.383059 A    
N4    O11   1.300834 A    
C12   N6    1.434449 S    
O7    C4    1.283273 A    
C10   C12   1.383076 A    
N1    Zn1   2.011755 S    
C18   H4    1.081531 S    
C15   H1    1.081844 S    
C10   N4    1.438133 S    
C17   H3    1.081476 S    
C16   H2    1.081843 S    
N2    C17   1.366674 A    
O3    Zn1   1.991052 S    
O8    C3    1.283273 A    
O3    C2    1.281106 A    
O6    C4    1.283188 A    
O5    C3    1.283186 A    
O8    Zn2   1.948932 S    
C5    C7    1.179510 T    
O1    C1    1.279828 A    
O7    Zn1   1.948931 S    
N2    Zn2   2.011755 S    
O2    C2    1.279865 A    
N2    C15   1.366779 A    
C12   C14   1.403233 A    
C10   C13   1.404298 A    
