data_mof_unit_61071.cif
_audit_creation_date              2012-12-10T18:21:18-0500
_audit_creation_method            fapswitch 2.2
_symmetry_space_group_name_H-M    P1
_symmetry_Int_Tables_number       1
_space_group_crystal_system       triclinic
_cell_length_a                    35.627597
_cell_length_b                    35.635266
_cell_length_c                    23.697066
_cell_angle_alpha                 89.977629
_cell_angle_beta                  89.999933
_cell_angle_gamma                 90.000013
_cell_volume                      30085.7665396

loop_
_atom_site_label
_atom_site_type_symbol
_atom_type_description
_atom_site_fract_x
_atom_site_fract_y
_atom_site_fract_z
_atom_type_partial_charge
C1    C     C_R   1.000000 0.427617 0.499999 0.789353
C2    C     C_R   0.427601 0.000000 0.500000 0.789018
C3    C     C_R   1.000000 0.572383 0.500001 0.789353
C4    C     C_R   0.572399 0.000000 0.500000 0.788996
C5    C     C_R   0.500001 0.927605 0.999971 0.789103
C6    C     C_R   0.927612 0.500000 0.000000 0.789283
C7    C     C_R   0.500001 0.072395 0.000029 0.789104
C8    C     C_R   0.072394 0.500000 0.000000 0.789077
C9    C     C_1   0.000000 0.266857 0.499953 -0.067592
C10   C     C_1   0.266700 1.000000 0.500000 -0.065497
C11   C     C_1   0.000001 0.733143 0.500047 -0.067592
C12   C     C_1   0.733300 0.000000 0.500000 -0.065526
C13   C     C_1   0.499953 0.766752 0.999678 -0.066493
C14   C     C_1   0.766788 0.500000 1.000000 -0.066029
C15   C     C_1   0.499953 0.233248 0.000322 -0.066493
C16   C     C_1   0.233259 0.500000 0.000000 -0.067606
C17   C     C_R   0.966012 0.326847 0.499817 -0.156659
C18   C     C_R   0.326753 0.033977 0.499913 -0.155940
C19   C     C_R   0.033988 0.673153 0.499877 -0.156696
C20   C     C_R   0.673247 0.966023 0.499913 -0.155968
C21   C     C_R   0.966012 0.673153 0.500183 -0.156658
C22   C     C_R   0.326753 0.966023 0.500086 -0.155940
C23   C     C_R   0.033988 0.326847 0.500123 -0.156697
C24   C     C_R   0.673247 0.033977 0.500087 -0.155969
C25   C     C_R   0.466009 0.826795 0.999566 -0.156089
C26   C     C_R   0.826804 0.533980 0.999879 -0.156341
C27   C     C_R   0.533979 0.173223 0.000165 -0.156422
C28   C     C_R   0.173223 0.466022 0.999850 -0.156607
C29   C     C_R   0.466009 0.173205 0.000433 -0.156089
C30   C     C_R   0.826804 0.466020 0.000121 -0.156340
C31   C     C_R   0.533978 0.826777 0.999834 -0.156421
C32   C     C_R   0.173223 0.533978 0.000150 -0.156607
C33   C     C_R   0.965970 0.366066 0.499834 -0.188347
C34   C     C_R   0.365993 0.034018 0.499916 -0.187763
C35   C     C_R   0.034030 0.633934 0.499868 -0.188420
C36   C     C_R   0.634007 0.965982 0.499915 -0.187795
C37   C     C_R   0.965970 0.633934 0.500166 -0.188347
C38   C     C_R   0.365993 0.965982 0.500084 -0.187764
C39   C     C_R   0.034030 0.366066 0.500132 -0.188420
C40   C     C_R   0.634007 0.034018 0.500085 -0.187794
C41   C     C_R   0.465974 0.866023 0.999677 -0.187971
C42   C     C_R   0.866035 0.534021 0.999883 -0.188116
C43   C     C_R   0.534025 0.133991 0.000063 -0.187922
C44   C     C_R   0.133987 0.465981 0.999854 -0.188250
C45   C     C_R   0.465974 0.133977 0.000323 -0.187971
C46   C     C_R   0.866035 0.465979 0.000117 -0.188116
C47   C     C_R   0.534025 0.866009 0.999937 -0.187922
C48   C     C_R   0.133987 0.534019 0.000146 -0.188250
C49   C     C_R   1.000000 0.386108 0.499990 -0.036219
C50   C     C_R   0.386056 1.000000 0.500000 -0.036665
C51   C     C_R   1.000000 0.613892 0.500010 -0.036219
C52   C     C_R   0.613944 0.000000 0.500000 -0.036649
C53   C     C_R   0.500002 0.886072 0.999870 -0.036531
C54   C     C_R   0.886086 0.500000 1.000000 -0.036341
C55   C     C_R   0.500002 0.113928 0.000129 -0.036532
C56   C     C_R   0.113930 0.500000 0.000000 -0.036372
C57   C     C_R   0.000000 0.307189 0.499963 0.143410
C58   C     C_R   0.307072 1.000000 0.500000 0.143343
C59   C     C_R   0.000000 0.692811 0.500037 0.143410
C60   C     C_R   0.692928 0.000000 0.500000 0.143359
C61   C     C_R   0.499989 0.807111 0.999650 0.143392
C62   C     C_R   0.807137 0.500000 1.000000 0.143589
C63   C     C_R   0.499989 0.192889 0.000350 0.143392
C64   C     C_R   0.192898 0.500000 0.000000 0.143474
C65   C     C_R   0.927854 0.000000 0.500000 0.753831
C66   C     C_R   0.000001 0.072246 0.499990 0.761815
C67   C     C_R   0.072146 1.000000 0.500000 0.753814
C68   C     C_R   0.000001 0.927754 0.500010 0.761817
C69   C     C_R   0.427803 0.500000 0.000000 0.763424
C70   C     C_R   0.499261 0.572178 0.000013 0.756415
C71   C     C_R   0.572183 0.500000 1.000000 0.750516
C72   C     C_R   0.499261 0.427822 0.999987 0.756416
C73   C     C_R   1.000000 0.500001 0.608234 0.828590
C74   C     C_R   0.500000 0.999994 0.608231 0.828541
C75   C     C_R   0.000000 0.499999 0.391766 0.828590
C76   C     C_R   0.500000 0.000006 0.391769 0.828541
C77   C     C_R   0.500000 0.000001 0.108234 0.828622
C78   C     C_R   0.000000 0.499994 0.108231 0.828580
C79   C     C_R   0.500000 0.999999 0.891766 0.828622
C80   C     C_R   1.000000 0.500006 0.891769 0.828580
C81   C     C_1   1.000000 0.500008 0.669053 -0.177998
C82   C     C_1   0.500000 0.999982 0.669050 -0.177740
C83   C     C_1   0.000000 0.499992 0.330947 -0.177998
C84   C     C_1   0.500000 0.000018 0.330950 -0.177740
C85   C     C_1   0.500000 0.000009 0.169053 -0.177805
C86   C     C_1   0.000000 0.499982 0.169050 -0.178007
C87   C     C_1   0.500000 0.999991 0.830947 -0.177805
C88   C     C_1   1.000000 0.500018 0.830950 -0.178007
C89   C     C_1   1.000000 0.500015 0.720084 0.005622
C90   C     C_1   0.500000 0.999980 0.720081 0.005876
C91   C     C_1   0.000000 0.499985 0.279916 0.005622
C92   C     C_1   0.500000 0.000019 0.279919 0.005876
C93   C     C_1   0.500000 0.000015 0.220084 0.005863
C94   C     C_1   0.000000 0.499981 0.220081 0.005615
C95   C     C_1   0.500000 0.999985 0.779916 0.005863
C96   C     C_1   1.000000 0.500019 0.779919 0.005615
C97   C     C_R   0.977197 0.173254 0.462212 -0.184751
C98   C     C_R   0.172964 0.030994 0.479369 -0.159895
C99   C     C_R   0.022817 0.826757 0.462305 -0.184784
C100  C     C_R   0.827035 0.969008 0.479397 -0.159902
C101  C     C_R   0.977198 0.826746 0.537788 -0.184752
C102  C     C_R   0.172964 0.969006 0.520631 -0.159896
C103  C     C_R   0.022817 0.173243 0.537695 -0.184785
C104  C     C_R   0.827035 0.030992 0.520603 -0.159902
C105  C     C_R   0.471492 0.673230 0.971215 -0.157581
C106  C     C_R   0.673124 0.528763 0.973090 -0.163773
C107  C     C_R   0.526993 0.327095 0.970215 -0.184582
C108  C     C_R   0.326939 0.474762 0.965915 -0.183559
C109  C     C_R   0.471492 0.326770 0.028786 -0.157579
C110  C     C_R   0.673123 0.471237 0.026910 -0.163772
C111  C     C_R   0.526993 0.672905 0.029784 -0.184583
C112  C     C_R   0.326939 0.525238 0.034085 -0.183559
C113  C     C_R   0.976452 0.133708 0.461816 0.231779
C114  C     C_R   0.133515 0.031996 0.480228 0.230407
C115  C     C_R   0.023564 0.866303 0.461890 0.231817
C116  C     C_R   0.866484 0.968006 0.480258 0.230416
C117  C     C_R   0.976452 0.866292 0.538184 0.231780
C118  C     C_R   0.133515 0.968004 0.519772 0.230408
C119  C     C_R   0.023564 0.133697 0.538109 0.231817
C120  C     C_R   0.866484 0.031994 0.519742 0.230416
C121  C     C_R   0.470035 0.633829 0.971980 0.228069
C122  C     C_R   0.633650 0.529951 0.973776 0.233522
C123  C     C_R   0.527482 0.366676 0.969997 0.234124
C124  C     C_R   0.366502 0.473993 0.965687 0.232409
C125  C     C_R   0.470035 0.366171 0.028020 0.228068
C126  C     C_R   0.633650 0.470049 0.026223 0.233523
C127  C     C_R   0.527482 0.633324 0.030003 0.234124
C128  C     C_R   0.366502 0.526007 0.034313 0.232408
C129  C     C_R   0.000006 0.113821 0.499969 -0.179549
C130  C     C_R   0.113524 1.000000 0.500000 -0.169854
C131  C     C_R   0.000006 0.886178 0.500031 -0.179549
C132  C     C_R   0.886475 0.000000 0.500000 -0.169856
C133  C     C_R   0.499017 0.613637 0.000130 -0.174292
C134  C     C_R   0.613631 0.500000 1.000000 -0.175863
C135  C     C_R   0.499017 0.386363 0.999870 -0.174292
C136  C     C_R   0.386310 0.500000 0.000000 -0.175756
C137  C     C_R   0.000006 0.192692 0.499951 0.030006
C138  C     C_R   0.192481 1.000000 0.500000 0.015272
C139  C     C_R   0.000006 0.807308 0.500049 0.030006
C140  C     C_R   0.807519 0.000000 0.500000 0.015294
C141  C     C_R   0.499515 0.692552 0.000109 0.022106
C142  C     C_R   0.692600 0.500000 1.000000 0.016259
C143  C     C_R   0.499515 0.307448 0.999891 0.022105
C144  C     C_R   0.307472 0.500000 0.000000 0.029085
C145  C     C_1   0.000002 0.233058 0.499949 -0.027162
C146  C     C_1   0.232874 1.000000 0.500000 -0.025290
C147  C     C_1   0.000002 0.766942 0.500051 -0.027162
C148  C     C_1   0.767126 0.000000 0.500000 -0.025307
C149  C     C_1   0.499819 0.732937 0.999801 -0.026440
C150  C     C_1   0.732976 0.500000 1.000000 -0.026188
C151  C     C_1   0.499820 0.267063 0.000199 -0.026440
C152  C     C_1   0.267079 0.500000 0.000000 -0.026932
Cu1   Cu    Cu3+1 0.037270 0.500000 0.500000 0.954038
Cu2   Cu    Cu3+1 0.500000 0.962730 0.500000 0.954589
Cu3   Cu    Cu3+1 0.962730 0.500000 0.500000 0.954435
Cu4   Cu    Cu3+1 0.500000 0.037270 0.500000 0.954589
Cu5   Cu    Cu3+1 0.537270 0.000000 0.000000 0.954526
Cu6   Cu    Cu3+1 0.000000 0.462730 0.000000 0.953960
Cu7   Cu    Cu3+1 0.462730 0.000000 0.000000 0.954634
Cu8   Cu    Cu3+1 0.000000 0.537270 0.000000 0.953960
Cu9   Cu    Cu3+1 0.000000 0.000000 0.555780 0.973514
Cu10  Cu    Cu3+1 1.000000 0.000000 0.444220 0.973514
Cu11  Cu    Cu3+1 0.500000 0.500000 0.055780 0.974073
Cu12  Cu    Cu3+1 0.500000 0.500000 0.944220 0.974074
H1    H     H_    0.959675 0.189424 0.433945 0.149759
H2    H     H_    0.188729 0.054462 0.462655 0.149228
H3    H     H_    0.040338 0.810595 0.434045 0.149728
H4    H     H_    0.811270 0.945542 0.462705 0.149198
H5    H     H_    0.959675 0.810575 0.566055 0.149760
H6    H     H_    0.188729 0.945538 0.537345 0.149229
H7    H     H_    0.040338 0.189405 0.565955 0.149728
H8    H     H_    0.811270 0.054458 0.537296 0.149198
H9    H     H_    0.450594 0.689108 0.948192 0.148967
H10   H     H_    0.689044 0.550418 0.951838 0.149898
H11   H     H_    0.548213 0.311083 0.948177 0.149407
H12   H     H_    0.310791 0.455444 0.940422 0.149351
H13   H     H_    0.450594 0.310892 0.051808 0.148967
H14   H     H_    0.689044 0.449582 0.048162 0.149898
H15   H     H_    0.548213 0.688917 0.051822 0.149407
H16   H     H_    0.310791 0.544556 0.059579 0.149351
H17   H     H_    0.939547 0.311865 0.499691 0.132074
H18   H     H_    0.311773 0.060439 0.499844 0.131496
H19   H     H_    0.060453 0.688135 0.499760 0.132031
H20   H     H_    0.688227 0.939561 0.499843 0.131480
H21   H     H_    0.939547 0.688135 0.500309 0.132074
H22   H     H_    0.311773 0.939561 0.500155 0.131496
H23   H     H_    0.060453 0.311865 0.500240 0.132031
H24   H     H_    0.688227 0.060439 0.500157 0.131480
H25   H     H_    0.439538 0.811824 0.999440 0.131708
H26   H     H_    0.811820 0.560440 0.999783 0.131496
H27   H     H_    0.560442 0.188207 0.000078 0.131560
H28   H     H_    0.188205 0.439561 0.999731 0.131747
H29   H     H_    0.439538 0.188176 0.000560 0.131708
H30   H     H_    0.811820 0.439560 0.000217 0.131495
H31   H     H_    0.560442 0.811793 0.999922 0.131560
H32   H     H_    0.188205 0.560439 0.000270 0.131747
H33   H     H_    0.939308 0.380652 0.499718 0.154702
H34   H     H_    0.380582 0.060675 0.499848 0.154603
H35   H     H_    0.060692 0.619348 0.499743 0.154631
H36   H     H_    0.619418 0.939326 0.499847 0.154586
H37   H     H_    0.939308 0.619348 0.500281 0.154702
H38   H     H_    0.380582 0.939325 0.500152 0.154603
H39   H     H_    0.060692 0.380652 0.500257 0.154631
H40   H     H_    0.619418 0.060675 0.500153 0.154585
H41   H     H_    0.439314 0.880612 0.999613 0.154625
H42   H     H_    0.880624 0.560678 0.999787 0.154542
H43   H     H_    0.560689 0.119408 0.999916 0.154558
H44   H     H_    0.119399 0.439324 0.999736 0.154521
H45   H     H_    0.439314 0.119388 0.000387 0.154625
H46   H     H_    0.880624 0.439322 0.000212 0.154542
H47   H     H_    0.560689 0.880592 0.000084 0.154558
H48   H     H_    0.119399 0.560676 0.000264 0.154521
O1    O     O_R   0.031480 0.445630 0.499980 -0.587672
O2    O     O_R   0.445630 0.968520 0.499980 -0.587448
O3    O     O_R   0.968520 0.554370 0.499980 -0.587600
O4    O     O_R   0.554370 0.031480 0.499980 -0.587459
O5    O     O_R   0.031480 0.554370 0.500020 -0.587673
O6    O     O_R   0.445630 0.031480 0.500020 -0.587449
O7    O     O_R   0.968520 0.445630 0.500020 -0.587601
O8    O     O_R   0.554370 0.968520 0.500020 -0.587459
O9    O     O_R   0.531480 0.945630 0.999980 -0.587520
O10   O     O_R   0.945630 0.468520 0.999980 -0.587589
O11   O     O_R   0.468520 0.054370 0.999980 -0.587496
O12   O     O_R   0.054370 0.531480 0.999980 -0.587557
O13   O     O_R   0.531480 0.054370 0.000020 -0.587520
O14   O     O_R   0.945630 0.531480 0.000020 -0.587589
O15   O     O_R   0.468520 0.945630 0.000020 -0.587496
O16   O     O_R   0.054370 0.468520 0.000020 -0.587557
O17   O     O_R   0.031480 0.500000 0.581380 -0.576691
O18   O     O_R   0.500000 0.968520 0.581380 -0.576472
O19   O     O_R   0.968520 0.500000 0.581380 -0.576571
O20   O     O_R   0.500000 0.031480 0.581380 -0.576633
O21   O     O_R   0.031480 0.500000 0.418620 -0.576692
O22   O     O_R   0.500000 0.031480 0.418620 -0.576472
O23   O     O_R   0.968520 0.500000 0.418620 -0.576571
O24   O     O_R   0.500000 0.968520 0.418620 -0.576633
O25   O     O_R   0.531480 0.000000 0.081380 -0.576595
O26   O     O_R   0.000000 0.468520 0.081380 -0.576608
O27   O     O_R   0.468520 0.000000 0.081380 -0.576560
O28   O     O_R   0.000000 0.531480 0.081380 -0.576663
O29   O     O_R   0.531480 0.000000 0.918620 -0.576596
O30   O     O_R   0.000000 0.531480 0.918620 -0.576608
O31   O     O_R   0.468520 0.000000 0.918620 -0.576560
O32   O     O_R   0.000000 0.468520 0.918620 -0.576663
O33   O     O_R   0.945750 0.999990 0.547080 -0.577403
O34   O     O_R   0.999990 0.054250 0.547080 -0.565221
O35   O     O_R   0.054250 0.000010 0.547080 -0.577399
O36   O     O_R   0.000010 0.945750 0.547080 -0.565239
O37   O     O_R   0.945750 0.000010 0.452920 -0.577403
O38   O     O_R   0.999990 0.945750 0.452920 -0.565221
O39   O     O_R   0.054250 0.999990 0.452920 -0.577399
O40   O     O_R   0.000010 0.054250 0.452920 -0.565239
O41   O     O_R   0.445750 0.499990 0.047080 -0.567848
O42   O     O_R   0.499990 0.554250 0.047080 -0.556442
O43   O     O_R   0.554250 0.500010 0.047080 -0.573837
O44   O     O_R   0.500010 0.445750 0.047080 -0.588839
O45   O     O_R   0.445750 0.500010 0.952920 -0.567848
O46   O     O_R   0.499990 0.445750 0.952920 -0.556441
O47   O     O_R   0.554250 0.499990 0.952920 -0.573837
O48   O     O_R   0.500010 0.554250 0.952920 -0.588838
N1    N     N_2   0.951894 0.113412 0.424724 -0.402714
H49   H     H_    0.939030 0.090272 0.442258 0.259342
C153  C     C_3   0.928778 0.133204 0.384234 -0.700443
H50   H     H_    0.913616 0.112588 0.357501 0.231343
H51   H     H_    0.946532 0.150715 0.356100 0.238851
H52   H     H_    0.907712 0.150821 0.406425 0.215603
N2    N     N_2   0.114362 0.064879 0.460513 -0.421240
H53   H     H_    0.085599 0.063347 0.457380 0.256582
C154  C     C_3   0.127059 0.100542 0.482859 -0.711727
H54   H     H_    0.107162 0.123083 0.470383 0.232651
H55   H     H_    0.154971 0.107992 0.465456 0.234256
H56   H     H_    0.128461 0.099452 0.529668 0.231328
N3    N     N_2   0.048123 0.886610 0.424791 -0.402673
H57   H     H_    0.060984 0.909746 0.442314 0.259348
C155  C     C_3   0.071245 0.866829 0.384319 -0.700570
H58   H     H_    0.086411 0.887453 0.357580 0.231339
H59   H     H_    0.053496 0.849327 0.356189 0.238825
H60   H     H_    0.092309 0.849206 0.406527 0.215581
N4    N     N_2   0.885637 0.935125 0.460574 -0.421260
H61   H     H_    0.914400 0.936658 0.457436 0.256583
C156  C     C_3   0.872942 0.899460 0.482958 -0.711775
H62   H     H_    0.892837 0.876920 0.470500 0.232639
H63   H     H_    0.845028 0.892012 0.465570 0.234232
H64   H     H_    0.871545 0.900547 0.529767 0.231358
N5    N     N_2   0.951894 0.886588 0.575276 -0.402714
H65   H     H_    0.939030 0.909728 0.557742 0.259343
C157  C     C_3   0.928778 0.866796 0.615767 -0.700442
H66   H     H_    0.913617 0.887412 0.642500 0.231343
H67   H     H_    0.946532 0.849285 0.643900 0.238851
H68   H     H_    0.907712 0.849179 0.593575 0.215602
N6    N     N_2   0.114362 0.935121 0.539487 -0.421239
H69   H     H_    0.085599 0.936653 0.542620 0.256582
C158  C     C_3   0.127059 0.899457 0.517140 -0.711729
H70   H     H_    0.107162 0.876917 0.529616 0.232651
H71   H     H_    0.154971 0.892008 0.534543 0.234256
H72   H     H_    0.128461 0.900548 0.470331 0.231328
N7    N     N_2   0.048123 0.113390 0.575208 -0.402673
H73   H     H_    0.060984 0.090254 0.557685 0.259347
C159  C     C_3   0.071245 0.133171 0.615681 -0.700571
H74   H     H_    0.086411 0.112547 0.642420 0.231339
H75   H     H_    0.053495 0.150673 0.643810 0.238826
H76   H     H_    0.092308 0.150794 0.593473 0.215582
N8    N     N_2   0.885637 0.064875 0.539426 -0.421261
H77   H     H_    0.914400 0.063342 0.542563 0.256583
C160  C     C_3   0.872942 0.100540 0.517042 -0.711776
H78   H     H_    0.892837 0.123080 0.529501 0.232639
H79   H     H_    0.845028 0.107988 0.534432 0.234232
H80   H     H_    0.871545 0.099454 0.470234 0.231359
N9    N     N_2   0.439322 0.615047 0.944911 -0.421345
H81   H     H_    0.440756 0.586289 0.942339 0.264582
C161  C     C_3   0.401991 0.627846 0.959764 -0.710801
H82   H     H_    0.380692 0.608544 0.941583 0.232038
H83   H     H_    0.396590 0.656197 0.942262 0.234172
H84   H     H_    0.398523 0.628304 0.006342 0.231065
N10   N     N_2   0.614415 0.560858 0.947701 -0.418106
H85   H     H_    0.585583 0.560852 0.949510 0.258678
C162  C     C_3   0.630150 0.598038 0.955226 -0.710414
H86   H     H_    0.609433 0.619569 0.941754 0.231432
H87   H     H_    0.655514 0.601618 0.928631 0.234222
H88   H     H_    0.637180 0.602928 0.000300 0.231633
N11   N     N_2   0.556095 0.387218 0.940531 -0.404734
H89   H     H_    0.565588 0.411191 0.960190 0.254099
C163  C     C_3   0.584492 0.367646 0.908245 -0.694869
H90   H     H_    0.602745 0.388390 0.886551 0.231196
H91   H     H_    0.571158 0.349840 0.875426 0.237405
H92   H     H_    0.602261 0.350313 0.936610 0.214558
N12   N     N_2   0.386930 0.447132 0.932578 -0.403904
H93   H     H_    0.410456 0.436029 0.951647 0.253775
C164  C     C_3   0.367184 0.420862 0.896675 -0.699243
H94   H     H_    0.387830 0.403836 0.872661 0.231836
H95   H     H_    0.349467 0.436159 0.865716 0.238324
H96   H     H_    0.349761 0.401594 0.922611 0.215012
N13   N     N_2   0.439323 0.384952 0.055090 -0.421347
H97   H     H_    0.440757 0.413711 0.057662 0.264584
C165  C     C_3   0.401991 0.372154 0.040236 -0.710799
H98   H     H_    0.380693 0.391456 0.058418 0.232037
H99   H     H_    0.396591 0.343803 0.057737 0.234171
H100  H     H_    0.398524 0.371697 0.993659 0.231065
N14   N     N_2   0.614415 0.439142 0.052298 -0.418107
H101  H     H_    0.585583 0.439148 0.050490 0.258678
C166  C     C_3   0.630149 0.401962 0.044773 -0.710413
H102  H     H_    0.609433 0.380430 0.058246 0.231432
H103  H     H_    0.655514 0.398382 0.071369 0.234222
H104  H     H_    0.637179 0.397072 0.999700 0.231633
N15   N     N_2   0.556095 0.612782 0.059468 -0.404735
H105  H     H_    0.565588 0.588809 0.039809 0.254099
C167  C     C_3   0.584493 0.632354 0.091754 -0.694869
H106  H     H_    0.602746 0.611610 0.113448 0.231196
H107  H     H_    0.571158 0.650160 0.124573 0.237405
H108  H     H_    0.602261 0.649687 0.063389 0.214558
N16   N     N_2   0.386930 0.552868 0.067422 -0.403904
H109  H     H_    0.410456 0.563971 0.048353 0.253775
C168  C     C_3   0.367184 0.579139 0.103325 -0.699240
H110  H     H_    0.387830 0.596164 0.127339 0.231835
H111  H     H_    0.349467 0.563841 0.134284 0.238323
H112  H     H_    0.349761 0.598406 0.077388 0.215012

loop_
_geom_bond_atom_site_label_1
_geom_bond_atom_site_label_2
_ccdc_geom_bond_type
C103  H7    S    
N7    C159  S    
N6    H69   S    
C7    C55   S    
C32   H32   S    
C99   C139  A    
C8    C56   S    
Cu1   O1    S    
C90   C95   S    
N8    C160  S    
N13   H97   S    
C156  H64   S    
C27   H27   S    
C98   C138  A    
C21   C59   A    
C103  C137  A    
C98   C114  A    
C110  H14   S    
C3    O3    A    
C22   C38   A    
C18   C58   A    
C48   H48   S    
Cu4   O4    S    
C157  H67   S    
C79   O31   A    
C20   H20   S    
C125  C135  A    
N9    C161  S    
C78   O26   A    
C79   C87   S    
C111  H15   S    
C114  C130  A    
C108  C124  A    
C73   C81   S    
C168  H111  S    
C168  H110  S    
C99   H3    S    
C66   O40   A    
N10   C162  S    
C163  H90   S    
C36   H36   S    
Cu9   O36   S    
C119  N7    S    
C25   C41   A    
C165  H99   S    
C46   H46   S    
C28   C44   A    
C104  C140  A    
C29   C45   A    
Cu11  O42   S    
C7    O11   A    
C115  N3    S    
N8    H77   S    
Cu6   O32   S    
Cu6   O26   S    
Cu8   O12   S    
C2    O2    A    
C154  H55   S    
C35   C51   A    
C118  N6    S    
C107  C143  A    
C108  C144  A    
C66   O34   A    
C153  H51   S    
C123  N11   S    
C106  C142  A    
C22   C58   A    
C68   C131  S    
Cu10  O37   S    
C83   C91   T    
C89   C96   S    
C80   C88   S    
C19   C35   A    
C91   C94   S    
C31   H31   S    
C29   H29   S    
C79   O29   A    
C165  H98   S    
C126  C134  A    
N5    C157  S    
N11   H89   S    
C38   H38   S    
C2    O6    A    
C76   O22   A    
Cu8   O30   S    
C6    O10   A    
C102  H6    S    
C4    O4    A    
C47   H47   S    
N16   H109  S    
C11   C147  T    
C70   O42   A    
C73   O17   A    
C8    O16   A    
C35   H35   S    
C68   O36   A    
C158  H70   S    
C10   C58   S    
N1    H49   S    
C71   O47   A    
C14   C62   S    
C6    O14   A    
Cu11  O41   S    
Cu4   O20   S    
C122  C134  A    
C2    C50   S    
C85   C93   T    
C40   H40   S    
Cu4   O22   S    
C160  H79   S    
C87   C95   T    
C33   H33   S    
C120  N8    S    
Cu1   O5    S    
C36   C52   A    
C3    O5    A    
C112  H16   S    
N4    C156  S    
C77   C85   S    
C105  H9    S    
Cu12  O45   S    
Cu5   O9    S    
C164  H95   S    
Cu1   O17   S    
C97   C137  A    
C166  H103  S    
C155  H60   S    
C32   C64   A    
N12   C164  S    
C72   C135  S    
C7    O13   A    
C19   C59   A    
C45   H45   S    
C5    O15   A    
C123  C135  A    
C88   C96   T    
C163  H91   S    
C22   H22   S    
Cu11  O43   S    
Cu9   O33   S    
Cu10  O39   S    
C27   C43   A    
C159  H75   S    
C34   H34   S    
C116  C132  A    
C71   O43   A    
C106  C122  A    
C76   O24   A    
C15   C151  T    
Cu3   O7    S    
C41   C53   A    
C98   H2    S    
C110  C126  A    
C43   C55   A    
C39   C49   A    
C10   C146  T    
C161  H83   S    
C20   C60   A    
C117  N5    S    
C73   O19   A    
C65   C132  S    
C26   C42   A    
C69   O45   A    
C68   O38   A    
C23   C57   A    
C37   H37   S    
C30   C46   A    
N2    H53   S    
C156  H63   S    
C141  C149  S    
C47   C53   A    
C144  C152  S    
C25   H25   S    
C12   C148  T    
C167  H108  S    
C23   H23   S    
C138  C146  S    
C143  C151  S    
N3    C155  S    
Cu8   O14   S    
C117  C131  A    
C159  H76   S    
C111  C141  A    
C17   H17   S    
C45   C55   A    
C121  N9    S    
Cu12  O47   S    
C84   C92   T    
C77   O25   A    
C29   C63   A    
C39   H39   S    
C31   C61   A    
C155  H58   S    
C100  C116  A    
C107  C123  A    
Cu2   O2    S    
C76   C84   S    
C71   C134  S    
Cu9   Cu10  S    
C153  H50   S    
C122  N10   S    
C137  C145  S    
C6    C54   S    
Cu9   O35   S    
C158  H72   S    
C65   O37   A    
C128  C136  A    
C99   C115  A    
C33   C49   A    
C164  H94   S    
C162  H87   S    
C4    O8    A    
N4    H61   S    
C101  H5    S    
Cu1   Cu3   S    
Cu2   Cu4   S    
C8    O12   A    
Cu5   O13   S    
C104  H8    S    
C66   C129  S    
C81   C89   T    
C70   O48   A    
N10   H85   S    
Cu5   Cu7   S    
C31   C47   A    
C154  H54   S    
Cu6   Cu8   S    
C32   C48   A    
C17   C33   A    
C72   O44   A    
C11   C59   S    
Cu7   O31   S    
N13   C165  S    
C101  C139  A    
C124  C136  A    
C43   H43   S    
C74   O20   A    
C167  H106  S    
C3    C51   S    
C166  H102  S    
C159  H74   S    
N5    H65   S    
C118  C130  A    
C44   C56   A    
N14   H101  S    
C14   C150  T    
C106  H10   S    
C157  H68   S    
Cu1   O21   S    
C109  C143  A    
C25   C61   A    
Cu3   O3    S    
C27   C63   A    
C28   C64   A    
Cu5   O25   S    
C69   C136  S    
C30   C62   A    
C1    O1    A    
C67   C130  S    
Cu2   O8    S    
C168  H112  S    
C5    C53   S    
C65   O33   A    
N6    C158  S    
C127  C133  A    
C165  H100  S    
N16   C168  S    
C21   H21   S    
C82   C90   T    
C24   H24   S    
C101  C117  A    
C142  C150  S    
N12   H93   S    
C114  N2    S    
C42   C54   A    
N2    C154  S    
C124  N12   S    
C75   C83   S    
C30   H30   S    
C107  H11   S    
C97   H1    S    
C108  H12   S    
C9    C145  T    
C92   C93   S    
C80   O30   A    
C42   H42   S    
C112  C128  A    
C20   C36   A    
C109  H13   S    
C21   C37   A    
C158  H71   S    
C160  H78   S    
C154  H56   S    
C77   O27   A    
Cu7   O27   S    
C17   C57   A    
C104  C120  A    
C153  H52   S    
C5    O9    A    
C161  H82   S    
C72   O46   A    
Cu12  O46   S    
C162  H88   S    
N7    H73   S    
Cu11  Cu12  S    
C74   O18   A    
C140  C148  S    
C26   H26   S    
C69   O41   A    
C115  C131  A    
N9    H81   S    
C139  C147  S    
C113  C129  A    
C4    C52   S    
C128  N16   S    
C125  N13   S    
C155  H59   S    
C105  C141  A    
C37   C51   A    
Cu7   O11   S    
C18   H18   S    
C44   H44   S    
C102  C138  A    
C110  C142  A    
Cu5   O29   S    
Cu10  O40   S    
C100  C140  A    
C119  C129  A    
C157  H66   S    
N11   C163  S    
C70   C133  S    
C75   O23   A    
Cu7   O15   S    
C86   C94   T    
C102  C118  A    
C78   C86   S    
Cu6   O10   S    
Cu2   O18   S    
C46   C54   A    
Cu11  O44   S    
C67   O35   A    
C28   H28   S    
C126  N14   S    
C34   C50   A    
C127  N15   S    
C16   C152  T    
C19   H19   S    
N1    C153  S    
C156  H62   S    
C40   C52   A    
C80   O32   A    
C167  H107  S    
Cu3   O23   S    
C24   C60   A    
C160  H80   S    
N3    H57   S    
C105  C121  A    
C1    O7    A    
C113  N1    S    
C18   C34   A    
C109  C125  A    
N14   C166  S    
Cu12  O48   S    
C111  C127  A    
C164  H96   S    
C97   C113  A    
Cu6   O16   S    
C74   C82   S    
C166  H104  S    
C48   C56   A    
C78   O28   A    
Cu8   O28   S    
C120  C132  A    
C116  N4    S    
C103  C119  A    
C38   C50   A    
C100  H4    S    
C163  H92   S    
C112  C144  A    
C26   C62   A    
C13   C149  T    
Cu9   O34   S    
Cu10  O38   S    
N15   C167  S    
C23   C39   A    
Cu3   O19   S    
C24   C40   A    
C75   O21   A    
C9    C57   S    
C41   H41   S    
C162  H86   S    
C12   C60   S    
C13   C61   S    
C161  H84   S    
Cu2   O24   S    
C15   C63   S    
Cu4   O6    S    
C16   C64   S    
C121  C133  A    
N15   H105  S    
C1    C49   S    
C67   O39   A    
