data_mof_unit_9433.cif
_audit_creation_date              2012-12-10T18:58:44-0500
_audit_creation_method            fapswitch 2.2
_symmetry_space_group_name_H-M    P1
_symmetry_Int_Tables_number       1
_space_group_crystal_system       triclinic
_cell_length_a                    13.036245
_cell_length_b                    10.87773
_cell_length_c                    9.534254
_cell_angle_alpha                 90.297256
_cell_angle_beta                  95.619764
_cell_angle_gamma                 90.800267
_cell_volume                      1345.3439407

loop_
_atom_site_label
_atom_site_type_symbol
_atom_type_description
_atom_site_fract_x
_atom_site_fract_y
_atom_site_fract_z
_atom_type_partial_charge
C1    C     C_R   0.502572 0.262226 0.499070 0.848668
C2    C     C_R   0.027541 0.507031 0.570737 0.028901
C3    C     C_R   0.972663 0.508896 0.436251 0.121455
C4    C     C_R   0.865804 0.504313 0.424485 -0.307740
C5    C     C_R   0.867387 0.468119 0.677904 0.464015
C6    C     C_R   0.975261 0.487097 0.690209 -0.329804
C7    C     C_R   0.477551 0.064641 0.614635 0.038610
C8    C     C_R   0.500154 0.128477 0.494318 -0.118222
C9    C     C_R   0.515397 0.060471 0.370588 0.152478
C10   C     C_R   0.507977 0.932776 0.372237 -0.225440
C11   C     C_R   0.491036 0.870272 0.496246 -0.097606
C12   C     C_R   0.300672 0.504937 0.474606 0.810366
C13   C     C_R   0.470981 0.937590 0.615025 0.040903
C14   C     C_3   0.523985 0.929288 0.760082 -0.480687
C15   C     C_3   0.535014 0.067757 0.758728 0.047841
C16   C     C_R   0.542004 0.596575 0.079869 0.234933
C17   C     C_R   0.445412 0.414331 0.067370 -0.161393
C18   C     C_R   0.443096 0.414832 0.916781 0.567064
C19   C     C_R   0.542149 0.596721 0.932754 0.147022
C20   C     C_3   0.650627 0.643904 0.943001 -0.474677
C21   C     C_3   0.650075 0.643559 0.101988 -0.474146
C22   C     C_R   0.497987 0.737474 0.499737 0.795522
C23   C     C_R   0.699449 0.494341 0.526420 0.847415
C24   C     C_R   0.812518 0.488210 0.543916 -0.115638
C25   C     C_R   0.188098 0.513873 0.461923 -0.149802
C26   C     C_R   0.025442 0.515816 0.315542 -0.194975
C27   C     C_R   0.132562 0.514176 0.328126 -0.264757
C28   C     C_R   0.134877 0.520811 0.583816 0.368494
Cu1   Cu    Cu3+1 0.499990 0.499980 0.640670 1.025166
Cu2   Cu    Cu3+1 0.500010 0.500020 0.359330 0.957998
H1    H     H_    0.824249 0.512888 0.321483 0.161847
H2    H     H_    0.598353 0.881448 0.760481 0.217032
H3    H     H_    0.491789 0.113658 0.838296 0.202881
H4    H     H_    0.404937 0.343535 0.119716 0.173247
H5    H     H_    0.704640 0.577953 0.903325 0.256288
H6    H     H_    0.657793 0.737737 0.901353 0.197519
H7    H     H_    0.703463 0.575844 0.153883 0.207470
H8    H     H_    0.655147 0.737165 0.149718 0.204973
H9    H     H_    0.984028 0.518087 0.211483 0.134612
H10   H     H_    0.020265 0.482347 0.791250 0.162397
H11   H     H_    0.171786 0.513051 0.233087 0.171643
H12   H     H_    0.523283 0.882285 0.278475 0.179841
H13   H     H_    0.471740 0.894895 0.837084 0.184991
N1    N     N_R   0.500660 0.500930 0.148010 -0.202087
N2    N     N_R   0.500660 0.500890 0.852110 -0.217768
O1    O     O_R   0.500000 0.319640 0.618810 -0.518494
O2    O     O_R   0.500010 0.319680 0.381230 -0.566931
O3    O     O_R   0.348990 0.499960 0.599490 -0.522044
O4    O     O_R   0.349000 0.500000 0.361910 -0.599860
O5    O     O_R   0.499990 0.680320 0.618770 -0.589215
O6    O     O_R   0.500000 0.680360 0.381190 -0.591147
O7    O     O_R   0.651000 0.500000 0.638090 -0.535542
O8    O     O_R   0.651010 0.500040 0.400510 -0.588912
I1    I     I_    0.693526 0.124609 0.757382 -0.342402
O9    O     O_3   0.392148 0.322855 0.834734 -0.562399
C29   C     C_3   0.289930 0.301643 0.868358 0.089410
H14   H     H_    0.238078 0.306873 0.769114 0.208905
H15   H     H_    0.261316 0.370488 0.941860 0.131769
C30   C     C_3   0.279197 0.172232 0.926143 -0.886979
H16   H     H_    0.198706 0.155859 0.951004 0.222581
H17   H     H_    0.297860 0.103352 0.846414 0.251699
H18   H     H_    0.331876 0.160040 0.023467 0.261089
O10   O     O_3   0.812332 0.426094 0.788188 -0.557624
C31   C     C_3   0.872759 0.407994 0.917975 0.032209
H19   H     H_    0.903415 0.498054 0.960693 0.125897
H20   H     H_    0.936630 0.343169 0.905510 0.157485
C32   C     C_3   0.807151 0.350671 0.025222 -0.698499
H21   H     H_    0.729495 0.391584 0.019063 0.261132
H22   H     H_    0.798366 0.250347 0.006759 0.274272
H23   H     H_    0.845764 0.364262 0.133167 0.186878
O11   O     O_3   0.187470 0.535055 0.716436 -0.601058
C33   C     C_3   0.193097 0.661722 0.750311 0.078354
H24   H     H_    0.114844 0.702457 0.745604 0.139951
H25   H     H_    0.240012 0.712318 0.677132 0.145971
C34   C     C_3   0.244180 0.678595 0.899629 -0.794866
H26   H     H_    0.323660 0.642744 0.907154 0.237362
H27   H     H_    0.247780 0.777798 0.928065 0.204466
H28   H     H_    0.199356 0.628444 0.975080 0.231689
I2    I     I_    0.569649 0.132700 0.183450 -0.421998

loop_
_geom_bond_atom_site_label_1
_geom_bond_atom_site_label_2
_ccdc_geom_bond_type
O9    C29   S    
C16   C21   S    
C10   H12   S    
C1    C8    S    
C19   C20   S    
C12   O3    A    
C12   O4    A    
C7    C8    A    
C25   C28   A    
C26   C27   A    
Cu2   O6    S    
C5    C6    A    
C4    C24   A    
C26   H9    S    
C29   H14   S    
C5    O10   S    
C9    I2    S    
C20   H5    S    
C21   H8    S    
C8    C9    A    
C23   C24   S    
C9    C10   A    
C16   N1    A    
C22   O5    A    
C7    C15   S    
C30   H16   S    
C13   C14   S    
Cu2   N1    S    
C2    C6    A    
C33   C34   S    
C23   O8    A    
Cu1   O5    S    
Cu2   O8    S    
C30   H17   S    
Cu1   O3    S    
C32   H21   S    
C15   I1    S    
Cu2   O2    S    
C33   H25   S    
C1    O2    A    
Cu1   N2    S    
C32   H22   S    
C31   H20   S    
C34   H26   S    
C31   C32   S    
Cu1   Cu2   S    
C27   H11   S    
C17   C18   A    
C34   H27   S    
C18   O9    S    
Cu2   O4    S    
C6    H10   S    
C28   O11   S    
C17   H4    S    
C3    C4    A    
C18   N2    A    
C30   H18   S    
C3    C26   A    
C14   H2    S    
C33   H24   S    
C19   N2    A    
C25   C27   A    
C12   C25   S    
C11   C22   S    
C29   C30   S    
Cu1   O1    S    
C32   H23   S    
C31   H19   S    
C2    C3    A    
C17   N1    A    
O11   C33   S    
C11   C13   A    
C23   O7    A    
C5    C24   A    
C16   C19   A    
C29   H15   S    
C1    O1    A    
C34   H28   S    
C4    H1    S    
C10   C11   A    
O10   C31   S    
C20   H6    S    
C7    C13   A    
C21   H7    S    
C20   C21   S    
C14   C15   S    
C14   H13   S    
C2    C28   A    
C15   H3    S    
C22   O6    A    
Cu1   O7    S    
