data_mof_unit_12049.cif
_audit_creation_date              2012-12-10T20:26:27-0500
_audit_creation_method            fapswitch 2.2
_symmetry_space_group_name_H-M    P1
_symmetry_Int_Tables_number       1
_space_group_crystal_system       triclinic
_cell_length_a                    10.748182
_cell_length_b                    10.712464
_cell_length_c                    9.893539
_cell_angle_alpha                 89.328477
_cell_angle_beta                  89.892633
_cell_angle_gamma                 90.377468
_cell_volume                      1139.03213436

loop_
_atom_site_label
_atom_site_type_symbol
_atom_type_description
_atom_site_fract_x
_atom_site_fract_y
_atom_site_fract_z
_atom_type_partial_charge
C1    C     C_R   0.502650 0.259999 0.500395 0.868875
C2    C     C_R   0.519317 0.128406 0.499090 -0.095487
C3    C     C_R   0.520884 0.066005 0.375133 -0.222156
C4    C     C_R   0.520128 0.937346 0.374516 -0.230983
C5    C     C_R   0.520132 0.871495 0.497575 -0.099658
C6    C     C_R   0.540298 0.934468 0.618060 0.129109
C7    C     C_3   0.472447 0.923926 0.749692 -0.460972
C8    C     C_3   0.469957 0.065193 0.749901 -0.506699
C9    C     C_R   0.394810 0.469074 0.071967 0.250641
C10   C     C_R   0.599457 0.544635 0.069739 0.215962
C11   C     C_R   0.599372 0.542959 0.926163 -0.207572
C12   C     C_R   0.262621 0.501633 0.499550 0.967374
C13   C     C_R   0.394623 0.469693 0.929659 0.147890
C14   C     C_3   0.324624 0.349384 0.925237 -0.574605
C15   C     C_3   0.325890 0.348120 0.079037 0.212976
C16   C     C_R   0.502926 0.739917 0.499288 0.869599
C17   C     C_R   0.737296 0.504110 0.500146 0.961437
C18   C     C_2   0.933240 0.521580 0.387315 -0.289607
C19   C     C_2   0.868121 0.524289 0.501624 -0.396966
C20   C     C_2   0.066756 0.540171 0.389262 0.523770
C21   C     C_2   0.130430 0.497739 0.496903 -0.378700
C22   C     C_R   0.539181 0.062168 0.618933 0.137707
H1    H     H_    0.889468 0.504614 0.290818 0.186909
H2    H     H_    0.526668 0.106254 0.832267 0.201056
H3    H     H_    0.679926 0.576491 0.870588 0.164098
H4    H     H_    0.230580 0.360829 0.880286 0.225978
H5    H     H_    0.380936 0.273934 0.881330 0.179063
H6    H     H_    0.380136 0.271009 0.126472 0.093414
H7    H     H_    0.910192 0.547151 0.598032 0.152511
H8    H     H_    0.085746 0.452097 0.582845 0.102560
H9    H     H_    0.513308 0.115333 0.279323 0.165207
H10   H     H_    0.509814 0.890777 0.278869 0.172551
H11   H     H_    0.378564 0.880710 0.739783 0.210688
H12   H     H_    0.531491 0.883366 0.831038 0.203009
H13   H     H_    0.374478 0.103132 0.738264 0.204483
N1    N     N_R   0.499170 0.499140 0.142800 -0.161784
N2    N     N_R   0.499170 0.499180 0.857150 -0.116601
O1    O     O_R   0.500020 0.316790 0.614690 -0.614998
O2    O     O_R   0.500000 0.316760 0.385350 -0.638883
O3    O     O_R   0.319080 0.500020 0.614640 -0.633787
O4    O     O_R   0.319070 0.499980 0.385300 -0.519506
O5    O     O_R   0.500000 0.683240 0.614650 -0.620171
O6    O     O_R   0.499980 0.683210 0.385310 -0.610221
O7    O     O_R   0.680930 0.500020 0.614700 -0.633406
O8    O     O_R   0.680920 0.499980 0.385360 -0.590647
Zn1   Zn    Zn3+2 0.500010 0.500020 0.653130 0.942008
Zn2   Zn    Zn3+2 0.499990 0.499980 0.346870 0.994041
N3    N     N_2   0.705362 0.593103 0.136314 -0.261377
H14   H     H_    0.787916 0.561683 0.096144 0.192161
C23   C     C_3   0.705789 0.727163 0.153884 -0.731405
H15   H     H_    0.779092 0.771275 0.089537 0.203962
H16   H     H_    0.726212 0.748406 0.261107 0.252685
H17   H     H_    0.615078 0.769376 0.125896 0.224278
O9    O     O_3   0.207047 0.363584 0.134282 -0.706207
H18   H     H_    0.168079 0.279382 0.135371 0.328472
O10   O     O_3   0.126440 0.597031 0.280459 -0.709790
H19   H     H_    0.062913 0.622052 0.212953 0.327714

loop_
_geom_bond_atom_site_label_1
_geom_bond_atom_site_label_2
_ccdc_geom_bond_type
C2    C22   A    
C9    N1    A    
C23   H16   S    
C12   O3    A    
C6    C7    S    
C14   H5    S    
C21   H8    S    
C8    C22   S    
C13   N2    A    
C20   O10   S    
C20   C21   D    
N3    C23   S    
C2    C3    A    
O4    Zn2   S    
C17   O7    A    
C7    C8    S    
C4    H10   S    
C13   C14   S    
C14   H4    S    
C3    H9    S    
C7    H11   S    
C16   O6    A    
C15   H6    S    
C12   O4    A    
C1    O1    A    
O3    Zn1   S    
N3    H14   S    
C8    H2    S    
O7    Zn1   S    
C23   H15   S    
C18   C20   S    
O8    Zn2   S    
C10   N3    S    
C5    C6    A    
C7    H12   S    
O1    Zn1   S    
C23   H17   S    
C10   C11   A    
C11   H3    S    
C18   H1    S    
C6    C22   A    
C15   O9    S    
C16   O5    A    
O10   H19   S    
N1    Zn2   S    
O2    Zn2   S    
C1    C2    S    
O5    Zn1   S    
C11   N2    A    
C1    O2    A    
O9    H18   S    
C18   C19   D    
C5    C16   S    
C9    C13   A    
C17   C19   S    
N2    Zn1   S    
C14   C15   S    
O6    Zn2   S    
C12   C21   S    
C3    C4    A    
C9    C15   S    
C17   O8    A    
C4    C5    A    
C10   N1    A    
C8    H13   S    
C19   H7    S    
