data_mof_unit_61654.cif
_audit_creation_date              2012-12-10T18:33:25-0500
_audit_creation_method            fapswitch 2.2
_symmetry_space_group_name_H-M    P1
_symmetry_Int_Tables_number       1
_space_group_crystal_system       monoclinic
_cell_length_a                    18.210616
_cell_length_b                    18.210617
_cell_length_c                    59.913204
_cell_angle_alpha                 90.0
_cell_angle_beta                  90.0
_cell_angle_gamma                 90.035689
_cell_volume                      19868.8054858

loop_
_atom_site_label
_atom_site_type_symbol
_atom_type_description
_atom_site_fract_x
_atom_site_fract_y
_atom_site_fract_z
_atom_type_partial_charge
C1    C     C_R   0.500000 1.000000 0.689380 0.812379
C2    C     C_R   1.000000 0.500000 0.310620 0.795921
C3    C     C_R   0.500000 1.000000 0.310620 0.795920
C4    C     C_R   0.000000 0.500000 0.689380 0.812377
C5    C     C_R   1.000000 0.500000 0.189380 0.812377
C6    C     C_R   0.500000 0.000000 0.810620 0.795920
C7    C     C_R   0.000000 0.500000 0.810620 0.795921
C8    C     C_R   0.500000 1.000000 0.189380 0.812377
C9    C     C_R   0.500000 1.000000 0.882121 0.312043
C10   C     C_R   1.000000 0.500000 0.117889 0.305960
C11   C     C_R   0.500000 1.000000 0.117889 0.305959
C12   C     C_R   0.000000 0.500000 0.882121 0.312045
C13   C     C_R   1.000000 0.500000 0.382121 0.312045
C14   C     C_R   0.500000 1.000000 0.617889 0.305957
C15   C     C_R   0.000000 0.500000 0.617889 0.305961
C16   C     C_R   0.500000 1.000000 0.382121 0.312041
C17   C     C_R   0.500000 1.000000 0.952667 -0.049741
C18   C     C_R   1.000000 0.500000 0.047364 -0.048892
C19   C     C_R   0.500000 1.000000 0.047364 -0.048894
C20   C     C_R   0.000000 0.500000 0.952667 -0.049740
C21   C     C_R   1.000000 0.500000 0.452667 -0.049739
C22   C     C_R   0.500000 0.000000 0.547364 -0.048893
C23   C     C_R   0.000000 0.500000 0.547364 -0.048892
C24   C     C_R   0.500000 1.000000 0.452667 -0.049740
C25   C     C_R   0.470419 0.940261 0.940755 -0.023110
C26   C     C_R   0.937916 0.475714 0.059277 -0.025252
C27   C     C_R   0.529580 0.059739 0.940755 -0.023109
C28   C     C_R   0.062084 0.524286 0.059277 -0.025252
C29   C     C_R   0.475711 0.937917 0.059277 -0.025251
C30   C     C_R   0.059740 0.529578 0.940755 -0.023110
C31   C     C_R   0.524289 0.062083 0.059277 -0.025251
C32   C     C_R   0.940260 0.470422 0.940755 -0.023110
C33   C     C_R   0.970423 0.440260 0.440755 -0.023110
C34   C     C_R   0.437920 0.975702 0.559277 -0.025251
C35   C     C_R   0.029577 0.559740 0.440755 -0.023110
C36   C     C_R   0.562080 0.024298 0.559277 -0.025251
C37   C     C_R   0.975715 0.437916 0.559277 -0.025252
C38   C     C_R   0.559734 0.029589 0.440755 -0.023110
C39   C     C_R   0.024285 0.562084 0.559277 -0.025252
C40   C     C_R   0.440265 0.970411 0.440755 -0.023110
C41   C     C_R   0.440677 0.880964 0.952420 -0.135122
C42   C     C_R   0.876006 0.451897 0.047612 -0.131021
C43   C     C_R   0.559323 0.119036 0.952420 -0.135122
C44   C     C_R   0.123994 0.548103 0.047612 -0.131021
C45   C     C_R   0.451892 0.876007 0.047612 -0.131020
C46   C     C_R   0.119037 0.559319 0.952420 -0.135123
C47   C     C_R   0.548108 0.123993 0.047612 -0.131020
C48   C     C_R   0.880962 0.440681 0.952420 -0.135123
C49   C     C_R   0.940683 0.380962 0.452420 -0.135124
C50   C     C_R   0.376014 0.951875 0.547612 -0.131021
C51   C     C_R   0.059317 0.619038 0.452420 -0.135124
C52   C     C_R   0.623986 0.048125 0.547612 -0.131021
C53   C     C_R   0.951900 0.376005 0.547612 -0.131022
C54   C     C_R   0.619027 0.059340 0.452420 -0.135123
C55   C     C_R   0.048100 0.623995 0.547612 -0.131022
C56   C     C_R   0.380973 0.940659 0.452420 -0.135123
C57   C     C_R   0.500000 0.000000 0.835229 -0.009309
C58   C     C_R   1.000000 0.500000 0.164771 -0.015292
C59   C     C_R   0.500000 1.000000 0.164771 -0.015292
C60   C     C_R   0.000000 0.500000 0.835229 -0.009309
C61   C     C_R   1.000000 0.500000 0.335229 -0.009308
C62   C     C_R   0.500000 0.000000 0.664771 -0.015290
C63   C     C_R   0.000000 0.500000 0.664771 -0.015292
C64   C     C_R   0.500000 1.000000 0.335229 -0.009309
C65   C     C_R   0.973713 0.437417 0.511883 0.044265
C66   C     C_R   0.438452 0.971371 0.488149 0.044889
C67   C     C_R   0.026287 0.562583 0.511883 0.044265
C68   C     C_R   0.561548 0.028629 0.488149 0.044889
C69   C     C_R   0.971384 0.438447 0.488149 0.044889
C70   C     C_R   0.562578 0.026299 0.511883 0.044266
C71   C     C_R   0.028616 0.561553 0.488149 0.044889
C72   C     C_R   0.437422 0.973701 0.511883 0.044266
C73   C     C_R   0.473709 0.937418 0.011883 0.044266
C74   C     C_R   0.938447 0.471383 0.988149 0.044889
C75   C     C_R   0.526290 0.062582 0.011883 0.044266
C76   C     C_R   0.061553 0.528617 0.988149 0.044888
C77   C     C_R   0.471380 0.938448 0.988149 0.044889
C78   C     C_R   0.062582 0.526288 0.011883 0.044265
C79   C     C_R   0.528620 0.061552 0.988149 0.044889
C80   C     C_R   0.937417 0.473712 0.011883 0.044266
C81   C     C_R   0.000000 0.500000 0.523608 0.073029
C82   C     C_R   0.500000 1.000000 0.476424 0.072378
C83   C     C_R   1.000000 0.500000 0.476424 0.072379
C84   C     C_R   0.500000 0.000000 0.523608 0.073028
C85   C     C_R   0.500000 1.000000 0.023608 0.073027
C86   C     C_R   1.000000 0.500000 0.976423 0.072379
C87   C     C_R   0.500000 1.000000 0.976423 0.072377
C88   C     C_R   1.000000 0.500000 0.023608 0.073029
C89   C     C_R   0.951004 0.375536 0.524435 -0.210713
C90   C     C_R   0.380015 0.940870 0.475596 -0.211090
C91   C     C_R   0.048996 0.624464 0.524435 -0.210713
C92   C     C_R   0.619985 0.059130 0.475596 -0.211090
C93   C     C_R   0.940894 0.380004 0.475596 -0.211090
C94   C     C_R   0.624454 0.049021 0.524435 -0.210713
C95   C     C_R   0.059106 0.619996 0.475596 -0.211090
C96   C     C_R   0.375546 0.950979 0.524435 -0.210713
C97   C     C_R   0.450996 0.875539 0.024436 -0.210711
C98   C     C_R   0.880005 0.440892 0.975596 -0.211091
C99   C     C_R   0.549004 0.124461 0.024436 -0.210712
C100  C     C_R   0.119995 0.559108 0.975596 -0.211091
C101  C     C_R   0.440888 0.880006 0.975596 -0.211089
C102  C     C_R   0.124463 0.548998 0.024435 -0.210713
C103  C     C_R   0.559112 0.119994 0.975596 -0.211089
C104  C     C_R   0.875537 0.451001 0.024435 -0.210713
C105  C     C_R   0.641252 0.141373 0.749971 0.854682
C106  C     C_R   0.141007 0.358365 0.250090 0.822161
C107  C     C_R   0.358748 0.858627 0.749971 0.854682
C108  C     C_R   0.858993 0.641635 0.250090 0.822161
C109  C     C_R   0.358365 0.141007 0.250090 0.822160
C110  C     C_R   0.858627 0.358748 0.749971 0.854682
C111  C     C_R   0.641635 0.858993 0.250090 0.822160
C112  C     C_R   0.141373 0.641252 0.749971 0.854682
C113  C     C_R   0.141251 0.641373 0.249971 0.854682
C114  C     C_R   0.641007 0.858365 0.750090 0.822160
C115  C     C_R   0.858748 0.358627 0.249971 0.854682
C116  C     C_R   0.358993 0.141635 0.750090 0.822160
C117  C     C_R   0.858365 0.641007 0.750090 0.822160
C118  C     C_R   0.358627 0.858748 0.249971 0.854682
C119  C     C_R   0.141635 0.358993 0.750090 0.822161
C120  C     C_R   0.641373 0.141252 0.249971 0.854682
C121  C     C_3   0.676090 0.735809 0.734262 0.480245
C122  C     C_3   0.725479 0.334728 0.243475 0.458720
C123  C     C_3   0.323910 0.264191 0.734262 0.480247
C124  C     C_3   0.274521 0.665272 0.243475 0.458720
C125  C     C_3   0.334728 0.725479 0.243475 0.458720
C126  C     C_3   0.264191 0.323910 0.734262 0.480245
C127  C     C_3   0.665272 0.274521 0.243475 0.458720
C128  C     C_3   0.735809 0.676090 0.734262 0.480245
C129  C     C_3   0.176090 0.235809 0.234262 0.480246
C130  C     C_3   0.225479 0.834728 0.743475 0.458720
C131  C     C_3   0.823910 0.764191 0.234262 0.480246
C132  C     C_3   0.774521 0.165272 0.743475 0.458720
C133  C     C_3   0.834728 0.225479 0.743475 0.458721
C134  C     C_3   0.764191 0.823910 0.234262 0.480245
C135  C     C_3   0.165272 0.774521 0.743475 0.458720
C136  C     C_3   0.235809 0.176090 0.234262 0.480245
C137  C     C_3   0.772272 0.832228 0.741988 -0.510816
C138  C     C_3   0.794713 0.265286 0.273240 -0.522361
C139  C     C_3   0.227728 0.167772 0.741988 -0.510816
C140  C     C_3   0.205287 0.734714 0.273240 -0.522361
C141  C     C_3   0.265286 0.794713 0.273240 -0.522360
C142  C     C_3   0.167772 0.227728 0.741988 -0.510817
C143  C     C_3   0.734714 0.205287 0.273240 -0.522360
C144  C     C_3   0.832228 0.772271 0.741988 -0.510816
C145  C     C_3   0.272271 0.332228 0.241988 -0.510816
C146  C     C_3   0.294713 0.765286 0.773240 -0.522361
C147  C     C_3   0.727728 0.667772 0.241988 -0.510816
C148  C     C_3   0.705287 0.234714 0.773240 -0.522361
C149  C     C_3   0.765286 0.294713 0.773240 -0.522361
C150  C     C_3   0.667772 0.727728 0.241988 -0.510817
C151  C     C_3   0.234714 0.705287 0.773240 -0.522361
C152  C     C_3   0.332228 0.272271 0.241988 -0.510817
C153  C     C_3   0.708712 0.768705 0.773997 -0.371618
C154  C     C_3   0.819996 0.239571 0.232691 -0.344252
C155  C     C_3   0.291288 0.231295 0.773997 -0.371618
C156  C     C_3   0.180004 0.760428 0.232691 -0.344252
C157  C     C_3   0.239571 0.819996 0.232691 -0.344251
C158  C     C_3   0.231295 0.291288 0.773997 -0.371618
C159  C     C_3   0.760428 0.180004 0.232691 -0.344252
C160  C     C_3   0.768705 0.708712 0.773997 -0.371618
C161  C     C_3   0.208712 0.268705 0.273997 -0.371618
C162  C     C_3   0.319996 0.739571 0.732691 -0.344251
C163  C     C_3   0.791288 0.731295 0.273997 -0.371618
C164  C     C_3   0.680004 0.260429 0.732691 -0.344251
C165  C     C_3   0.739571 0.319996 0.732691 -0.344251
C166  C     C_3   0.731295 0.791288 0.273997 -0.371619
C167  C     C_3   0.260428 0.680004 0.732691 -0.344252
C168  C     C_3   0.268705 0.208712 0.273997 -0.371619
C169  C     C_3   0.698122 0.799974 0.750114 -0.013350
C170  C     C_3   0.800981 0.300890 0.249797 -0.017738
C171  C     C_3   0.301878 0.200026 0.750114 -0.013350
C172  C     C_3   0.199018 0.699110 0.249797 -0.017738
C173  C     C_3   0.300890 0.800981 0.249797 -0.017739
C174  C     C_3   0.200026 0.301878 0.750114 -0.013350
C175  C     C_3   0.699110 0.199018 0.249797 -0.017739
C176  C     C_3   0.799974 0.698122 0.750114 -0.013350
C177  C     C_3   0.198122 0.299974 0.250114 -0.013350
C178  C     C_3   0.300981 0.800890 0.749797 -0.017739
C179  C     C_3   0.801878 0.700026 0.250114 -0.013350
C180  C     C_3   0.699018 0.199110 0.749797 -0.017739
C181  C     C_3   0.800890 0.300981 0.749797 -0.017738
C182  C     C_3   0.700026 0.801878 0.250114 -0.013350
C183  C     C_3   0.199110 0.699019 0.749797 -0.017738
C184  C     C_3   0.299974 0.198122 0.250114 -0.013350
C185  C     C_R   0.471085 0.941268 0.917312 0.504924
C186  C     C_R   0.938967 0.476332 0.082719 0.508514
C187  C     C_R   0.528915 0.058732 0.917312 0.504924
C188  C     C_R   0.061033 0.523668 0.082719 0.508514
C189  C     C_R   0.476329 0.938968 0.082719 0.508513
C190  C     C_R   0.058732 0.528913 0.917312 0.504925
C191  C     C_R   0.523670 0.061032 0.082719 0.508513
C192  C     C_R   0.941268 0.471087 0.917312 0.504925
C193  C     C_R   0.971088 0.441267 0.417312 0.504925
C194  C     C_R   0.438972 0.976321 0.582719 0.508513
C195  C     C_R   0.028912 0.558733 0.417312 0.504926
C196  C     C_R   0.561028 0.023679 0.582719 0.508513
C197  C     C_R   0.976333 0.438967 0.582719 0.508514
C198  C     C_R   0.558727 0.028924 0.417312 0.504924
C199  C     C_R   0.023667 0.561033 0.582719 0.508514
C200  C     C_R   0.441273 0.971076 0.417312 0.504924
C201  C     C_R   0.566484 0.997585 0.870379 -0.105970
C202  C     C_R   0.001393 0.566516 0.129619 -0.098822
C203  C     C_R   0.433516 0.002415 0.870379 -0.105971
C204  C     C_R   0.998607 0.433483 0.129619 -0.098822
C205  C     C_R   0.566517 0.001391 0.129619 -0.098823
C206  C     C_R   0.002414 0.433516 0.870379 -0.105972
C207  C     C_R   0.433483 0.998609 0.129619 -0.098823
C208  C     C_R   0.997586 0.566484 0.870379 -0.105972
C209  C     C_R   0.066484 0.497587 0.370379 -0.105971
C210  C     C_R   0.501385 0.066517 0.629619 -0.098821
C211  C     C_R   0.933516 0.502413 0.370379 -0.105971
C212  C     C_R   0.498615 0.933483 0.629619 -0.098821
C213  C     C_R   0.066517 0.501393 0.629619 -0.098823
C214  C     C_R   0.502422 0.933517 0.370379 -0.105969
C215  C     C_R   0.933483 0.498606 0.629619 -0.098823
C216  C     C_R   0.497578 0.066483 0.370379 -0.105970
C217  C     C_R   0.566560 0.997642 0.847097 -0.214640
C218  C     C_R   0.001362 0.566595 0.152902 -0.195851
C219  C     C_R   0.433440 0.002357 0.847097 -0.214640
C220  C     C_R   0.998638 0.433405 0.152902 -0.195850
C221  C     C_R   0.566595 0.001360 0.152902 -0.195850
C222  C     C_R   0.002356 0.433440 0.847097 -0.214640
C223  C     C_R   0.433405 0.998640 0.152902 -0.195850
C224  C     C_R   0.997644 0.566559 0.847097 -0.214641
C225  C     C_R   0.066560 0.497644 0.347097 -0.214641
C226  C     C_R   0.501355 0.066595 0.652902 -0.195852
C227  C     C_R   0.933440 0.502356 0.347097 -0.214641
C228  C     C_R   0.498645 0.933405 0.652902 -0.195851
C229  C     C_R   0.066595 0.501363 0.652902 -0.195850
C230  C     C_R   0.502364 0.933441 0.347097 -0.214641
C231  C     C_R   0.933405 0.498637 0.652902 -0.195850
C232  C     C_R   0.497636 0.066559 0.347097 -0.214641
H1    H     H_    0.669666 0.757024 0.716938 0.033672
H2    H     H_    0.710391 0.377658 0.255879 0.036762
H3    H     H_    0.330334 0.242976 0.716938 0.033672
H4    H     H_    0.289609 0.622342 0.255879 0.036762
H5    H     H_    0.377658 0.710391 0.255879 0.036762
H6    H     H_    0.242976 0.330334 0.716938 0.033673
H7    H     H_    0.622342 0.289609 0.255879 0.036762
H8    H     H_    0.757024 0.669666 0.716938 0.033673
H9    H     H_    0.169666 0.257024 0.216938 0.033673
H10   H     H_    0.210391 0.877658 0.755879 0.036762
H11   H     H_    0.830334 0.742976 0.216938 0.033673
H12   H     H_    0.789609 0.122342 0.755879 0.036762
H13   H     H_    0.877658 0.210391 0.755879 0.036762
H14   H     H_    0.742976 0.830334 0.216938 0.033673
H15   H     H_    0.122342 0.789609 0.755879 0.036762
H16   H     H_    0.257024 0.169666 0.216938 0.033673
H17   H     H_    0.933106 0.324929 0.516930 0.143653
H18   H     H_    0.332728 0.915458 0.483101 0.142899
H19   H     H_    0.066894 0.675071 0.516930 0.143653
H20   H     H_    0.667272 0.084542 0.483101 0.142899
H21   H     H_    0.915492 0.332711 0.483101 0.142899
H22   H     H_    0.675058 0.066929 0.516930 0.143652
H23   H     H_    0.084508 0.667289 0.483101 0.142899
H24   H     H_    0.324942 0.933071 0.516930 0.143652
H25   H     H_    0.433095 0.824932 0.016930 0.143651
H26   H     H_    0.832712 0.415489 0.983101 0.142899
H27   H     H_    0.566905 0.175068 0.016930 0.143651
H28   H     H_    0.167288 0.584511 0.983101 0.142899
H29   H     H_    0.415483 0.832714 0.983101 0.142898
H30   H     H_    0.175070 0.566897 0.016930 0.143653
H31   H     H_    0.584517 0.167286 0.983101 0.142898
H32   H     H_    0.824930 0.433103 0.016930 0.143653
H33   H     H_    0.766056 0.854934 0.724843 0.186145
H34   H     H_    0.780899 0.307688 0.285941 0.196409
H35   H     H_    0.233944 0.145066 0.724843 0.186145
H36   H     H_    0.219101 0.692312 0.285941 0.196409
H37   H     H_    0.307688 0.780899 0.285941 0.196410
H38   H     H_    0.145066 0.233944 0.724843 0.186145
H39   H     H_    0.692312 0.219101 0.285941 0.196410
H40   H     H_    0.854934 0.766056 0.724843 0.186145
H41   H     H_    0.266056 0.354934 0.224843 0.186145
H42   H     H_    0.280899 0.807688 0.785941 0.196409
H43   H     H_    0.733944 0.645066 0.224843 0.186145
H44   H     H_    0.719101 0.192312 0.785941 0.196409
H45   H     H_    0.807688 0.280899 0.785941 0.196409
H46   H     H_    0.645066 0.733944 0.224843 0.186145
H47   H     H_    0.192312 0.719101 0.785941 0.196409
H48   H     H_    0.354934 0.266056 0.224843 0.186145
H49   H     H_    0.724948 0.813383 0.785677 0.185329
H50   H     H_    0.873798 0.214152 0.236958 0.205980
H51   H     H_    0.275052 0.186617 0.785677 0.185329
H52   H     H_    0.126202 0.785848 0.236958 0.205980
H53   H     H_    0.214152 0.873798 0.236958 0.205980
H54   H     H_    0.186617 0.275052 0.785677 0.185329
H55   H     H_    0.785848 0.126202 0.236958 0.205980
H56   H     H_    0.813383 0.724948 0.785677 0.185329
H57   H     H_    0.224948 0.313383 0.285677 0.185329
H58   H     H_    0.373798 0.714152 0.736958 0.205980
H59   H     H_    0.775052 0.686617 0.285677 0.185329
H60   H     H_    0.626202 0.285847 0.736958 0.205980
H61   H     H_    0.714152 0.373798 0.736958 0.205980
H62   H     H_    0.686617 0.775052 0.285677 0.185329
H63   H     H_    0.285848 0.626202 0.736958 0.205980
H64   H     H_    0.313383 0.224948 0.285677 0.185329
H65   H     H_    0.656178 0.745240 0.780261 0.211491
H66   H     H_    0.824993 0.263104 0.215608 0.232935
H67   H     H_    0.343821 0.254759 0.780261 0.211491
H68   H     H_    0.175007 0.736896 0.215608 0.232935
H69   H     H_    0.263104 0.824993 0.215608 0.232935
H70   H     H_    0.254759 0.343821 0.780261 0.211491
H71   H     H_    0.736895 0.175007 0.215608 0.232935
H72   H     H_    0.745240 0.656179 0.780261 0.211491
H73   H     H_    0.156178 0.245240 0.280261 0.211491
H74   H     H_    0.324993 0.763104 0.715608 0.232935
H75   H     H_    0.843821 0.754759 0.280261 0.211491
H76   H     H_    0.675007 0.236896 0.715608 0.232935
H77   H     H_    0.763104 0.324993 0.715608 0.232935
H78   H     H_    0.754760 0.843821 0.280261 0.211491
H79   H     H_    0.236896 0.675007 0.715608 0.232935
H80   H     H_    0.245240 0.156178 0.280261 0.211491
H81   H     H_    0.789628 0.878202 0.753040 0.233510
H82   H     H_    0.848293 0.240662 0.278116 0.218720
H83   H     H_    0.210372 0.121797 0.753040 0.233510
H84   H     H_    0.151707 0.759338 0.278116 0.218720
H85   H     H_    0.240662 0.848293 0.278116 0.218720
H86   H     H_    0.121797 0.210372 0.753040 0.233510
H87   H     H_    0.759338 0.151707 0.278116 0.218720
H88   H     H_    0.878202 0.789628 0.753040 0.233510
H89   H     H_    0.289628 0.378202 0.253040 0.233510
H90   H     H_    0.348293 0.740662 0.778116 0.218720
H91   H     H_    0.710372 0.621797 0.253040 0.233510
H92   H     H_    0.651707 0.259338 0.778116 0.218720
H93   H     H_    0.740662 0.348293 0.778116 0.218720
H94   H     H_    0.621797 0.710372 0.253040 0.233510
H95   H     H_    0.259338 0.651707 0.778116 0.218720
H96   H     H_    0.378202 0.289628 0.253040 0.233510
H97   H     H_    0.381322 0.004302 0.838415 0.166867
H98   H     H_    0.997591 0.381258 0.161583 0.174558
H99   H     H_    0.618678 0.995698 0.838415 0.166867
H100  H     H_    0.002409 0.618742 0.161583 0.174558
H101  H     H_    0.381258 0.997594 0.161583 0.174557
H102  H     H_    0.995700 0.618678 0.838415 0.166868
H103  H     H_    0.618742 0.002406 0.161583 0.174557
H104  H     H_    0.004299 0.381322 0.838415 0.166868
H105  H     H_    0.881322 0.504298 0.338415 0.166868
H106  H     H_    0.497604 0.881258 0.661583 0.174557
H107  H     H_    0.118678 0.495702 0.338415 0.166868
H108  H     H_    0.502396 0.118742 0.661583 0.174557
H109  H     H_    0.881258 0.497590 0.661583 0.174558
H110  H     H_    0.495686 0.118678 0.338415 0.166868
H111  H     H_    0.118742 0.502410 0.661583 0.174558
H112  H     H_    0.504314 0.881322 0.338415 0.166868
H113  H     H_    0.416782 0.834707 0.943658 0.191152
H114  H     H_    0.827199 0.433779 0.056374 0.193446
H115  H     H_    0.583218 0.165293 0.943658 0.191152
H116  H     H_    0.172801 0.566221 0.056374 0.193446
H117  H     H_    0.433771 0.827201 0.056374 0.193445
H118  H     H_    0.165295 0.583212 0.943658 0.191152
H119  H     H_    0.566229 0.172799 0.056374 0.193445
H120  H     H_    0.834705 0.416788 0.943658 0.191152
H121  H     H_    0.916791 0.334703 0.443658 0.191152
H122  H     H_    0.327211 0.933747 0.556374 0.193446
H123  H     H_    0.083209 0.665297 0.443658 0.191152
H124  H     H_    0.672789 0.066253 0.556374 0.193446
H125  H     H_    0.933782 0.327198 0.556374 0.193446
H126  H     H_    0.665280 0.083242 0.443658 0.191152
H127  H     H_    0.066218 0.672802 0.556374 0.193446
H128  H     H_    0.334720 0.916757 0.443658 0.191152
N1    N     N_R   0.500000 1.000000 0.906093 -0.354308
N2    N     N_R   1.000000 0.500000 0.093928 -0.355618
N3    N     N_R   0.500000 1.000000 0.093928 -0.355619
N4    N     N_R   0.000000 0.500000 0.906093 -0.354308
N5    N     N_R   1.000000 0.500000 0.406093 -0.354308
N6    N     N_R   0.500000 1.000000 0.593928 -0.355618
N7    N     N_R   0.000000 0.500000 0.593928 -0.355618
N8    N     N_R   0.500000 1.000000 0.406093 -0.354307
O1    O     O_3   0.500000 1.000000 0.750000 -0.494145
O2    O     O_3   1.000000 0.500000 0.250000 -0.494144
O3    O     O_3   0.500000 1.000000 0.250000 -0.494144
O4    O     O_3   1.000000 0.500000 0.750000 -0.494144
O5    O     O_R   0.499920 0.938710 0.700060 -0.641901
O6    O     O_R   0.938710 0.500080 0.299940 -0.649107
O7    O     O_R   0.500080 0.061290 0.700060 -0.641901
O8    O     O_R   0.061290 0.499920 0.299940 -0.649107
O9    O     O_R   0.500080 0.938710 0.299940 -0.649107
O10   O     O_R   0.061290 0.500080 0.700060 -0.641900
O11   O     O_R   0.499920 0.061290 0.299940 -0.649107
O12   O     O_R   0.938710 0.499920 0.700060 -0.641900
O13   O     O_R   0.999920 0.438710 0.200060 -0.641900
O14   O     O_R   0.438710 0.000080 0.799940 -0.649107
O15   O     O_R   0.000080 0.561290 0.200060 -0.641900
O16   O     O_R   0.561290 0.999920 0.799940 -0.649107
O17   O     O_R   0.000080 0.438710 0.799940 -0.649107
O18   O     O_R   0.561290 0.000080 0.200060 -0.641900
O19   O     O_R   0.999920 0.561290 0.799940 -0.649107
O20   O     O_R   0.438710 0.999920 0.200060 -0.641900
O21   O     O_R   0.586160 0.147460 0.736910 -0.627070
O22   O     O_R   0.147460 0.413840 0.263090 -0.651911
O23   O     O_R   0.413840 0.852540 0.736910 -0.627070
O24   O     O_R   0.852540 0.586160 0.263090 -0.651911
O25   O     O_R   0.413840 0.147460 0.263090 -0.651912
O26   O     O_R   0.852540 0.413840 0.736910 -0.627070
O27   O     O_R   0.586160 0.852540 0.263090 -0.651912
O28   O     O_R   0.147460 0.586160 0.736910 -0.627070
O29   O     O_R   0.086160 0.647460 0.236910 -0.627070
O30   O     O_R   0.647460 0.913840 0.763090 -0.651911
O31   O     O_R   0.913840 0.352540 0.236910 -0.627070
O32   O     O_R   0.352540 0.086160 0.763090 -0.651911
O33   O     O_R   0.913840 0.647460 0.763090 -0.651911
O34   O     O_R   0.352540 0.913840 0.236910 -0.627070
O35   O     O_R   0.086160 0.352540 0.763090 -0.651911
O36   O     O_R   0.647460 0.086160 0.236910 -0.627070
O37   O     O_R   0.352450 0.913760 0.763090 -0.657675
O38   O     O_R   0.913760 0.647550 0.236910 -0.608660
O39   O     O_R   0.647550 0.086240 0.763090 -0.657675
O40   O     O_R   0.086240 0.352450 0.236910 -0.608660
O41   O     O_R   0.647550 0.913760 0.236910 -0.608660
O42   O     O_R   0.086240 0.647550 0.763090 -0.657675
O43   O     O_R   0.352450 0.086240 0.236910 -0.608660
O44   O     O_R   0.913760 0.352450 0.763090 -0.657675
O45   O     O_R   0.852450 0.413760 0.263090 -0.657675
O46   O     O_R   0.413760 0.147550 0.736910 -0.608660
O47   O     O_R   0.147550 0.586240 0.263090 -0.657675
O48   O     O_R   0.586240 0.852450 0.736910 -0.608660
O49   O     O_R   0.147550 0.413760 0.736910 -0.608660
O50   O     O_R   0.586240 0.147550 0.263090 -0.657674
O51   O     O_R   0.852450 0.586240 0.736910 -0.608660
O52   O     O_R   0.413760 0.852450 0.263090 -0.657674
O53   O     O_2   0.443658 0.883717 0.905814 -0.558088
O54   O     O_2   0.879287 0.453986 0.094229 -0.546550
O55   O     O_2   0.556342 0.116283 0.905814 -0.558088
O56   O     O_2   0.120713 0.546014 0.094229 -0.546550
O57   O     O_2   0.453981 0.879289 0.094229 -0.546550
O58   O     O_2   0.116285 0.556338 0.905814 -0.558089
O59   O     O_2   0.546019 0.120711 0.094229 -0.546550
O60   O     O_2   0.883715 0.443662 0.905814 -0.558089
O61   O     O_2   0.943664 0.383714 0.405814 -0.558089
O62   O     O_2   0.379295 0.953965 0.594229 -0.546551
O63   O     O_2   0.056336 0.616286 0.405814 -0.558089
O64   O     O_2   0.620705 0.046035 0.594229 -0.546551
O65   O     O_2   0.953988 0.379286 0.594229 -0.546550
O66   O     O_2   0.616275 0.056359 0.405814 -0.558090
O67   O     O_2   0.046012 0.620713 0.594229 -0.546550
O68   O     O_2   0.383725 0.943641 0.405814 -0.558090
Zn1   Zn    Zn3+2 0.587490 0.999960 0.768710 0.972058
Zn2   Zn    Zn3+2 0.999960 0.412510 0.231290 1.022842
Zn3   Zn    Zn3+2 0.412510 0.000040 0.768710 0.972058
Zn4   Zn    Zn3+2 0.000040 0.587490 0.231290 1.022842
Zn5   Zn    Zn3+2 0.412510 0.999960 0.231290 1.022842
Zn6   Zn    Zn3+2 0.000040 0.412510 0.768710 0.972058
Zn7   Zn    Zn3+2 0.587490 0.000040 0.231290 1.022842
Zn8   Zn    Zn3+2 0.999960 0.587490 0.768710 0.972058
Zn9   Zn    Zn3+2 0.087490 0.499960 0.268710 0.972058
Zn10  Zn    Zn3+2 0.499960 0.912510 0.731290 1.022842
Zn11  Zn    Zn3+2 0.912510 0.500040 0.268710 0.972058
Zn12  Zn    Zn3+2 0.500040 0.087490 0.731290 1.022842
Zn13  Zn    Zn3+2 0.912510 0.499960 0.731290 1.022842
Zn14  Zn    Zn3+2 0.500040 0.912510 0.268710 0.972058
Zn15  Zn    Zn3+2 0.087490 0.500040 0.731290 1.022842
Zn16  Zn    Zn3+2 0.499960 0.087490 0.268710 0.972058
F1    F     F_    0.609192 0.705929 0.740724 -0.599740
F2    F     F_    0.729561 0.368391 0.222732 -0.612679
F3    F     F_    0.390808 0.294071 0.740724 -0.599740
F4    F     F_    0.270439 0.631609 0.222732 -0.612679
F5    F     F_    0.368391 0.729561 0.222732 -0.612679
F6    F     F_    0.294071 0.390808 0.740724 -0.599740
F7    F     F_    0.631609 0.270439 0.222732 -0.612679
F8    F     F_    0.705929 0.609192 0.740724 -0.599740
F9    F     F_    0.109192 0.205929 0.240724 -0.599740
F10   F     F_    0.229561 0.868391 0.722732 -0.612679
F11   F     F_    0.890808 0.794071 0.240724 -0.599740
F12   F     F_    0.770439 0.131609 0.722732 -0.612679
F13   F     F_    0.868391 0.229561 0.722732 -0.612679
F14   F     F_    0.794071 0.890808 0.240724 -0.599740
F15   F     F_    0.131609 0.770439 0.722732 -0.612679
F16   F     F_    0.205929 0.109192 0.240724 -0.599740
H129  H     H_    0.381896 0.004559 0.879327 0.146525
H130  H     H_    0.997736 0.381842 0.120662 0.149552
H131  H     H_    0.618104 0.995441 0.879327 0.146525
H132  H     H_    0.002264 0.618158 0.120662 0.149552
H133  H     H_    0.381842 0.997738 0.120663 0.149553
H134  H     H_    0.995443 0.618103 0.879327 0.146524
H135  H     H_    0.618158 0.002262 0.120663 0.149552
H136  H     H_    0.004557 0.381897 0.879327 0.146524
H137  H     H_    0.881896 0.504556 0.379327 0.146524
H138  H     H_    0.497749 0.881842 0.620663 0.149554
H139  H     H_    0.118103 0.495444 0.379327 0.146524
H140  H     H_    0.502251 0.118158 0.620663 0.149554
H141  H     H_    0.881842 0.497734 0.620662 0.149552
H142  H     H_    0.495428 0.118103 0.379327 0.146527
H143  H     H_    0.118158 0.502266 0.620662 0.149551
H144  H     H_    0.504572 0.881897 0.379327 0.146526

loop_
_geom_bond_atom_site_label_1
_geom_bond_atom_site_label_2
_ccdc_geom_bond_type
C116  O46   A    
C213  H143  S    
C76   C86   A    
O47   Zn9   S    
C145  H89   S    
C46   H118  S    
C143  C175  S    
C79   C87   A    
C125  H5    S    
C122  F2    S    
C65   C89   A    
C90   H18   S    
C114  O48   A    
C61   C227  A    
C108  O38   A    
C230  H112  S    
C197  N7    A    
C69   C93   A    
C138  C143  S    
C94   H22   S    
C8    O18   A    
C189  N3    A    
C139  C142  S    
C21   C33   A    
C24   C38   A    
C16   N8    S    
C14   N6    S    
C143  H87   S    
C144  H88   S    
C77   C101  A    
C158  C174  S    
C66   C72   A    
C21   C83   A    
C118  C173  S    
C122  C170  S    
O12   Zn13  S    
C102  H30   S    
C139  C171  S    
C70   C84   A    
C106  C177  S    
C126  C174  S    
C34   C194  A    
C6    O16   A    
C155  C158  S    
C49   H121  S    
C138  H82   S    
C113  O29   A    
C109  O43   A    
C110  O44   A    
C107  O37   A    
C106  O22   A    
C147  C150  S    
C190  N4    A    
C140  C141  S    
C121  C128  S    
C15   C215  A    
C25   C41   A    
C123  C126  S    
C146  H42   S    
C23   C37   A    
C127  F7    S    
C28   C44   A    
C111  C182  S    
C113  O47   A    
C116  C171  S    
C29   C45   A    
C142  H86   S    
C135  F15   S    
C142  H38   S    
C126  H6    S    
C54   C92   A    
C13   C209  A    
C66   C82   A    
O4    Zn8   S    
C120  C175  S    
C164  H76   S    
C165  H77   S    
C27   C187  A    
O7    Zn12  S    
C10   C202  A    
C72   C84   A    
C25   C185  A    
O4    Zn13  S    
C109  C184  S    
C122  H2    S    
C204  C220  A    
C35   C51   A    
C29   C189  A    
C154  H50   S    
C161  C177  S    
C221  H103  S    
C213  C229  A    
C109  O25   A    
C153  H65   S    
C139  H35   S    
C107  O23   A    
C17   C87   A    
C138  H34   S    
C149  H93   S    
C19   C85   A    
C8    O20   A    
C21   C35   A    
C120  O50   A    
C76   C100  A    
C22   C36   A    
C7    O19   A    
C17   C25   A    
C80   C88   A    
C196  N6    A    
C194  N6    A    
C50   C96   A    
C188  O56   S    
C209  H139  S    
C68   C92   A    
C155  H51   S    
C18   C88   A    
C185  O53   S    
C72   C96   A    
C147  C179  S    
C118  O34   A    
C71   C95   A    
C6    O14   A    
O37   Zn3   S    
C73   C77   A    
C104  H32   S    
C49   C93   A    
C75   C79   A    
C134  H14   S    
C210  H140  S    
C147  H43   S    
O21   Zn12  S    
C51   C95   A    
C207  C223  A    
C155  H67   S    
C129  F9    S    
C97   H25   S    
C41   H113  S    
C166  C182  S    
C135  C183  S    
C15   C213  A    
C1    C62   S    
C5    O15   A    
C74   C98   A    
C20   C30   A    
C3    C64   S    
O36   Zn7   S    
C4    C63   S    
C154  C170  S    
C129  H9    S    
C5    C58   S    
C143  H39   S    
C144  H40   S    
C76   C78   A    
C132  F12   S    
C119  C174  S    
C11   N3    S    
C190  O58   S    
O2    Zn4   S    
O51   Zn13  S    
C47   C99   A    
C146  C178  S    
C145  C177  S    
C227  H105  S    
C122  C127  S    
C198  O66   S    
O3    Zn7   S    
O4    Zn15  S    
C58   C220  A    
C54   H126  S    
C110  C181  S    
C192  O60   S    
C38   C198  A    
C149  H45   S    
C124  F4    S    
C36   C52   A    
O27   Zn14  S    
C37   C53   A    
O19   Zn8   S    
C123  C171  S    
C51   H123  S    
C210  C226  A    
C79   C103  A    
C11   C207  A    
C134  C182  S    
C115  C170  S    
C150  H94   S    
C113  C172  S    
C71   C83   A    
C92   H20   S    
C22   C34   A    
O1    Zn1   S    
C7    O17   A    
O33   Zn8   S    
C17   C27   A    
C135  H15   S    
C18   C28   A    
C96   H24   S    
C164  H60   S    
C165  H61   S    
O41   Zn7   S    
O42   Zn8   S    
C156  C172  S    
C117  O51   A    
C56   H128  S    
C124  H4    S    
C223  H101  S    
C168  H64   S    
C161  H57   S    
C36   C196  A    
C147  H91   S    
C99   H27   S    
C166  H78   S    
C73   C85   A    
C144  C176  S    
C75   C99   A    
C137  H81   S    
C111  O27   A    
C126  F6    S    
C16   C214  A    
C118  O52   A    
C115  O45   A    
C139  H83   S    
C114  O30   A    
C133  C181  S    
C137  C144  S    
C132  C180  S    
C67   C81   A    
C163  C179  S    
O11   Zn16  S    
C55   H127  S    
O9    Zn14  S    
C26   C42   A    
C63   C231  A    
C20   C32   A    
C39   C199  A    
C201  H131  S    
C225  H107  S    
C152  H48   S    
C30   C46   A    
C192  N4    A    
C208  C224  A    
C231  H109  S    
C214  H144  S    
C44   H116  S    
O29   Zn4   S    
C68   C82   A    
C202  C218  A    
C153  C160  S    
C196  O64   S    
C154  C159  S    
C64   C230  A    
C58   C218  A    
C98   H26   S    
C229  H111  S    
C62   C228  A    
C3    O11   A    
C30   C190  A    
C115  O31   A    
C162  C178  S    
C145  C152  S    
O5    Zn10  S    
C146  C151  S    
C15   N7    S    
C110  O26   A    
C77   C87   A    
C206  H136  S    
C26   C186  A    
C31   C47   A    
C11   C205  A    
O40   Zn2   S    
C216  H142  S    
C133  H13   S    
C188  N2    A    
C114  C169  S    
O3    Zn16  S    
C127  H7    S    
C95   H23   S    
C146  H90   S    
C13   C211  A    
O34   Zn5   S    
C130  C135  S    
C18   C26   A    
C131  C134  S    
C19   C31   A    
C66   C90   A    
C91   H19   S    
O1    Zn10  S    
C121  F1    S    
C89   H17   S    
C80   C104  A    
C164  C165  S    
C70   C94   A    
C120  O36   A    
C101  H29   S    
C28   C188  A    
C1    O7    A    
C93   H21   S    
C33   C49   A    
C31   C191  A    
C136  H16   S    
C16   C216  A    
C55   C91   A    
C130  C178  S    
C75   C85   A    
C39   C55   A    
C40   C56   A    
C20   C86   A    
C140  H36   S    
C141  H37   S    
C164  C180  S    
C2    C61   S    
C35   C195  A    
C63   C229  A    
C33   C193  A    
C148  C180  S    
C74   C80   A    
C149  C181  S    
C32   C48   A    
C6    C57   S    
C187  N1    A    
C209  C225  A    
C125  F5    S    
C112  C183  S    
C127  C175  S    
C128  C176  S    
C189  O57   S    
C200  O68   S    
C161  H73   S    
O31   Zn2   S    
C163  C166  S    
C187  O55   S    
C53   H125  S    
C64   C232  A    
C44   C102  A    
O38   Zn4   S    
C40   C200  A    
C193  O61   S    
C62   C226  A    
C129  C177  S    
C167  H79   S    
C3    O9    A    
C168  H80   S    
C199  N7    A    
O45   Zn11  S    
O23   Zn10  S    
C134  F14   S    
O46   Zn12  S    
C133  F13   S    
O6    Zn11  S    
C65   C81   A    
C38   C54   A    
C45   H117  S    
C136  C184  S    
C67   C91   A    
C159  H71   S    
C151  C183  S    
C160  H72   S    
C9    C201  A    
C123  H3    S    
O3    Zn14  S    
C121  H1    S    
C5    O13   A    
C19   C29   A    
C151  H95   S    
C7    C60   S    
C220  H98   S    
C156  H52   S    
O26   Zn13  S    
C78   C88   A    
C166  H62   S    
O1    Zn12  S    
C47   H119  S    
O2    Zn11  S    
C23   C81   A    
O13   Zn2   S    
O16   Zn1   S    
C162  H58   S    
C42   C104  A    
C157  H53   S    
C128  H8    S    
C60   C222  A    
C163  H75   S    
C14   C212  A    
C202  H132  S    
O48   Zn10  S    
C8    C59   S    
C136  F16   S    
O8    Zn9   S    
C193  N5    A    
O1    Zn3   S    
C57   C217  A    
C65   C69   A    
C41   C101  A    
C67   C71   A    
C43   H115  S    
C105  O39   A    
C43   C103  A    
C50   H122  S    
C106  O40   A    
C191  N3    A    
C212  C228  A    
C27   C43   A    
C222  H104  S    
C153  C169  S    
C12   N4    S    
C2    O8    A    
C108  C179  S    
C9    N1    S    
C45   C97   A    
C52   H124  S    
C163  H59   S    
C157  C173  S    
C42   H114  S    
C121  C169  S    
C100  H28   S    
C130  F10   S    
C158  H70   S    
C138  C170  S    
C130  H10   S    
O10   Zn15  S    
C125  C173  S    
C232  H110  S    
C4    O10   A    
C142  C174  S    
C1    O5    A    
C73   C97   A    
C111  O41   A    
C219  H97   S    
C198  N8    A    
C215  C231  A    
C12   C208  A    
O22   Zn9   S    
C156  C157  S    
C206  C222  A    
O3    Zn5   S    
O52   Zn14  S    
C10   N2    S    
C140  H84   S    
C141  H85   S    
O49   Zn15  S    
C105  O21   A    
C205  C221  A    
C24   C82   A    
C205  H135  S    
C151  H47   S    
C9    C203  A    
C216  C232  A    
C137  H33   S    
C203  H129  S    
C167  C183  S    
C132  C133  S    
C168  C184  S    
C108  O24   A    
C124  C172  S    
C185  N1    A    
C200  N8    A    
C52   C94   A    
C37   C197  A    
C152  C184  S    
C48   H120  S    
C191  O59   S    
C56   C90   A    
O32   Zn3   S    
C131  F11   S    
C140  C172  S    
O2    Zn9   S    
C159  C175  S    
O17   Zn6   S    
C141  C173  S    
O15   Zn4   S    
C160  C176  S    
O14   Zn3   S    
C60   C224  A    
C132  H12   S    
O39   Zn1   S    
O35   Zn6   S    
C167  H63   S    
C34   C50   A    
C207  H133  S    
C14   C210  A    
O24   Zn11  S    
C153  H49   S    
C148  C149  S    
O43   Zn5   S    
C131  C179  S    
O18   Zn7   S    
C57   C219  A    
O2    Zn2   S    
O4    Zn6   S    
C195  N5    A    
C159  H55   S    
C160  H56   S    
C22   C84   A    
C145  H41   S    
C150  H46   S    
C69   C83   A    
C152  H96   S    
C129  C136  S    
C112  O28   A    
C224  H102  S    
C148  H44   S    
C2    O6    A    
C212  H138  S    
C74   C86   A    
C154  H66   S    
C59   C223  A    
C117  C176  S    
C123  F3    S    
C217  H99   S    
C107  C178  S    
C186  O54   S    
C162  H74   S    
C105  C180  S    
C119  O35   A    
C211  H137  S    
C204  H130  S    
C4    O12   A    
C117  O33   A    
C128  F8    S    
C158  H54   S    
C46   C100  A    
C194  O62   S    
C13   N5    S    
C186  N2    A    
C116  O32   A    
C137  C169  S    
C156  H68   S    
C157  H69   S    
C150  C182  S    
O20   Zn5   S    
O50   Zn16  S    
O44   Zn6   S    
C32   C192  A    
C48   C98   A    
C203  C219  A    
C165  C181  S    
C201  C217  A    
C131  H11   S    
C53   C89   A    
C61   C225  A    
C226  H108  S    
C23   C39   A    
C228  H106  S    
C24   C40   A    
C59   C221  A    
C218  H100  S    
C119  O49   A    
C208  H134  S    
O28   Zn15  S    
O25   Zn16  S    
C161  C168  S    
C12   C206  A    
C162  C167  S    
C112  O42   A    
C155  C171  S    
O30   Zn1   S    
C68   C70   A    
C199  O67   S    
C103  H31   S    
C211  C227  A    
C78   C102  A    
C197  O65   S    
C10   C204  A    
C148  H92   S    
C195  O63   S    
C124  C125  S    
C215  H141  S    
C214  C230  A    
