data_mof_unit_24094.cif
_audit_creation_date              2012-10-26T18:26:15-0400
_audit_creation_method            fapswitch 2.2
_symmetry_space_group_name_H-M    P1
_symmetry_Int_Tables_number       1
_space_group_crystal_system       triclinic
_cell_length_a                    13.866371
_cell_length_b                    8.709312
_cell_length_c                    7.620618
_cell_angle_alpha                 103.324452
_cell_angle_beta                  90.367561
_cell_angle_gamma                 95.775828
_cell_volume                      890.578205633

loop_
_atom_site_label
_atom_site_type_symbol
_atom_type_description
_atom_site_fract_x
_atom_site_fract_y
_atom_site_fract_z
_atom_type_partial_charge
C1    C     C_R   0.495771 0.200113 0.453914 0.540241
C2    C     C_1   0.867911 0.478922 0.439726 0.025294
C3    C     C_2   0.491140 0.031331 0.430147 -0.156227
C4    C     C_2   0.505125 0.968753 0.571526 -0.153531
C5    C     C_3   0.384918 0.364856 0.955623 -0.048279
C6    C     C_3   0.359648 0.208718 0.013906 -0.302509
C7    C     C_3   0.277055 0.104809 0.896154 -0.471542
C8    C     C_3   0.585264 0.685531 0.057126 -0.051346
C9    C     C_3   0.680960 0.723334 0.968522 -0.294204
C10   C     C_3   0.745124 0.858412 0.093115 -0.465944
C11   C     C_R   0.502904 0.799894 0.546503 0.540548
C12   C     C_R   0.319302 0.502957 0.529234 0.541063
C13   C     C_R   0.680708 0.496986 0.470743 0.541171
C14   C     C_1   0.782351 0.488222 0.452730 0.004583
C15   C     C_1   0.217657 0.511398 0.547172 0.004895
C16   C     C_2   0.970189 0.467343 0.428129 0.110044
C17   C     C_2   0.029793 0.531572 0.571669 0.108422
C18   C     C_1   0.132075 0.520336 0.560073 0.025340
Cu1   Cu    Cu3+1 0.510540 0.517220 0.682700 0.922920
Cu2   Cu    Cu3+1 0.489460 0.482780 0.317300 0.925727
H1    H     H_    0.475323 0.958426 0.295418 0.117220
H2    H     H_    0.706082 0.966107 0.130499 0.157520
H3    H     H_    0.766422 0.822791 0.217656 0.165770
H4    H     H_    0.811974 0.887740 0.022884 0.204175
H5    H     H_    0.721397 0.616834 0.938489 0.208594
H6    H     H_    0.667348 0.763161 0.843796 0.206892
H7    H     H_    0.542210 0.787922 0.071128 0.122312
H8    H     H_    0.608949 0.674374 0.187926 0.199694
H9    H     H_    0.519372 0.042004 0.707095 0.131224
H10   H     H_    0.211504 0.169300 0.902912 0.193815
H11   H     H_    0.299011 0.070375 0.753621 0.152190
H12   H     H_    0.258781 0.995021 0.944998 0.179093
H13   H     H_    0.424008 0.140917 0.000645 0.175784
H14   H     H_    0.334969 0.231847 0.154353 0.213188
H15   H     H_    0.323505 0.438757 0.984429 0.150861
H16   H     H_    0.391190 0.325628 0.812043 0.196459
I1    I     I_    0.980097 0.656111 0.822571 -0.366462
I2    I     I_    0.020035 0.342269 0.177461 -0.351902
N1    N     N_2   0.473570 0.456830 0.042740 -0.142864
N2    N     N_2   0.526430 0.543170 0.957260 -0.140680
O1    O     O_R   0.506850 0.286020 0.618680 -0.515262
O2    O     O_R   0.493150 0.713980 0.381320 -0.529301
O3    O     O_R   0.489050 0.256940 0.310110 -0.515972
O4    O     O_R   0.510950 0.743060 0.689890 -0.513297
O5    O     O_R   0.372320 0.516630 0.676100 -0.529028
O6    O     O_R   0.627680 0.483370 0.323900 -0.510932
O7    O     O_R   0.354510 0.487550 0.367530 -0.500215
O8    O     O_R   0.645490 0.512450 0.632470 -0.505544

loop_
_geom_bond_atom_site_label_1
_geom_bond_atom_site_label_2
_ccdc_geom_bond_type
C13   O8    A    
Cu2   O2    S    
Cu1   O5    S    
C6    C7    S    
C12   O5    A    
C6    H13   S    
C10   H3    S    
C15   C18   T    
C2    C16   S    
C9    C10   S    
C4    H9    S    
C12   C15   S    
C6    H14   S    
C17   C18   S    
C9    H5    S    
C11   O4    A    
C7    H10   S    
C17   I1    S    
C13   C14   S    
C10   H2    S    
C4    C11   S    
C5    C6    S    
C12   O7    A    
C8    H8    S    
C5    H15   S    
C1    O1    A    
C9    H6    S    
C5    N1    S    
C13   O6    A    
C2    C14   T    
C3    H1    S    
Cu2   O7    S    
C7    H11   S    
Cu1   N2    S    
C3    C4    D    
C5    H16   S    
Cu1   O1    S    
Cu2   O3    S    
Cu1   O4    S    
C11   O2    A    
N1    N2    D    
Cu2   N1    S    
C8    H7    S    
Cu1   O8    S    
C8    C9    S    
C7    H12   S    
C8    N2    S    
C10   H4    S    
C1    O3    A    
Cu2   O6    S    
Cu1   Cu2   S    
C16   I2    S    
C16   C17   D    
C1    C3    S    
