data_mof_unit_26244.cif
_audit_creation_date              2012-12-11T15:45:44-0500
_audit_creation_method            fapswitch 2.2
_symmetry_space_group_name_H-M    P1
_symmetry_Int_Tables_number       1
_space_group_crystal_system       triclinic
_cell_length_a                    8.24035
_cell_length_b                    19.019053
_cell_length_c                    22.877765
_cell_angle_alpha                 95.582571
_cell_angle_beta                  89.387781
_cell_angle_gamma                 94.474302
_cell_volume                      3557.58854625

loop_
_atom_site_label
_atom_site_type_symbol
_atom_type_description
_atom_site_fract_x
_atom_site_fract_y
_atom_site_fract_z
_atom_type_partial_charge
Ba1   Ba    Ba6+2 0.850680 0.532880 0.472010 1.639817
Ba2   Ba    Ba6+2 0.339140 0.467180 0.527990 1.631101
C1    C     C_3   0.656163 0.793472 0.318712 -0.369253
C2    C     C_R   0.102268 0.560334 0.938526 -0.026420
C3    C     C_R   0.056446 0.556984 0.878671 0.589350
C4    C     C_3   0.102113 0.682551 0.310973 0.321694
C5    C     C_R   0.949063 0.436280 0.881245 0.574357
C6    C     C_R   0.994662 0.437859 0.941017 -0.020917
C7    C     C_R   0.071105 0.500378 0.969802 -0.050830
C8    C     C_R   0.177737 0.622580 0.968026 -0.077685
C9    C     C_R   0.220943 0.625299 0.027232 -0.075819
C10   C     C_R   0.190848 0.565783 0.059066 -0.018840
C11   C     C_R   0.116094 0.503053 0.030172 -0.051735
C12   C     C_3   0.631797 0.719902 0.339585 0.356697
C13   C     C_R   0.965608 0.378228 0.972768 -0.077680
C14   C     C_R   0.011388 0.380642 0.031766 -0.076244
C15   C     C_R   0.086672 0.442957 0.061338 -0.025772
C16   C     C_3   0.079344 0.702757 0.249108 -0.317210
C17   C     C_R   0.133799 0.446254 0.121150 0.590731
C18   C     C_R   0.233465 0.567998 0.119116 0.574655
C19   C     C_2   0.776216 0.474193 0.771758 -0.077504
C20   C     C_3   0.725683 0.480938 0.709002 -0.054969
C21   C     C_1   0.006639 0.512544 0.685808 0.040738
C22   C     C_2   0.052656 0.515064 0.741872 -0.107527
C23   C     C_3   0.501922 0.368975 0.350600 0.302569
C24   C     C_2   0.932500 0.493462 0.788610 0.201494
C25   C     C_R   0.404416 0.542434 0.231796 -0.094947
C26   C     C_R   0.445945 0.548258 0.291528 -0.020060
C27   C     C_R   0.186205 0.489328 0.315037 0.038646
C28   C     C_3   0.197880 0.682896 0.595869 0.311186
C29   C     C_R   0.141294 0.484736 0.255172 -0.098483
C30   C     C_R   0.249321 0.512236 0.212500 0.194562
C31   C     C_2   0.869336 0.477578 0.667950 -0.283885
C32   C     C_R   0.396187 0.700197 0.472865 -0.294009
C33   C     C_R   0.538918 0.723226 0.503298 0.070802
C34   C     C_3   0.501521 0.352956 0.284144 -0.364737
C35   C     C_R   0.592270 0.795465 0.508598 -0.122090
C36   C     C_R   0.500963 0.845149 0.484191 -0.015777
C37   C     C_R   0.352133 0.821049 0.456289 -0.140662
C38   C     C_R   0.299479 0.748935 0.451569 0.017950
C39   C     C_R   0.538900 0.961638 0.440807 -0.078636
C40   C     C_3   0.210327 0.762863 0.610616 -0.388030
C41   C     C_R   0.598737 0.033357 0.442044 0.065659
C42   C     C_R   0.672400 0.067559 0.494901 0.041061
C43   C     C_R   0.690677 0.027034 0.542395 -0.104419
C44   C     C_R   0.636590 0.955292 0.538994 -0.082967
C45   C     C_3   0.080341 0.322534 0.690325 0.297887
C46   C     C_R   0.559291 0.921798 0.488305 0.042619
C47   C     C_R   0.870412 0.171515 0.532449 -0.123118
C48   C     C_R   0.915564 0.244761 0.539262 0.020962
C49   C     C_R   0.668990 0.266836 0.489827 0.043277
C50   C     C_R   0.621581 0.194632 0.484671 -0.141070
C51   C     C_R   0.723580 0.145387 0.503430 -0.004993
C52   C     C_3   0.043081 0.302143 0.386966 0.255906
C53   C     C_R   0.814442 0.291673 0.517625 -0.274966
C54   C     C_3   0.104120 0.234885 0.353303 -0.247519
C55   C     C_3   0.704839 0.629772 0.648449 0.302890
C56   C     C_3   0.122643 0.308049 0.752237 -0.313869
C57   C     C_3   0.741945 0.659702 0.711486 -0.371597
C58   C     C_R   0.088807 0.168781 0.385172 -0.005355
C59   C     C_R   0.001752 0.106596 0.360486 -0.048975
C60   C     C_R   0.006109 0.043183 0.386753 -0.045156
C61   C     C_R   0.096170 0.041315 0.437807 -0.056077
C62   C     C_R   0.184330 0.102528 0.462058 -0.080392
C63   C     C_R   0.181141 0.165496 0.435423 -0.081444
C64   C     C_R   0.473694 0.173530 0.685087 0.060351
C65   C     C_R   0.407587 0.164983 0.741018 -0.043812
C66   C     C_R   0.258358 0.125826 0.746736 -0.074825
C67   C     C_3   0.604873 0.288980 0.657265 0.361063
C68   C     C_R   0.175006 0.094439 0.696795 -0.035265
C69   C     C_R   0.241129 0.101797 0.641041 -0.017128
C70   C     C_R   0.389943 0.141128 0.635113 -0.018548
C71   C     C_3   0.580429 0.072080 0.387315 -0.212138
C72   C     C_3   0.589380 0.025939 0.328736 -0.424748
C73   C     C_3   0.632500 0.216991 0.678412 -0.244085
C74   C     C_R   0.335599 0.523323 0.332560 -0.304468
H1    H     H_    0.694525 0.721067 0.382484 0.078871
H2    H     H_    0.614653 0.583288 0.648292 0.038968
H3    H     H_    0.788012 0.808897 0.313865 0.140659
H4    H     H_    0.824708 0.708716 0.711726 0.139782
H5    H     H_    0.802371 0.621225 0.735410 0.077961
H6    H     H_    0.627342 0.672430 0.734748 0.122860
H7    H     H_    0.499015 0.707033 0.345305 -0.055676
H8    H     H_    0.603231 0.832453 0.351249 0.066391
H9    H     H_    0.377011 0.379560 0.365412 -0.009810
H10   H     H_    0.586122 0.416745 0.361932 0.071544
H11   H     H_    0.418534 0.305313 0.271143 0.125019
H12   H     H_    0.296969 0.777981 0.647380 0.129391
H13   H     H_    0.459483 0.398311 0.263077 0.069106
H14   H     H_    0.626449 0.343330 0.268258 0.136579
H15   H     H_    0.594871 0.794261 0.275809 0.123291
H16   H     H_    0.077692 0.654612 0.217650 0.121473
H17   H     H_    0.160500 0.368495 0.679172 0.107430
H18   H     H_    0.952172 0.335892 0.689727 -0.014485
H19   H     H_    0.249090 0.292136 0.753462 0.145032
H20   H     H_    0.114684 0.356928 0.782380 0.114289
H21   H     H_    0.037435 0.265190 0.767147 0.124885
H22   H     H_    0.722121 0.311203 0.639893 -0.079833
H23   H     H_    0.254108 0.789861 0.572056 0.063573
H24   H     H_    0.515434 0.281554 0.620762 0.077182
H25   H     H_    0.710395 0.187424 0.646272 0.045955
H26   H     H_    0.018544 0.635157 0.316875 0.101082
H27   H     H_    0.700396 0.225389 0.720591 0.115218
H28   H     H_    0.986794 0.333393 0.054276 0.121441
H29   H     H_    0.907470 0.329207 0.952011 0.119298
H30   H     H_    0.278338 0.674447 0.048041 0.121912
H31   H     H_    0.493476 0.560785 0.200481 0.117960
H32   H     H_    0.203437 0.669687 0.945416 0.122433
H33   H     H_    0.177184 0.532393 0.754157 0.129277
H34   H     H_    0.088850 0.780830 0.623578 0.121801
H35   H     H_    0.683946 0.461134 0.804009 0.105954
H36   H     H_    0.023721 0.459205 0.241980 0.136256
H37   H     H_    0.370513 0.526583 0.378256 0.081696
H38   H     H_    0.230008 0.669388 0.315800 -0.042275
H39   H     H_    0.863490 0.443647 0.626889 0.069100
H40   H     H_    0.506304 0.176989 0.465021 0.052674
H41   H     H_    0.478590 0.935707 0.401958 0.070781
H42   H     H_    0.704310 0.812630 0.531854 0.085846
H43   H     H_    0.743727 0.051456 0.583252 0.066166
H44   H     H_    0.651311 0.926494 0.576905 0.064969
H45   H     H_    0.918609 0.289736 0.403718 0.005607
H46   H     H_    0.949253 0.135455 0.549412 0.068556
H47   H     H_    0.275014 0.858206 0.439805 0.072381
H48   H     H_    0.850331 0.347872 0.521468 0.072067
H49   H     H_    0.961892 0.726821 0.245480 0.146472
H50   H     H_    0.354155 0.644630 0.469594 0.071561
H51   H     H_    0.180176 0.741304 0.237710 0.121313
H52   H     H_    0.319797 0.665622 0.584296 0.010116
H53   H     H_    0.114092 0.669338 0.558095 0.064356
H54   H     H_    0.934059 0.106611 0.320194 0.061037
H55   H     H_    0.942389 0.995021 0.367135 0.062878
H56   H     H_    0.123806 0.322439 0.423861 0.054890
H57   H     H_    0.099950 0.992251 0.457916 0.065047
H58   H     H_    0.257970 0.100903 0.500670 0.070428
H59   H     H_    0.255499 0.211323 0.452107 0.120459
H60   H     H_    0.470141 0.189448 0.780087 0.077533
H61   H     H_    0.207030 0.120041 0.789903 0.067655
H62   H     H_    0.059348 0.064313 0.701300 0.055048
H63   H     H_    0.176754 0.077156 0.602472 0.038571
H64   H     H_    0.439722 0.146592 0.591672 0.058707
H65   H     H_    0.688459 0.989817 0.328730 0.130396
H66   H     H_    0.472055 0.994130 0.319543 0.131880
H67   H     H_    0.036903 0.224374 0.311025 0.123625
H68   H     H_    0.612033 0.060412 0.292546 0.131240
H69   H     H_    0.461067 0.095263 0.388773 0.115752
H70   H     H_    0.677066 0.115862 0.386317 0.117927
H71   H     H_    0.234220 0.245947 0.341742 0.101035
H72   H     H_    0.819101 0.613741 0.627266 0.023515
N1    N     N_R   0.981053 0.495324 0.850324 -0.425167
N2    N     N_R   0.204038 0.508780 0.150189 -0.422709
O1    O     O_2   0.896730 0.461690 0.361000 -0.444308
O2    O     O_2   0.257563 0.254476 0.552510 -0.503794
O3    O     O_3   0.103074 0.262099 0.651730 -0.602170
O4    O     O_3   0.137170 0.462400 0.432040 -0.492845
O5    O     O_3   0.560670 0.583970 0.528500 -0.482446
O6    O     O_2   0.373560 0.329680 0.473470 -0.482239
O7    O     O_3   0.552733 0.310182 0.375912 -0.643855
O8    O     O_2   0.389436 0.447916 0.706494 -0.509054
O9    O     O_3   0.548135 0.334434 0.704077 -0.598862
O10   O     O_2   0.081375 0.609528 0.852119 -0.596458
O11   O     O_2   0.881554 0.382051 0.856712 -0.607586
O12   O     O_3   0.639930 0.682559 0.619745 -0.636395
O13   O     O_2   0.114594 0.392899 0.146944 -0.598210
O14   O     O_2   0.296046 0.623191 0.143736 -0.614876
O15   O     O_3   0.657500 0.588540 0.395070 -0.487716
O16   O     O_2   0.782194 0.540497 0.291754 -0.499977
O17   O     O_3   0.035048 0.350659 0.345083 -0.625203
O18   O     O_3   0.698478 0.670776 0.298010 -0.599119
O19   O     O_2   0.816140 0.670340 0.526560 -0.465673
O20   O     O_3   0.069580 0.624410 0.423530 -0.494494
O21   O     O_2   0.963237 0.750638 0.460020 -0.487177
O22   O     O_3   0.065119 0.739341 0.351497 -0.604159
O23   O     O_2   0.292960 0.538340 0.639040 -0.464108
O24   O     O_3   0.052540 0.537650 0.567960 -0.491145
O25   O     O_3   0.532200 0.411510 0.604930 -0.471608
O26   O     O_3   0.139899 0.651179 0.645350 -0.627260
O27   O     O_3   0.629030 0.416090 0.471500 -0.466977
O28   O     O_3   0.120120 0.375640 0.576470 -0.489509
P1    P     P_3+3 0.067040 0.441110 0.370020 1.001612
P2    P     P_3+3 0.640420 0.660110 0.543790 0.989170
P3    P     P_3+3 0.098464 0.716447 0.422359 0.940103
P4    P     P_3+3 0.122660 0.558950 0.629980 0.994344
P5    P     P_3+3 0.100058 0.283472 0.578887 0.937037
P6    P     P_3+3 0.646604 0.585616 0.318427 0.944919
P7    P     P_3+3 0.555998 0.328486 0.452372 0.942138
P8    P     P_3+3 0.549553 0.419946 0.681445 0.962331

loop_
_geom_bond_atom_site_label_1
_geom_bond_atom_site_label_2
_ccdc_geom_bond_type
C34   H13   S    
C41   C71   S    
O17   P1    S    
C19   C24   D    
Ba2   O5    S    
C71   C72   S    
C8    H32   S    
C48   P5    S    
C57   H6    S    
C52   O17   S    
C56   H19   S    
C1    H3    S    
O24   P4    S    
O27   P7    S    
C5    C6    A    
C27   C74   A    
C4    O22   S    
C43   C44   A    
O5    P2    S    
O26   P4    S    
C5    O11   D    
C35   C36   A    
C32   C38   A    
C61   H57   S    
O9    P8    S    
C19   C20   S    
C33   C35   A    
O7    P7    S    
C32   C33   A    
Ba2   O23   S    
C36   C37   A    
C16   H51   S    
Ba1   P2    S    
C55   C57   S    
C64   C73   S    
C13   C14   A    
C18   O14   D    
Ba1   O20   S    
C17   N2    Am   
C37   H47   S    
C1    H15   S    
Ba1   Ba2   S    
Ba2   P4    S    
C12   H1    S    
Ba1   O5    S    
C56   H20   S    
C4    H38   S    
C7    C11   A    
C67   O9    S    
C5    N1    Am   
C54   H67   S    
Ba1   O27   S    
C42   C51   S    
C14   H28   S    
C64   C70   A    
C55   O12   S    
O3    P5    S    
C14   C15   A    
O18   P6    S    
C21   C22   D    
C67   C73   S    
C68   C69   A    
Ba2   O27   S    
Ba1   O15   S    
C22   H33   S    
O19   P2    D    
C36   C46   S    
O28   P5    S    
C67   H22   S    
C43   H43   S    
C64   C65   A    
C72   H66   S    
Ba2   O4    S    
O4    P1    S    
C73   H27   S    
C39   C41   A    
C66   H61   S    
C59   C60   A    
C56   H21   S    
C12   H7    S    
O8    P8    D    
C28   O26   S    
C19   H35   S    
O21   P3    D    
C44   C46   A    
C50   H40   S    
C34   H11   S    
C4    C16   S    
C28   H52   S    
Ba1   O24   S    
C31   H39   S    
C35   H42   S    
C65   C66   A    
C62   H58   S    
O16   P6    D    
C21   P4    S    
C37   C38   A    
C6    C7    A    
C69   H63   S    
C45   O3    S    
C21   C31   D    
O6    P7    D    
C49   C50   A    
C71   H69   S    
C58   C59   A    
C20   P8    S    
C41   C42   A    
C60   C61   A    
C49   P7    S    
Ba2   O25   S    
O1    P1    D    
C29   C30   A    
C25   H31   S    
C32   H50   S    
C3    O10   D    
C10   C18   A    
C9    H30   S    
C23   H9    S    
C74   H37   S    
C45   H17   S    
C44   H44   S    
C17   O13   D    
O2    P5    D    
C63   H59   S    
C1    C12   S    
C59   H54   S    
C72   H65   S    
C58   C63   A    
C68   H62   S    
C6    C13   A    
O20   P3    S    
C23   O7    S    
C40   H12   S    
C12   O18   S    
C26   C74   A    
C1    H8    S    
C50   C51   A    
C38   P3    S    
C34   H14   S    
C33   P2    S    
C20   C31   S    
C72   H68   S    
C53   H48   S    
Ba2   O6    S    
C25   C30   A    
O15   P6    S    
O12   P2    S    
C55   H2    S    
C52   H45   S    
C24   N1    S    
C42   C43   A    
C57   H5    S    
C22   C24   S    
C2    C3    A    
C57   H4    S    
O23   P4    D    
C29   H36   S    
C9    C10   A    
C52   C54   S    
C28   H53   S    
C52   H56   S    
C48   C53   A    
C11   C15   A    
C71   H70   S    
C16   H16   S    
C62   C63   A    
C13   H29   S    
C54   H71   S    
C65   H60   S    
C40   H34   S    
C69   C70   A    
C27   C29   A    
C40   H23   S    
Ba2   O24   S    
C45   C56   S    
C39   C46   A    
Ba1   P1    S    
C47   C51   A    
C47   H46   S    
C3    N1    Am   
Ba1   O19   S    
C23   H10   S    
C15   C17   A    
C45   H18   S    
C18   N2    Am   
Ba1   O1    S    
C49   C53   A    
C4    H26   S    
C26   P6    S    
Ba1   O4    S    
C16   H49   S    
C8    C9    A    
C23   C34   S    
C61   C62   A    
C67   H24   S    
C54   C58   S    
C70   H64   S    
C30   N2    S    
C10   C11   A    
C66   C68   A    
C47   C48   A    
C27   P1    S    
C55   H72   S    
C25   C26   A    
C73   H25   S    
C28   C40   S    
Ba2   O28   S    
C39   H41   S    
C2    C7    A    
O22   P3    S    
C2    C8    A    
C60   H55   S    
O25   P8    S    
