data_mof_unit_39775.cif
_audit_creation_date              2012-12-10T18:05:44-0500
_audit_creation_method            fapswitch 2.2
_symmetry_space_group_name_H-M    P1
_symmetry_Int_Tables_number       1
_space_group_crystal_system       triclinic
_cell_length_a                    10.919346
_cell_length_b                    10.786101
_cell_length_c                    9.615372
_cell_angle_alpha                 90.773705
_cell_angle_beta                  92.073148
_cell_angle_gamma                 91.879208
_cell_volume                      1130.99903867

loop_
_atom_site_label
_atom_site_type_symbol
_atom_type_description
_atom_site_fract_x
_atom_site_fract_y
_atom_site_fract_z
_atom_type_partial_charge
C1    C     C_R   0.500128 0.262493 0.499248 0.869268
C2    C     C_R   0.499872 0.737507 0.500752 0.869267
C3    C     C_R   0.871913 0.493044 0.508588 -0.273666
C4    C     C_R   0.128087 0.506955 0.491412 -0.273666
C5    C     C_R   0.945435 0.539322 0.623476 -0.182986
C6    C     C_R   0.054565 0.460677 0.376524 -0.182988
C7    C     C_R   0.561364 0.064157 0.395906 0.616070
C8    C     C_R   0.438636 0.935843 0.604094 0.616069
C9    C     C_R   0.561051 0.935827 0.397672 -0.312385
C10   C     C_R   0.438949 0.064173 0.602328 -0.312386
C11   C     C_R   0.500025 0.871462 0.501595 -0.242961
C12   C     C_R   0.499975 0.128538 0.498405 -0.242961
C13   C     C_R   0.455565 0.399278 0.069895 0.086814
C14   C     C_R   0.544435 0.600721 0.930105 0.086819
C15   C     C_R   0.454270 0.400498 0.922143 0.585444
C16   C     C_R   0.545730 0.599502 0.077857 0.585443
C17   C     C_R   0.262322 0.502382 0.496982 0.859393
C18   C     C_R   0.737678 0.497618 0.503018 0.859394
C19   C     C_R   0.175049 0.517952 0.019570 -0.141919
C20   C     C_R   0.824949 0.482039 0.980427 -0.141918
C21   C     C_R   0.149894 0.534574 0.159579 -0.124592
C22   C     C_R   0.850105 0.465420 0.840418 -0.124590
C23   C     C_R   0.101300 0.435803 0.236145 0.148773
C24   C     C_R   0.898700 0.564193 0.763856 0.148771
C25   C     C_R   0.075889 0.320636 0.168969 -0.068286
C26   C     C_R   0.924110 0.679358 0.831036 -0.068281
C27   C     C_R   0.096183 0.305014 0.026755 0.136144
C28   C     C_R   0.903817 0.694976 0.973250 0.136141
C29   C     C_R   0.146736 0.404345 0.952496 -0.093530
C30   C     C_R   0.853261 0.595644 0.047504 -0.093537
C31   C     C_R   0.928008 0.449378 0.389600 0.546708
C32   C     C_R   0.071991 0.550621 0.610401 0.546709
Cu1   Cu    Cu3+1 0.500000 0.500020 0.640660 1.053896
Cu2   Cu    Cu3+1 0.500000 0.499980 0.359340 1.053895
H1    H     H_    0.164929 0.393367 0.843258 0.197582
H2    H     H_    0.835067 0.606621 0.156742 0.197586
H3    H     H_    0.214853 0.594203 0.962853 0.219905
H4    H     H_    0.785143 0.405787 0.037140 0.219898
H5    H     H_    0.165869 0.625319 0.207738 0.153041
H6    H     H_    0.834130 0.374677 0.792256 0.153041
H7    H     H_    0.035711 0.244419 0.225929 0.175667
H8    H     H_    0.964290 0.755576 0.774079 0.175669
H9    H     H_    0.610289 0.886929 0.319342 0.245511
H10   H     H_    0.389711 0.113070 0.680658 0.245511
N1    N     N_R   0.500030 0.500030 0.852070 -0.231017
N2    N     N_R   0.499970 0.499970 0.147930 -0.231016
O1    O     O_R   0.499990 0.319660 0.618740 -0.538926
O2    O     O_R   0.500010 0.680340 0.381260 -0.538926
O3    O     O_R   0.499990 0.319630 0.381170 -0.510794
O4    O     O_R   0.500010 0.680370 0.618830 -0.510794
O5    O     O_R   0.319650 0.500020 0.618780 -0.500545
O6    O     O_R   0.680350 0.499980 0.381220 -0.500548
O7    O     O_R   0.319640 0.500000 0.381210 -0.603567
O8    O     O_R   0.680360 0.500000 0.618790 -0.603566
F1    F     F_    0.403028 0.301783 0.850776 -0.684919
F2    F     F_    0.596972 0.698217 0.149223 -0.684918
N3    N     N_3   0.065242 0.187950 0.959768 -0.567841
H11   H     H_    0.082864 0.192103 0.853717 0.228829
H12   H     H_    0.123719 0.122504 0.002477 0.237093
N4    N     N_3   0.934759 0.812038 0.040240 -0.567847
H13   H     H_    0.917156 0.807876 0.146294 0.228825
H14   H     H_    0.876270 0.877482 0.997549 0.237099
F3    F     F_    0.858436 0.394486 0.284569 -0.665610
F4    F     F_    0.141563 0.605508 0.715435 -0.665615
F5    F     F_    0.624843 0.125072 0.297384 -0.637354
F6    F     F_    0.375157 0.874928 0.702617 -0.637355
N5    N     N_3   0.412049 0.289902 0.136741 -0.475896
H15   H     H_    0.322941 0.268223 0.100563 0.218756
H16   H     H_    0.466401 0.216795 0.106957 0.277908
N6    N     N_3   0.587955 0.710096 0.863259 -0.475896
H17   H     H_    0.677064 0.731773 0.899436 0.218754
H18   H     H_    0.533606 0.783206 0.893043 0.277907

loop_
_geom_bond_atom_site_label_1
_geom_bond_atom_site_label_2
_ccdc_geom_bond_type
C20   H4    S    
C2    O4    A    
C16   F2    S    
C8    F6    S    
N6    H17   S    
Cu2   N2    S    
C17   O7    A    
Cu1   O5    S    
Cu1   N1    S    
C29   H1    S    
C26   C28   A    
C21   H5    S    
C13   C15   A    
C30   H2    S    
C18   O8    A    
C3    C5    A    
C5    C32   A    
C22   H6    S    
C17   O5    A    
C28   C30   A    
C6    C31   A    
C18   O6    A    
C15   F1    S    
C20   C30   A    
C3    C31   A    
C9    C11   A    
C26   H8    S    
N3    H11   S    
C4    C32   A    
C1    C12   S    
C10   C12   A    
Cu2   O7    S    
C8    C11   A    
Cu1   O1    S    
C2    C11   S    
C8    C10   A    
C19   C21   A    
C20   C22   A    
Cu1   Cu2   S    
C14   N1    A    
C14   C16   A    
C23   C25   A    
C21   C23   A    
C13   N5    S    
C13   N2    A    
C14   N6    S    
C22   C24   A    
C7    C12   A    
C9    H9    S    
N3    H12   S    
Cu2   O2    S    
C4    C17   S    
C10   H10   S    
N5    H15   S    
C19   C29   A    
C31   F3    S    
C5    C24   S    
C28   N4    S    
C27   C29   A    
C32   F4    S    
C3    C18   S    
N4    H14   S    
C4    C6    A    
C27   N3    S    
C16   N2    A    
Cu1   O8    S    
C7    C9    A    
C15   N1    A    
C25   H7    S    
Cu2   O3    S    
N6    H18   S    
C19   H3    S    
C2    O2    A    
Cu1   O4    S    
C6    C23   S    
Cu2   O6    S    
C7    F5    S    
C1    O1    A    
C24   C26   A    
N4    H13   S    
N5    H16   S    
C25   C27   A    
C1    O3    A    
