data_mof_unit_16880.cif
_audit_creation_date              2012-12-10T18:47:48-0500
_audit_creation_method            fapswitch 2.2
_symmetry_space_group_name_H-M    P1
_symmetry_Int_Tables_number       1
_space_group_crystal_system       triclinic
_cell_length_a                    9.860018
_cell_length_b                    10.666816
_cell_length_c                    15.341543
_cell_angle_alpha                 90.604338
_cell_angle_beta                  67.374533
_cell_angle_gamma                 90.478441
_cell_volume                      1489.26813015

loop_
_atom_site_label
_atom_site_type_symbol
_atom_type_description
_atom_site_fract_x
_atom_site_fract_y
_atom_site_fract_z
_atom_type_partial_charge
C1    C     C_R   0.501441 0.739812 0.498605 0.877478
C2    C     C_R   0.372418 0.933371 0.551495 -0.288871
C3    C     C_R   0.497837 0.127811 0.501737 -0.050567
C4    C     C_R   0.502850 0.872221 0.497728 -0.057974
C5    C     C_R   0.963569 0.424935 0.438949 -0.333611
C6    C     C_R   0.036666 0.575289 0.560797 -0.359435
C7    C     C_R   0.108825 0.422761 0.439258 0.605780
C8    C     C_R   0.891485 0.577747 0.560345 0.582754
C9    C     C_R   0.407558 0.501076 0.676683 0.868962
C10   C     C_R   0.591950 0.497711 0.323581 0.853657
C11   C     C_R   0.346063 0.498522 0.779636 -0.105759
C12   C     C_R   0.498642 0.260192 0.501351 0.896417
C13   C     C_R   0.647181 0.470538 0.223032 -0.090527
C14   C     C_R   0.145201 0.523254 0.931214 -0.156303
C15   C     C_R   0.778039 0.331691 0.093695 -0.147612
C16   C     C_R   0.196773 0.520329 0.832797 -0.223607
C17   C     C_R   0.756395 0.381124 0.182370 -0.206935
C18   C     C_R   0.439676 0.471885 0.825201 -0.149072
C19   C     C_R   0.561955 0.509969 0.174898 -0.140010
C20   C     C_R   0.386586 0.461502 0.923068 0.051676
C21   C     C_R   0.561433 0.444855 0.095941 0.074756
C22   C     C_R   0.241848 0.499595 0.977035 0.096700
C23   C     C_R   0.306025 0.514454 0.115471 0.452221
C24   C     C_R   0.679633 0.360994 0.050205 0.065196
C25   C     C_R   0.477871 0.419450 0.967870 -0.164492
C26   C     C_R   0.448597 0.462089 0.060934 -0.118288
C27   C     C_3   0.205267 0.665187 0.234260 0.058458
C28   C     C_3   0.259404 0.731058 0.303630 -0.840188
C29   C     C_3   0.510041 0.174786 0.854653 0.091146
C30   C     C_3   0.490779 0.142824 0.763038 -0.808706
C31   C     C_3   0.174137 0.237104 0.350347 0.088332
C32   C     C_3   0.305478 0.150522 0.307377 -0.800766
C33   C     C_3   0.829031 0.764674 0.647682 0.069814
C34   C     C_R   0.594772 0.333431 0.922702 0.430800
C35   C     C_3   0.699874 0.853442 0.689890 -0.813056
C36   C     C_R   0.198490 0.516925 0.074557 -0.066136
C37   C     C_R   0.695294 0.305579 0.963804 -0.024827
C38   C     C_R   0.632245 0.937629 0.445046 0.110589
C39   C     C_R   0.369032 0.062226 0.554212 0.095560
C40   C     C_R   0.628482 0.066827 0.448044 -0.281994
H1    H     H_    0.493093 0.589366 0.202823 0.190436
H2    H     H_    0.065794 0.632339 0.609589 0.150544
H3    H     H_    0.017404 0.492206 0.195713 0.210674
H4    H     H_    0.026308 0.633304 0.141036 0.163992
H5    H     H_    0.773045 0.134934 0.908408 0.189266
H6    H     H_    0.876266 0.258062 0.849480 0.220481
H7    H     H_    0.084178 0.657071 0.270923 0.163100
H8    H     H_    0.231637 0.727352 0.171721 0.121834
H9    H     H_    0.373676 0.765553 0.267158 0.220404
H10   H     H_    0.188946 0.813503 0.335381 0.204003
H11   H     H_    0.253841 0.666873 0.361117 0.296581
H12   H     H_    0.556007 0.462237 0.783898 0.221754
H13   H     H_    0.399478 0.197792 0.908952 0.140032
H14   H     H_    0.552540 0.090815 0.878050 0.134447
H15   H     H_    0.599234 0.126241 0.705202 0.264459
H16   H     H_    0.421963 0.057160 0.772460 0.203732
H17   H     H_    0.436039 0.221290 0.742667 0.247885
H18   H     H_    0.745817 0.830216 0.331692 0.161160
H19   H     H_    0.851468 0.935983 0.358011 0.162975
H20   H     H_    0.207473 0.096557 0.681566 0.173038
H21   H     H_    0.153493 0.098616 0.589427 0.184765
H22   H     H_    0.127735 0.253410 0.295872 0.138673
H23   H     H_    0.820510 0.346086 0.220428 0.140145
H24   H     H_    0.091637 0.189335 0.412828 0.115320
H25   H     H_    0.354100 0.130499 0.360067 0.258846
H26   H     H_    0.270062 0.060757 0.285215 0.191880
H27   H     H_    0.390163 0.195275 0.244692 0.261435
H28   H     H_    0.912904 0.811161 0.585093 0.135066
H29   H     H_    0.874485 0.747757 0.702534 0.130423
H30   H     H_    0.612388 0.809259 0.751462 0.251092
H31   H     H_    0.737243 0.940966 0.713747 0.203587
H32   H     H_    0.654293 0.876941 0.636260 0.266544
H33   H     H_    0.121680 0.540138 0.798548 0.158612
H34   H     H_    0.031355 0.547673 0.970631 0.167851
H35   H     H_    0.865999 0.264940 0.062387 0.164745
H36   H     H_    0.726219 0.119981 0.407153 0.143680
H37   H     H_    0.274054 0.881120 0.592668 0.149529
H38   H     H_    0.934899 0.368220 0.389780 0.141800
N1    N     N_R   0.142780 0.500030 0.500020 -0.130598
N2    N     N_R   0.857220 0.499970 0.499980 -0.116918
N3    N     N_3   0.045836 0.537141 0.130839 -0.466911
N4    N     N_3   0.815523 0.222338 0.916576 -0.470518
N5    N     N_3   0.764534 0.872759 0.387797 -0.437499
N6    N     N_3   0.236984 0.126068 0.611859 -0.442107
O1    O     O_R   0.385370 0.683250 0.500010 -0.642593
O2    O     O_3   0.612199 0.274497 0.838052 -0.628365
O3    O     O_3   0.222355 0.351657 0.375713 -0.541995
O4    O     O_3   0.778755 0.650772 0.622738 -0.575415
O5    O     O_R   0.614630 0.316750 0.499990 -0.632236
O6    O     O_R   0.614700 0.683220 0.500000 -0.556023
O7    O     O_R   0.385300 0.316780 0.500000 -0.560054
O8    O     O_R   0.319830 0.500020 0.632250 -0.619252
O9    O     O_R   0.680170 0.499980 0.367750 -0.632584
O10   O     O_R   0.549160 0.499990 0.632240 -0.559786
O11   O     O_R   0.450840 0.500010 0.367760 -0.542121
O12   O     O_3   0.265689 0.542597 0.211241 -0.598228
Zn1   Zn    Zn3+2 0.346870 0.500020 0.500000 0.982733
Zn2   Zn    Zn3+2 0.653130 0.499980 0.500000 0.984120

loop_
_geom_bond_atom_site_label_1
_geom_bond_atom_site_label_2
_ccdc_geom_bond_type
C27   H8    S    
C15   H35   S    
C21   C26   A    
C11   C18   A    
C1    O6    A    
C38   N5    S    
C34   C37   A    
C12   O7    A    
H5    N4    S    
C18   H12   S    
C14   H34   S    
C32   H26   S    
C19   C21   A    
C33   O4    S    
H19   N5    S    
C39   N6    S    
C28   H11   S    
C29   H14   S    
O10   Zn2   S    
C30   H17   S    
C23   O12   S    
C34   O2    S    
C23   C26   A    
C3    C12   S    
H6    N4    S    
C28   H10   S    
C2    C39   A    
C7    O3    S    
C35   H30   S    
C33   H29   S    
C25   C34   A    
C35   H31   S    
C31   H22   S    
C27   O12   S    
C9    O8    A    
O8    Zn1   S    
C1    O1    A    
C31   O3    S    
C13   C19   A    
C16   H33   S    
C12   O5    A    
H4    N3    S    
C5    C7    A    
C6    C8    A    
C10   O9    A    
C25   C26   A    
C30   H16   S    
H21   N6    S    
C40   H36   S    
C8    O4    S    
C2    C4    A    
C29   C30   S    
C28   H9    S    
C31   C32   S    
C36   N3    S    
C24   C37   A    
O7    Zn1   S    
C5    N2    A    
C9    C11   S    
C29   O2    S    
C32   H27   S    
C15   C24   A    
C4    C38   A    
C35   H32   S    
C6    H2    S    
H3    N3    S    
C14   C16   A    
C37   N4    S    
C7    N1    A    
C27   H7    S    
C15   C17   A    
N2    Zn2   S    
C31   H24   S    
N1    Zn1   S    
C20   C22   A    
C10   C13   S    
C3    C40   A    
O11   Zn1   S    
C22   C36   A    
C30   H15   S    
C13   C17   A    
O5    Zn2   S    
C1    C4    S    
C14   C22   A    
C2    H37   S    
H18   N5    S    
C17   H23   S    
C38   C40   A    
H20   N6    S    
C6    N1    A    
C29   H13   S    
C10   O11   A    
C9    O10   A    
C33   C35   S    
C18   C20   A    
C11   C16   A    
O1    Zn1   S    
C3    C39   A    
C23   C36   A    
C20   C25   A    
C21   C24   A    
C27   C28   S    
C8    N2    A    
C5    H38   S    
O9    Zn2   S    
O6    Zn2   S    
C19   H1    S    
C33   H28   S    
C32   H25   S    
