data_mof_unit_23695.cif
_audit_creation_date              2012-10-26T19:52:58-0400
_audit_creation_method            fapswitch 2.2
_symmetry_space_group_name_H-M    P1
_symmetry_Int_Tables_number       1
_space_group_crystal_system       triclinic
_cell_length_a                    10.904108
_cell_length_b                    9.097548
_cell_length_c                    7.785567
_cell_angle_alpha                 90.016763
_cell_angle_beta                  89.690606
_cell_angle_gamma                 89.927863
_cell_volume                      772.321368218

loop_
_atom_site_label
_atom_site_type_symbol
_atom_type_description
_atom_site_fract_x
_atom_site_fract_y
_atom_site_fract_z
_atom_type_partial_charge
C1    C     C_R   0.500027 0.220011 0.499959 0.556856
C2    C     C_1   0.500176 0.934625 0.499975 -0.055652
C3    C     C_3   0.847264 0.683407 0.111971 -0.244880
C4    C     C_3   0.120641 0.486824 0.080023 -0.283998
C5    C     C_R   0.500149 0.779987 0.499983 0.542451
C6    C     C_R   0.264497 0.509805 0.500014 0.546229
C7    C     C_R   0.735423 0.502620 0.499055 0.542744
C8    C     C_2   0.930478 0.590687 0.383120 0.140857
C9    C     C_2   0.064731 0.572941 0.364582 0.146532
C10   C     C_2   0.867950 0.503562 0.493670 -0.127413
C11   C     C_2   0.132388 0.534001 0.502938 -0.126636
C12   C     C_1   0.500128 0.065351 0.499941 -0.052001
Cu1   Cu    Cu3+1 0.500000 0.500000 0.669080 0.999423
Cu2   Cu    Cu3+1 0.500000 0.500000 0.330920 0.992584
H1    H     H_    0.913443 0.421309 0.571607 0.059846
H2    H     H_    0.180590 0.396398 0.125751 0.173086
H3    H     H_    0.089450 0.525207 0.628622 0.058849
H4    H     H_    0.796998 0.754146 0.356909 0.250226
H5    H     H_    0.779224 0.764956 0.065333 0.135743
H6    H     H_    0.810248 0.571403 0.089266 0.165442
H7    H     H_    0.932295 0.699338 0.035852 0.173422
H8    H     H_    0.197616 0.669432 0.204601 0.275653
H9    H     H_    0.156130 0.526808 0.954590 0.148844
H10   H     H_    0.026601 0.443290 0.060703 0.138169
N1    N     N_1   0.500000 0.500000 0.076820 -0.093091
N2    N     N_1   0.500000 0.500000 0.923180 -0.089763
N3    N     N_2   0.870485 0.707615 0.292844 -0.485355
N4    N     N_2   0.118937 0.606843 0.202169 -0.492565
O1    O     O_R   0.500000 0.288390 0.642760 -0.491860
O2    O     O_R   0.500000 0.711610 0.642760 -0.495911
O3    O     O_R   0.500000 0.288370 0.357190 -0.493085
O4    O     O_R   0.500000 0.711630 0.357190 -0.504347
O5    O     O_R   0.321940 0.500000 0.642750 -0.507160
O6    O     O_R   0.678060 0.500000 0.642750 -0.505496
O7    O     O_R   0.321930 0.500000 0.357180 -0.501710
O8    O     O_R   0.678070 0.500000 0.357180 -0.496032

loop_
_geom_bond_atom_site_label_1
_geom_bond_atom_site_label_2
_ccdc_geom_bond_type
C4    H2    S    
C7    C10   S    
C3    N3    S    
Cu1   O5    S    
C7    O8    A    
C6    O5    A    
Cu2   O3    S    
C5    O4    A    
C2    C12   T    
C1    O1    A    
C3    H6    S    
H8    N4    S    
Cu1   Cu2   S    
C3    H5    S    
C9    C11   D    
C1    C12   S    
Cu1   O1    S    
C4    N4    S    
C10   H1    S    
Cu2   N1    S    
Cu2   O8    S    
C4    H10   S    
C7    O6    A    
Cu1   N2    S    
C3    H7    S    
C2    C5    S    
Cu1   O2    S    
C1    O3    A    
C6    O7    A    
C8    C10   D    
C5    O2    A    
C6    C11   S    
C4    H9    S    
C8    N3    S    
C11   H3    S    
Cu1   O6    S    
N1    N2    T    
Cu2   O7    S    
H4    N3    S    
C9    N4    S    
Cu2   O4    S    
C8    C9    S    
