data_mof_unit_51614.cif
_audit_creation_date              2012-12-10T18:50:01-0500
_audit_creation_method            fapswitch 2.2
_symmetry_space_group_name_H-M    P1
_symmetry_Int_Tables_number       1
_space_group_crystal_system       triclinic
_cell_length_a                    10.644133
_cell_length_b                    9.870255
_cell_length_c                    10.738775
_cell_angle_alpha                 90.149705
_cell_angle_beta                  90.867356
_cell_angle_gamma                 89.711883
_cell_volume                      1128.07183257

loop_
_atom_site_label
_atom_site_type_symbol
_atom_type_description
_atom_site_fract_x
_atom_site_fract_y
_atom_site_fract_z
_atom_type_partial_charge
C1    C     C_R   0.259201 0.500127 0.497787 0.844087
C2    C     C_R   0.578268 0.928131 0.577718 0.004158
C3    C     C_R   0.417893 0.928154 0.424253 0.045717
C4    C     C_R   0.424071 0.072368 0.418376 0.038880
C5    C     C_R   0.501093 0.500150 0.257550 0.891339
C6    C     C_R   0.737758 0.499022 0.478641 0.899790
C7    C     C_R   0.486584 0.499893 0.741226 0.861212
C8    C     C_3   0.395602 0.603710 0.074592 -0.544165
C9    C     C_3   0.454099 0.359206 0.075345 -0.451358
C10   C     C_3   0.396924 0.622512 0.930890 0.151676
C11   C     C_3   0.442302 0.350644 0.931948 0.144211
C12   C     C_3   0.620354 0.528032 0.921324 -0.561163
C13   C     C_3   0.633024 0.533190 0.065779 0.032151
C14   C     C_3   0.498748 0.500427 0.120481 0.001928
C15   C     C_3   0.481260 0.499147 0.878046 -0.054295
C16   C     C_2   0.316253 0.856259 0.355247 0.435079
C17   C     C_2   0.355876 0.144694 0.317176 0.459566
C18   C     C_3   0.258933 0.629622 0.876211 -0.401703
C19   C     C_3   0.177929 0.746200 0.927606 -0.767183
C20   C     C_3   0.304763 0.296355 0.904133 -0.354935
C21   C     C_3   0.258277 0.292253 0.769048 -0.765792
C22   C     C_2   0.456274 0.761909 0.904267 0.486914
C23   C     C_R   0.063903 0.375495 0.475983 -0.224908
C24   C     C_2   0.536088 0.238951 0.893315 0.470633
C25   C     C_2   0.679534 0.672516 0.106230 0.263431
C26   C     C_2   0.736439 0.433931 0.105627 0.346450
C27   C     C_3   0.883166 0.231502 0.415590 -0.397863
C28   C     C_3   0.954527 0.161502 0.310202 -0.766903
C29   C     C_3   0.877108 0.750557 0.384722 -0.319533
C30   C     C_3   0.875297 0.857243 0.487782 -0.864634
C31   C     C_R   0.063163 0.619087 0.453725 -0.202514
C32   C     C_R   0.937368 0.370713 0.446367 0.164170
C33   C     C_R   0.935453 0.619015 0.430445 0.127674
C34   C     C_R   0.869580 0.495626 0.445008 -0.121148
C35   C     C_R   0.125787 0.499093 0.481550 -0.115518
C36   C     C_R   0.578040 0.071557 0.577977 -0.044345
H1    H     H_    0.405799 0.703235 0.122078 0.162416
H2    H     H_    0.639790 0.873925 0.641379 0.149916
H3    H     H_    0.328907 0.756059 0.319208 0.113239
H4    H     H_    0.308958 0.239643 0.332830 0.097637
H5    H     H_    0.171047 0.740563 0.030433 0.257485
H6    H     H_    0.214987 0.846884 0.901922 0.290565
H7    H     H_    0.081347 0.738585 0.887636 0.248385
H8    H     H_    0.261090 0.639472 0.773217 0.227004
H9    H     H_    0.205244 0.538603 0.895552 0.203377
H10   H     H_    0.252034 0.395353 0.730297 0.221175
H11   H     H_    0.318893 0.226867 0.710957 0.314859
H12   H     H_    0.515668 0.277302 0.113061 0.243398
H13   H     H_    0.162215 0.248899 0.765448 0.220997
H14   H     H_    0.298878 0.190545 0.939290 0.260569
H15   H     H_    0.233319 0.347555 0.961419 0.169459
H16   H     H_    0.524026 0.806109 0.968106 0.070684
H17   H     H_    0.634673 0.246557 0.918513 0.049928
H18   H     H_    0.622704 0.738986 0.162894 0.104132
H19   H     H_    0.828603 0.442021 0.064226 0.111380
H20   H     H_    0.962611 0.230503 0.229217 0.271762
H21   H     H_    0.049825 0.129594 0.341591 0.271026
H22   H     H_    0.903133 0.069476 0.279290 0.263367
H23   H     H_    0.302377 0.566019 0.104529 0.187863
H24   H     H_    0.887752 0.167508 0.500455 0.186984
H25   H     H_    0.784766 0.234787 0.382457 0.284963
H26   H     H_    0.841432 0.813129 0.575975 0.264614
H27   H     H_    0.970985 0.898482 0.504286 0.271821
H28   H     H_    0.812044 0.941512 0.459392 0.240762
H29   H     H_    0.933108 0.789818 0.306132 0.236664
H30   H     H_    0.781531 0.736236 0.345101 0.222347
H31   H     H_    0.362846 0.339031 0.120870 0.178141
H32   H     H_    0.655035 0.623484 0.879205 0.208834
H33   H     H_    0.685854 0.452992 0.880027 0.143178
H34   H     H_    0.115007 0.281506 0.490513 0.172619
H35   H     H_    0.113590 0.713376 0.449091 0.208727
H36   H     H_    0.641571 0.125549 0.639735 0.154518
N1    N     N_R   0.499970 0.857200 0.499970 -0.136616
N2    N     N_R   0.499970 0.142800 0.499970 -0.150830
O1    O     O_R   0.316750 0.614620 0.499990 -0.640568
O2    O     O_2   0.351963 0.097118 0.212059 -0.608537
O3    O     O_2   0.428685 0.827342 0.811253 -0.533821
O4    O     O_2   0.502133 0.135314 0.840655 -0.562976
O5    O     O_2   0.781777 0.713869 0.073057 -0.597841
O6    O     O_2   0.720461 0.346182 0.183209 -0.623806
O7    O     O_R   0.316750 0.385380 0.499990 -0.664400
O8    O     O_R   0.499970 0.614670 0.314790 -0.696494
O9    O     O_R   0.499970 0.385330 0.314790 -0.608680
O10   O     O_R   0.683220 0.614710 0.500010 -0.620744
O11   O     O_R   0.683220 0.385290 0.500010 -0.629421
O12   O     O_R   0.500010 0.614660 0.685200 -0.576711
O13   O     O_R   0.500010 0.385340 0.685200 -0.604563
O14   O     O_2   0.213160 0.908971 0.339826 -0.625323
Zn1   Zn    Zn3+2 0.499980 0.653120 0.500000 0.946162
Zn2   Zn    Zn3+2 0.499980 0.346880 0.500000 0.939266

loop_
_geom_bond_atom_site_label_1
_geom_bond_atom_site_label_2
_ccdc_geom_bond_type
C12   H33   S    
C30   H28   S    
C26   H19   S    
C21   H13   S    
C28   H20   S    
C28   H21   S    
C10   C22   S    
C12   H32   S    
C6    O11   A    
C20   H15   S    
C10   C15   S    
C8    H23   S    
C5    O9    A    
C7    O12   A    
C1    O7    A    
C29   C33   S    
C11   C24   S    
C18   C19   S    
C20   H14   S    
C27   H25   S    
C11   C15   S    
C7    O13   A    
C17   O2    D    
C31   C33   A    
C4    N2    A    
C19   H6    S    
C31   H35   S    
C13   C14   S    
C23   H34   S    
C13   C25   S    
C19   H7    S    
C11   C20   S    
C6    O10   A    
C1    O1    A    
C25   H18   S    
C24   H17   S    
C26   O6    D    
C6    C34   S    
C17   H4    S    
C32   C34   A    
C9    C14   S    
C9    H31   S    
C29   C30   S    
C18   H8    S    
C2    H2    S    
C12   C15   S    
C33   C34   A    
C12   C13   S    
C9    C11   S    
C5    C14   S    
C2    N1    A    
C36   N2    A    
C29   H29   S    
O7    Zn2   S    
C24   O4    D    
C23   C35   A    
C30   H26   S    
C31   C35   A    
C13   C26   S    
C8    H1    S    
C4    C17   S    
C3    C4    A    
C18   H9    S    
C1    C35   S    
C22   H16   S    
C21   H10   S    
C2    C36   A    
O9    Zn2   S    
C8    C14   S    
C27   C32   S    
C25   O5    D    
C22   O3    D    
O12   Zn1   S    
O11   Zn2   S    
C28   H22   S    
C27   H24   S    
C23   C32   A    
N2    Zn2   S    
N1    Zn1   S    
C5    O8    A    
O8    Zn1   S    
C10   C18   S    
C7    C15   S    
C3    N1    A    
O1    Zn1   S    
C16   H3    S    
C29   H30   S    
C19   H5    S    
C20   C21   S    
C9    H12   S    
C8    C10   S    
O10   Zn1   S    
O13   Zn2   S    
C27   C28   S    
C16   O14   D    
C30   H27   S    
C3    C16   S    
C36   H36   S    
C21   H11   S    
