data_mof_unit_36628.cif
_audit_creation_date              2012-10-26T19:15:54-0400
_audit_creation_method            fapswitch 2.2
_symmetry_space_group_name_H-M    P1
_symmetry_Int_Tables_number       1
_space_group_crystal_system       triclinic
_cell_length_a                    7.788986
_cell_length_b                    9.095115
_cell_length_c                    17.134832
_cell_angle_alpha                 89.629617
_cell_angle_beta                  94.769126
_cell_angle_gamma                 90.029925
_cell_volume                      1209.63313011

loop_
_atom_site_label
_atom_site_type_symbol
_atom_type_description
_atom_site_fract_x
_atom_site_fract_y
_atom_site_fract_z
_atom_type_partial_charge
C1    C     C_R   0.499943 0.220037 0.499958 0.551895
C2    C     C_R   0.581612 0.446142 0.142456 -0.066290
C3    C     C_R   0.556884 0.480157 0.903362 0.195375
C4    C     C_R   0.443265 0.514866 0.098231 0.190622
C5    C     C_R   0.710481 0.484526 0.865705 0.051478
C6    C     C_R   0.311159 0.582624 0.136748 0.027606
C7    C     C_R   0.703384 0.488268 0.782981 0.019994
C8    C     C_R   0.319547 0.580907 0.219730 0.006433
C9    C     C_1   0.499919 0.065367 0.499900 -0.020393
C10   C     C_1   0.499995 0.934621 0.499885 -0.012141
C11   C     C_2   0.877962 0.486777 0.913802 0.612335
C12   C     C_R   0.500026 0.779960 0.499927 0.572146
C13   C     C_2   0.171903 0.662936 0.089379 0.605160
C14   C     C_2   0.865560 0.480056 0.744180 0.609192
C15   C     C_2   0.190932 0.662762 0.261536 0.621934
C16   C     C_R   0.523215 0.496333 0.651679 0.553913
C17   C     C_R   0.477290 0.505594 0.348755 0.563366
C18   C     C_R   0.540779 0.490383 0.738434 -0.037427
C19   C     C_R   0.461075 0.511680 0.262725 -0.026707
C20   C     C_R   0.390174 0.484701 0.777527 -0.149527
C21   C     C_R   0.590480 0.445736 0.223346 -0.140652
C22   C     C_R   0.397650 0.477329 0.858441 -0.075591
Cu1   Cu    Cu3+1 0.669080 0.500010 0.500000 1.098064
Cu2   Cu    Cu3+1 0.330920 0.499990 0.500000 1.076998
H1    H     H_    0.698590 0.391436 0.255399 0.169490
H2    H     H_    0.265037 0.484904 0.745366 0.187218
H3    H     H_    0.683604 0.391459 0.114619 0.197440
H4    H     H_    0.278163 0.469276 0.885929 0.204362
H5    H     H_    0.030435 0.395151 0.001890 0.349510
H6    H     H_    0.108970 0.806518 0.001365 0.374641
H7    H     H_    0.027841 0.352326 0.688517 0.333445
H8    H     H_    0.144650 0.832271 0.332103 0.345218
N1    N     N_1   0.076820 0.499970 0.500010 -0.069314
N2    N     N_1   0.923180 0.500030 0.499990 -0.063656
N3    N     N_2   0.567462 0.479989 0.986469 -0.176149
N4    N     N_2   0.431244 0.514784 0.015001 -0.193784
O1    O     O_R   0.642760 0.288400 0.500000 -0.496131
O2    O     O_R   0.911365 0.383483 0.973926 -0.658615
O3    O     O_2   0.021197 0.646116 0.102419 -0.458122
O4    O     O_R   0.213929 0.757118 0.029006 -0.628549
O5    O     O_2   0.946644 0.592180 0.732780 -0.476822
O6    O     O_R   0.921218 0.344081 0.718331 -0.677011
O7    O     O_2   0.042400 0.618662 0.260279 -0.465463
O8    O     O_R   0.242391 0.787277 0.304806 -0.684901
O9    O     O_R   0.357240 0.711600 0.500000 -0.488120
O10   O     O_R   0.357190 0.288380 0.500000 -0.503441
O11   O     O_R   0.642810 0.711620 0.500000 -0.491927
O12   O     O_R   0.658410 0.498660 0.613920 -0.472271
O13   O     O_R   0.341590 0.501340 0.386080 -0.484345
O14   O     O_R   0.372840 0.498650 0.613930 -0.513378
O15   O     O_R   0.627160 0.501350 0.386070 -0.496730
O16   O     O_2   0.985258 0.580340 0.901565 -0.490378

loop_
_geom_bond_atom_site_label_1
_geom_bond_atom_site_label_2
_ccdc_geom_bond_type
H5    O2    S    
C11   O2    S    
C2    C4    A    
Cu1   Cu2   S    
C4    N4    S    
C2    H3    S    
Cu1   O12   S    
H7    O6    S    
C1    O1    A    
C9    C10   T    
C3    C22   A    
Cu1   O15   S    
Cu2   N1    S    
C3    N3    S    
C14   O6    S    
C7    C18   A    
Cu2   O10   S    
C16   O12   A    
C2    C21   A    
N1    N2    T    
H8    O8    S    
H6    O4    S    
C22   H4    S    
C6    C13   S    
C17   O15   A    
C20   H2    S    
C12   O11   A    
Cu2   O9    S    
C10   C12   S    
C4    C6    A    
C17   C19   S    
C20   C22   A    
C15   O8    S    
C5    C11   S    
C8    C15   S    
C18   C20   A    
C14   O5    D    
Cu2   O14   S    
C1    O10   A    
C13   O3    D    
C8    C19   A    
Cu1   O11   S    
C15   O7    D    
C3    C5    A    
C1    C9    S    
C16   C18   S    
C17   O13   A    
Cu2   O13   S    
C5    C7    A    
C21   H1    S    
Cu1   N2    S    
C6    C8    A    
C11   O16   D    
C19   C21   A    
Cu1   O1    S    
C7    C14   S    
N3    N4    D    
C16   O14   A    
C12   O9    A    
C13   O4    S    
