data_mof_unit_32378.cif
_audit_creation_date              2012-10-26T19:48:09-0400
_audit_creation_method            fapswitch 2.2
_symmetry_space_group_name_H-M    P1
_symmetry_Int_Tables_number       1
_space_group_crystal_system       triclinic
_cell_length_a                    10.728533
_cell_length_b                    9.422703
_cell_length_c                    10.621247
_cell_angle_alpha                 90.209145
_cell_angle_beta                  89.888948
_cell_angle_gamma                 89.848285
_cell_volume                      1073.70781139

loop_
_atom_site_label
_atom_site_type_symbol
_atom_type_description
_atom_site_fract_x
_atom_site_fract_y
_atom_site_fract_z
_atom_type_partial_charge
C1    C     C_R   0.259743 0.500041 0.503027 0.543398
C2    C     C_3   0.927114 0.532988 0.375738 -0.318447
C3    C     C_3   0.612363 0.083549 0.565855 -0.103327
C4    C     C_3   0.612385 0.916117 0.565959 -0.101327
C5    C     C_3   0.390147 0.084292 0.570011 -0.103146
C6    C     C_3   0.390152 0.916795 0.570004 -0.103580
C7    C     C_3   0.498091 0.083102 0.373234 -0.103518
C8    C     C_3   0.498158 0.916007 0.373229 -0.101526
C9    C     C_R   0.500078 0.499671 0.259297 0.558315
C10   C     C_R   0.739864 0.499715 0.505459 0.565230
C11   C     C_R   0.500104 0.500335 0.740773 0.560461
C12   C     C_3   0.500336 0.498928 0.122387 0.041973
C13   C     C_3   0.397831 0.567108 0.042525 -0.126341
C14   C     C_3   0.500535 0.364886 0.040024 -0.123202
C15   C     C_3   0.398004 0.433204 0.957898 -0.127574
C16   C     C_3   0.500325 0.501109 0.877634 0.045506
C17   C     C_3   0.500172 0.635151 0.959973 -0.117741
C18   C     C_3   0.602872 0.432943 0.957448 -0.118711
C19   C     C_3   0.602696 0.566839 0.042123 -0.121045
C20   C     C_3   0.072528 0.606953 0.606423 -0.155868
C21   C     C_3   0.072595 0.349707 0.540560 -0.164674
C22   C     C_3   0.928509 0.615127 0.602071 0.153368
C23   C     C_3   0.929619 0.350297 0.549931 0.143150
C24   C     C_3   0.070582 0.541097 0.375572 -0.276560
C25   C     C_3   0.121796 0.499707 0.506455 -0.018131
C26   C     C_3   0.877941 0.499045 0.509890 0.098633
Cu1   Cu    Cu3+1 0.499860 0.642410 0.500060 0.864750
Cu2   Cu    Cu3+1 0.499860 0.357590 0.500060 0.870078
H1    H     H_    0.314345 0.378708 0.920102 0.106505
H2    H     H_    0.414070 0.121895 0.322486 0.113047
H3    H     H_    0.414186 0.877325 0.322385 0.114498
H4    H     H_    0.580410 0.121298 0.319358 0.112279
H5    H     H_    0.580582 0.877055 0.319409 0.114804
H6    H     H_    0.302743 0.121417 0.524787 0.111251
H7    H     H_    0.302781 0.879660 0.524751 0.112671
H8    H     H_    0.314021 0.621817 0.080644 0.102011
H9    H     H_    0.500682 0.254182 0.075489 0.102073
H10   H     H_    0.500056 0.745835 0.924456 0.103933
H11   H     H_    0.686674 0.378321 0.919193 0.139402
H12   H     H_    0.888187 0.635733 0.342149 0.115763
H13   H     H_    0.686370 0.621334 0.079885 0.108487
H14   H     H_    0.111100 0.714635 0.588920 0.078632
H15   H     H_    0.101707 0.271724 0.467031 0.078021
H16   H     H_    0.104725 0.573997 0.701578 0.163538
H17   H     H_    0.114418 0.313955 0.631043 0.157872
H18   H     H_    0.902437 0.722360 0.565860 0.081255
H19   H     H_    0.894381 0.266728 0.484223 0.082147
H20   H     H_    0.100388 0.650771 0.351402 0.125678
H21   H     H_    0.108696 0.468638 0.301865 0.125365
H22   H     H_    0.797595 0.646609 0.726555 0.319659
H23   H     H_    0.896310 0.449381 0.308383 0.113809
H24   H     H_    0.814592 0.265926 0.670975 0.319432
H25   H     H_    0.617834 0.123582 0.664312 0.109413
H26   H     H_    0.617900 0.876750 0.664408 0.109206
H27   H     H_    0.698053 0.119839 0.516976 0.103519
H28   H     H_    0.698299 0.878627 0.517504 0.109783
H29   H     H_    0.387740 0.124354 0.668619 0.114655
H30   H     H_    0.387804 0.877522 0.668608 0.112794
N1    N     N_3   0.500250 0.143650 0.502780 -0.222399
N2    N     N_3   0.500250 0.856350 0.502780 -0.223309
O1    O     O_R   0.317570 0.620260 0.500070 -0.512632
O2    O     O_3   0.894731 0.317739 0.674405 -0.672480
O3    O     O_R   0.317570 0.379740 0.500070 -0.516506
O4    O     O_R   0.499850 0.620240 0.316900 -0.512883
O5    O     O_R   0.499850 0.379760 0.316900 -0.513660
O6    O     O_R   0.682190 0.620260 0.500030 -0.530062
O7    O     O_R   0.682190 0.379740 0.500030 -0.521543
O8    O     O_R   0.499910 0.620280 0.683200 -0.516166
O9    O     O_R   0.499910 0.379720 0.683200 -0.509467
O10   O     O_3   0.879922 0.598330 0.724286 -0.670539

loop_
_geom_bond_atom_site_label_1
_geom_bond_atom_site_label_2
_ccdc_geom_bond_type
C20   H14   S    
C18   H11   S    
C11   O9    A    
C24   C25   S    
C7    H4    S    
C5    H29   S    
C9    O4    A    
C3    N1    S    
C11   C16   S    
C6    H30   S    
Cu2   O9    S    
C13   C17   S    
C17   H10   S    
C5    H6    S    
C4    N2    S    
C2    H12   S    
C13   C15   S    
Cu2   O5    S    
H22   O10   S    
C4    H28   S    
C7    C8    S    
C2    C26   S    
Cu1   O6    S    
H24   O2    S    
C10   O7    A    
C8    N2    S    
C14   H9    S    
C1    C25   S    
C12   C13   S    
C3    H25   S    
C10   C26   S    
Cu1   N2    S    
C22   H18   S    
C15   C16   S    
C1    O3    A    
C12   C19   S    
C7    N1    S    
C17   C19   S    
C12   C14   S    
C15   H1    S    
C21   H17   S    
C8    H5    S    
C10   O6    A    
C21   C23   S    
C2    C24   S    
C5    C6    S    
C9    C12   S    
C9    O5    A    
Cu2   N1    S    
C20   H16   S    
C23   H19   S    
C20   C25   S    
C5    N1    S    
C3    C4    S    
C24   H20   S    
Cu2   O3    S    
C6    N2    S    
Cu1   Cu2   S    
Cu2   O7    S    
C6    H7    S    
C13   H8    S    
C16   C18   S    
C18   C19   S    
C22   C26   S    
C23   C26   S    
C24   H21   S    
C7    H2    S    
C14   C18   S    
C11   O8    A    
C21   C25   S    
Cu1   O8    S    
Cu1   O1    S    
C2    H23   S    
C4    H26   S    
C14   C15   S    
C8    H3    S    
C3    H27   S    
Cu1   O4    S    
C22   O10   S    
C23   O2    S    
C21   H15   S    
C19   H13   S    
C20   C22   S    
C16   C17   S    
C1    O1    A    
