data_mof_unit_44979.cif
_audit_creation_date              2012-12-11T14:43:59-0500
_audit_creation_method            fapswitch 2.2
_symmetry_space_group_name_H-M    P1
_symmetry_Int_Tables_number       1
_space_group_crystal_system       triclinic
_cell_length_a                    19.202232
_cell_length_b                    10.990059
_cell_length_c                    18.928654
_cell_angle_alpha                 90.105476
_cell_angle_beta                  90.365826
_cell_angle_gamma                 89.982161
_cell_volume                      3994.49481173

loop_
_atom_site_label
_atom_site_type_symbol
_atom_type_description
_atom_site_fract_x
_atom_site_fract_y
_atom_site_fract_z
_atom_type_partial_charge
C1    C     C_R   0.729887 0.374077 0.145536 0.562731
C2    C     C_R   0.272303 0.374223 0.855045 0.595300
C3    C     C_R   0.230409 0.876331 0.146341 0.564024
C4    C     C_R   0.772346 0.873952 0.855146 0.601711
C5    C     C_R   0.526828 0.375900 0.917836 -0.121160
C6    C     C_R   0.523858 0.398355 0.063500 -0.073420
C7    C     C_R   0.026833 0.875762 0.917803 -0.115744
C8    C     C_R   0.024355 0.898567 0.063412 -0.072734
C9    C     C_R   0.026323 0.990939 0.947925 0.301548
C10   C     C_R   0.025957 0.002341 0.021233 0.289290
C11   C     C_R   0.526546 0.490961 0.948082 0.298898
C12   C     C_R   0.526012 0.502124 0.021397 0.288372
C13   C     C_R   0.686517 0.932594 0.027387 0.215094
C14   C     C_R   0.303873 0.876378 0.963224 0.189853
C15   C     C_R   0.186763 0.436292 0.026947 0.216357
C16   C     C_R   0.792681 0.349400 0.958710 0.193098
C17   C     C_R   0.696332 0.932053 0.954549 0.286804
C18   C     C_R   0.300727 0.853006 0.035660 0.215434
C19   C     C_R   0.196895 0.436248 0.954146 0.287769
C20   C     C_R   0.793704 0.333725 0.031977 0.217200
C21   C     C_R   0.761885 0.902620 0.928879 0.013245
C22   C     C_R   0.254171 0.920754 0.078273 -0.049395
C23   C     C_R   0.262003 0.403467 0.928710 0.008817
C24   C     C_R   0.751589 0.409672 0.075204 -0.052655
C25   C     C_R   0.817674 0.879481 0.975811 -0.103956
C26   C     C_R   0.218840 0.019601 0.050172 -0.133319
C27   C     C_R   0.317359 0.378144 0.975791 -0.114239
C28   C     C_R   0.717603 0.508448 0.046305 -0.139769
C29   C     C_R   0.808683 0.891666 0.048127 0.219196
C30   C     C_R   0.222966 0.045266 0.979434 0.148078
C31   C     C_R   0.308367 0.390851 0.048082 0.215057
C32   C     C_R   0.718528 0.527413 0.974945 0.154387
C33   C     C_R   0.744270 0.925637 0.074048 0.024158
C34   C     C_R   0.264616 0.973983 0.934440 -0.026892
C35   C     C_R   0.244204 0.426765 0.073821 0.024288
C36   C     C_R   0.754573 0.446477 0.929542 -0.021905
C37   C     C_R   0.469653 0.075455 0.453564 0.216609
C38   C     C_R   0.465862 0.060198 0.525878 0.201374
C39   C     C_R   0.969651 0.575454 0.453563 0.216614
C40   C     C_R   0.965860 0.560198 0.525877 0.201454
C41   C     C_R   0.489238 0.154393 0.572139 -0.017337
C42   C     C_R   0.508102 0.171547 0.426358 -0.028875
C43   C     C_R   0.989236 0.654395 0.572137 -0.017281
C44   C     C_R   0.008100 0.671547 0.426356 -0.028789
C45   C     C_R   0.532461 0.156952 0.146300 0.580778
C46   C     C_R   0.466776 0.154768 0.854014 0.541216
C47   C     C_R   0.032445 0.656990 0.146319 0.581248
C48   C     C_R   0.966604 0.654770 0.854100 0.548128
C49   C     C_R   0.526916 0.251992 0.545320 0.246248
C50   C     C_R   0.533885 0.263895 0.472307 0.212303
C51   C     C_R   0.026911 0.751997 0.545318 0.246136
C52   C     C_R   0.033880 0.763898 0.472305 0.212149
C53   C     C_R   0.811967 0.904058 0.453232 0.197804
C54   C     C_R   0.212335 0.030176 0.523820 0.192411
C55   C     C_R   0.311967 0.404050 0.453230 0.197785
C56   C     C_R   0.712330 0.530165 0.523824 0.193166
C57   C     C_R   0.821559 0.906941 0.525748 0.191432
C58   C     C_R   0.220659 0.020877 0.451139 0.244228
C59   C     C_R   0.321560 0.406930 0.525746 0.191401
C60   C     C_R   0.720656 0.520870 0.451143 0.243938
C61   C     C_R   0.762901 0.906241 0.571484 -0.001224
C62   C     C_R   0.251952 0.916766 0.423041 0.038236
C63   C     C_R   0.262902 0.406235 0.571482 -0.001476
C64   C     C_R   0.751949 0.416760 0.423044 0.037975
C65   C     C_R   0.696494 0.926442 0.543702 0.132806
C66   C     C_R   0.288083 0.835438 0.468704 0.145780
C67   C     C_R   0.196495 0.426441 0.543701 0.132806
C68   C     C_R   0.788079 0.335429 0.468708 0.145683
C69   C     C_R   0.688457 0.939921 0.471125 -0.098446
C70   C     C_R   0.285243 0.851691 0.541035 -0.101237
C71   C     C_R   0.188458 0.439921 0.471124 -0.098482
C72   C     C_R   0.785237 0.351679 0.541039 -0.101198
C73   C     C_R   0.746332 0.928827 0.426099 0.007579
C74   C     C_R   0.248740 0.948499 0.569291 -0.029044
C75   C     C_R   0.246333 0.428824 0.426098 0.007554
C76   C     C_R   0.748735 0.448487 0.569295 -0.027614
C77   C     C_R   0.739399 0.972098 0.146306 0.609773
C78   C     C_R   0.270041 0.009835 0.860188 0.563133
C79   C     C_R   0.239375 0.472357 0.146234 0.608829
C80   C     C_R   0.760368 0.476578 0.854812 0.583775
C81   C     C_R   0.730397 0.377868 0.352353 0.596812
C82   C     C_R   0.272907 0.374903 0.645779 0.587375
C83   C     C_R   0.230398 0.877871 0.352351 0.596292
C84   C     C_R   0.772906 0.874906 0.645780 0.585897
C85   C     C_R   0.534309 0.158400 0.354468 0.599535
C86   C     C_R   0.465815 0.154851 0.645463 0.617352
C87   C     C_R   0.034308 0.658400 0.354468 0.599480
C88   C     C_R   0.965814 0.654852 0.645462 0.617289
C89   C     C_R   0.740240 0.973029 0.354605 0.587342
C90   C     C_R   0.259033 0.977859 0.643635 0.568854
C91   C     C_R   0.240240 0.473028 0.354604 0.587517
C92   C     C_R   0.759031 0.477850 0.643638 0.563465
C93   C     C_R   0.489443 0.161758 0.927730 0.041366
C94   C     C_R   0.503215 0.173253 0.074954 0.065791
C95   C     C_R   0.988833 0.661882 0.927919 0.044314
C96   C     C_R   0.003053 0.673516 0.075056 0.066408
C97   C     C_R   0.512427 0.271699 0.958944 -0.050542
C98   C     C_R   0.515290 0.280583 0.033552 -0.012742
C99   C     C_R   0.012341 0.771664 0.958995 -0.050157
C100  C     C_R   0.015438 0.780692 0.033575 -0.011739
C101  C     C_R   0.473984 0.071291 0.043098 -0.067959
C102  C     C_R   0.468972 0.064279 0.970800 -0.068604
C103  C     C_R   0.973020 0.572023 0.043400 -0.065471
C104  C     C_R   0.967502 0.565052 0.971106 -0.063331
Cr1   Cr    Cr6+3 0.772000 0.169640 0.250110 1.200416
Cr2   Cr    Cr6+3 0.228000 0.169640 0.749890 1.206025
Cr3   Cr    Cr6+3 0.272000 0.669640 0.250110 1.201093
Cr4   Cr    Cr6+3 0.728000 0.669640 0.749890 1.208810
Cr5   Cr    Cr6+3 0.614960 0.323350 0.249260 1.148904
Cr6   Cr    Cr6+3 0.385040 0.323350 0.750740 1.145042
Cr7   Cr    Cr6+3 0.114960 0.823350 0.249260 1.148154
Cr8   Cr    Cr6+3 0.885040 0.823350 0.750740 1.151244
Cr9   Cr    Cr6+3 0.616670 0.010620 0.250840 1.177169
Cr10  Cr    Cr6+3 0.383330 0.010620 0.749160 1.182176
Cr11  Cr    Cr6+3 0.116670 0.510620 0.250840 1.176367
Cr12  Cr    Cr6+3 0.883330 0.510620 0.749160 1.181342
H1    H     H_    0.459508 0.992364 0.073987 0.210639
H2    H     H_    0.447247 0.981550 0.948763 0.214894
H3    H     H_    0.958254 0.493414 0.074423 0.206519
H4    H     H_    0.944719 0.482939 0.949185 0.206629
H5    H     H_    0.637674 0.964596 0.450363 0.179134
H6    H     H_    0.313263 0.789829 0.575562 0.213007
H7    H     H_    0.137675 0.464598 0.450363 0.179113
H8    H     H_    0.813257 0.289818 0.575566 0.212865
H9    H     H_    0.533791 0.371006 0.861365 0.185585
H10   H     H_    0.518912 0.415834 0.119173 0.219214
H11   H     H_    0.033728 0.870788 0.861330 0.187368
H12   H     H_    0.019730 0.916216 0.119092 0.219126
H13   H     H_    0.867444 0.848079 0.956317 0.155879
H14   H     H_    0.184214 0.073560 0.082713 0.218819
H15   H     H_    0.366729 0.344641 0.956412 0.154367
H16   H     H_    0.687322 0.569161 0.079388 0.218400
O1    O     O_R   0.787540 0.042690 0.170470 -0.412414
O2    O     O_R   0.212460 0.042690 0.829530 -0.429364
O3    O     O_R   0.287540 0.542690 0.170470 -0.415957
O4    O     O_R   0.712460 0.542690 0.829530 -0.441236
O5    O     O_R   0.556540 0.252920 0.323970 -0.445942
O6    O     O_R   0.443460 0.252920 0.676030 -0.441023
O7    O     O_R   0.056540 0.752920 0.323970 -0.445916
O8    O     O_R   0.943460 0.752920 0.676030 -0.442014
O9    O     O_R   0.545870 0.051100 0.330840 -0.458630
O10   O     O_R   0.454130 0.051100 0.669160 -0.432800
O11   O     O_R   0.045870 0.551100 0.330840 -0.458966
O12   O     O_R   0.954130 0.551100 0.669160 -0.433080
O13   O     O_R   0.681340 0.959300 0.325510 -0.495026
O14   O     O_R   0.318660 0.959300 0.674490 -0.480635
O15   O     O_R   0.181340 0.459300 0.325510 -0.495136
O16   O     O_R   0.818660 0.459300 0.674490 -0.483695
O17   O     O_3   0.667880 0.167870 0.250070 -0.346863
O18   O     O_3   0.332120 0.167870 0.749930 -0.366111
O19   O     O_3   0.167880 0.667870 0.250070 -0.346202
O20   O     O_3   0.832120 0.667870 0.749930 -0.353922
O21   O     O_R   0.765660 0.292160 0.175050 -0.449375
O22   O     O_R   0.234340 0.292160 0.824950 -0.432898
O23   O     O_R   0.265660 0.792160 0.175050 -0.447642
O24   O     O_R   0.734340 0.792160 0.824950 -0.422492
O25   O     O_R   0.670190 0.408980 0.168550 -0.521412
O26   O     O_R   0.329810 0.408980 0.831450 -0.494767
O27   O     O_R   0.170190 0.908980 0.168550 -0.524430
O28   O     O_R   0.829810 0.908980 0.831450 -0.491135
O29   O     O_R   0.556580 0.251450 0.175160 -0.524583
O30   O     O_R   0.443420 0.251450 0.824840 -0.534949
O31   O     O_R   0.056580 0.751450 0.175160 -0.524024
O32   O     O_R   0.943420 0.751450 0.824840 -0.534473
O33   O     O_R   0.545920 0.049510 0.170320 -0.446718
O34   O     O_R   0.454080 0.049510 0.829680 -0.458951
O35   O     O_R   0.045920 0.549510 0.170320 -0.447011
O36   O     O_R   0.954080 0.549510 0.829680 -0.456929
O37   O     O_R   0.681390 0.957840 0.176710 -0.465384
O38   O     O_R   0.318610 0.957840 0.823290 -0.454161
O39   O     O_R   0.181390 0.457840 0.176710 -0.464808
O40   O     O_R   0.818610 0.457840 0.823290 -0.468243
O41   O     O_R   0.787500 0.044280 0.330990 -0.436896
O42   O     O_R   0.212500 0.044280 0.669010 -0.441575
O43   O     O_R   0.287500 0.544280 0.330990 -0.436743
O44   O     O_R   0.712500 0.544280 0.669010 -0.444683
O45   O     O_R   0.765610 0.293630 0.323860 -0.471983
O46   O     O_R   0.234390 0.293630 0.676140 -0.457385
O47   O     O_R   0.265610 0.793630 0.323860 -0.472065
O48   O     O_R   0.734390 0.793630 0.676140 -0.457879
O49   O     O_R   0.670140 0.410570 0.329080 -0.419902
O50   O     O_R   0.329860 0.410570 0.670920 -0.448294
O51   O     O_R   0.170140 0.910570 0.329080 -0.420418
O52   O     O_R   0.829860 0.910570 0.670920 -0.449055
Br1   Br    Br    0.889076 0.875210 0.390436 -0.285636
Br2   Br    Br    0.142243 0.144002 0.555360 -0.168493
Br3   Br    Br    0.389074 0.375197 0.390432 -0.285418
Br4   Br    Br    0.642240 0.643995 0.555364 -0.168287
Cl1   Cl    Cl    0.906973 0.937777 0.555063 -0.392370
Cl2   Cl    Cl    0.189881 0.138776 0.395050 -0.457284
Cl3   Cl    Cl    0.406975 0.437757 0.555061 -0.392172
Cl4   Cl    Cl    0.689879 0.638772 0.395057 -0.456780
Br5   Br    Br    0.618531 0.952935 0.604401 -0.347718
Br6   Br    Br    0.348936 0.707097 0.439156 -0.235610
Br7   Br    Br    0.118531 0.452935 0.604399 -0.346623
Br8   Br    Br    0.848935 0.207094 0.439158 -0.235834
Cl5   Cl    Cl    0.016811 0.117847 0.891968 -0.324616
Cl6   Cl    Cl    0.023444 0.145449 0.062332 -0.351198
Cl7   Cl    Cl    0.517933 0.618172 0.892234 -0.322057
Cl8   Cl    Cl    0.524477 0.644960 0.062656 -0.346927
Cl9   Cl    Cl    0.601878 0.910405 0.057173 -0.432579
Cl10  Cl    Cl    0.351990 0.772807 0.910293 -0.414834
Cl11  Cl    Cl    0.101958 0.413761 0.056184 -0.434640
Cl12  Cl    Cl    0.835875 0.242172 0.904222 -0.439340
Cl13  Cl    Cl    0.625601 0.956624 0.895863 -0.429462
Cl14  Cl    Cl    0.354487 0.735551 0.069799 -0.412811
Cl15  Cl    Cl    0.126724 0.463543 0.895203 -0.433271
Cl16  Cl    Cl    0.848574 0.218768 0.066437 -0.418191
Cl17  Cl    Cl    0.873784 0.846912 0.107690 -0.589290
Cl18  Cl    Cl    0.170023 0.163880 0.950435 -0.477697
Cl19  Cl    Cl    0.372850 0.343710 0.107751 -0.592510
Cl20  Cl    Cl    0.672489 0.656427 0.948280 -0.477336
Cl21  Cl    Cl    0.424098 0.975149 0.396379 -0.439990
Cl22  Cl    Cl    0.441954 0.912978 0.554696 -0.399128
Cl23  Cl    Cl    0.924098 0.475144 0.396379 -0.440424
Cl24  Cl    Cl    0.941949 0.412980 0.554696 -0.399031
Cl25  Cl    Cl    0.568397 0.355825 0.603572 -0.420437
Cl26  Cl    Cl    0.566809 0.402765 0.440958 -0.367806
Cl27  Cl    Cl    0.068387 0.855837 0.603567 -0.417872
Cl28  Cl    Cl    0.066808 0.902766 0.440956 -0.367843

loop_
_geom_bond_atom_site_label_1
_geom_bond_atom_site_label_2
_ccdc_geom_bond_type
C58   C62   A    
Cr1   O21   S    
C62   C83   S    
C88   O12   A    
C101  C102  A    
Cr2   O18   S    
C48   C95   S    
C55   C59   A    
C92   O16   A    
C27   H15   S    
C14   C18   A    
C59   Cl3   S    
C89   O41   A    
C72   C76   A    
C25   H13   S    
C91   O15   A    
C97   C98   A    
Cr6   O30   S    
Cr7   O7    S    
Cr8   O52   S    
C71   C75   A    
C4    O28   A    
C92   O44   A    
C89   O13   A    
C41   C86   S    
Cr4   O48   S    
C81   O45   A    
C7    C99   A    
C56   C76   A    
C43   C88   S    
Cr10  O10   S    
C71   H7    S    
C5    C11   A    
C68   Br8   S    
Cr9   O33   S    
C32   Cl20  S    
C95   C99   A    
C94   C98   A    
Cr9   O13   S    
Cr4   O44   S    
C14   Cl10  S    
C78   O38   A    
Cr12  O40   S    
Cr5   O5    S    
Cr7   O19   S    
C79   O39   A    
C37   C42   A    
C84   O48   A    
C45   O29   A    
Cr10  O38   S    
C88   O8    A    
C53   Br1   S    
C29   C33   A    
C103  C104  A    
Cr12  O12   S    
C8    H12   S    
C40   C43   A    
C20   C24   A    
C94   C101  A    
C13   Cl9   S    
Cr2   O22   S    
C48   O36   A    
C70   C74   A    
Cr3   O3    S    
C47   C96   S    
Cr8   O20   S    
C69   C73   A    
C84   O52   A    
C23   C27   A    
C44   C87   S    
Cr8   O28   S    
C9    C10   A    
C54   Br2   S    
C26   H14   S    
C75   C91   S    
C47   O31   A    
C44   C52   A    
Cr5   O25   S    
C2    O22   A    
C54   C74   A    
C72   H8    S    
C19   Cl15  S    
C82   O46   A    
C102  H2    S    
C77   O1    A    
C38   Cl22  S    
C67   Br7   S    
C45   C94   S    
C10   Cl6   S    
C15   C35   A    
C66   Br6   S    
C9    Cl5   S    
Cr10  O34   S    
C65   Br5   S    
Cr3   O19   S    
C25   C29   A    
Cr8   O32   S    
Cr11  O11   S    
C52   Cl28  S    
C30   C34   A    
C63   C82   S    
C27   C31   A    
C51   C52   A    
C6    C98   A    
Cr9   O17   S    
C28   C32   A    
C62   C66   A    
Cr7   O31   S    
C6    H10   S    
C38   C41   A    
Cr11  O39   S    
C30   Cl18  S    
C36   C80   S    
C85   O9    A    
C39   C40   A    
Cr12  O16   S    
Cr4   O20   S    
C19   C23   A    
Cr9   O37   S    
C51   Cl27  S    
C50   Cl26  S    
C17   C21   A    
C56   C60   A    
C49   Cl25  S    
C68   C72   A    
C28   H16   S    
C15   C19   A    
C63   C67   A    
C57   Cl1   S    
C37   C38   A    
Cr10  O18   S    
C47   O35   A    
C70   H6    S    
C93   C97   A    
C99   C100  A    
Cr4   O24   S    
C69   H5    S    
Cr5   O17   S    
C16   C20   A    
C40   Cl24  S    
Cr7   O51   S    
C12   Cl8   S    
C83   O51   A    
C3    O27   A    
C42   C85   S    
C29   Cl17  S    
C78   O2    A    
Cr10  O14   S    
Cr7   O27   S    
C42   C50   A    
C18   Cl14  S    
Cr6   O6    S    
Cr1   O45   S    
C4    O24   A    
C76   C92   S    
C26   C30   A    
C55   Br3   S    
C46   O30   A    
C49   C50   A    
C31   C35   A    
C60   Cl4   S    
C35   C79   S    
C3    O23   A    
C80   O40   A    
Cr11  O35   S    
Cr8   O8    S    
C64   C68   A    
Cr12  O20   S    
C79   O3    A    
C95   C104  A    
C86   O10   A    
Cr1   O1    S    
C54   C58   A    
C85   O5    A    
Cr5   O49   S    
C7    C9    A    
C77   O37   A    
C21   C25   A    
C81   O49   A    
C82   O50   A    
C53   C57   A    
C46   O34   A    
Cr3   O47   S    
C18   C22   A    
C53   C73   A    
C103  H3    S    
C58   Cl2   S    
C24   C28   A    
C87   O7    A    
Cr6   O18   S    
C61   C84   S    
Cr6   O26   S    
C93   C102  A    
C14   C34   A    
C15   Cl11  S    
C11   C12   A    
C32   C36   A    
C87   O11   A    
C57   C61   A    
C39   C44   A    
C48   O32   A    
C83   O47   A    
Cr3   O23   S    
C41   C49   A    
Cr1   O17   S    
C90   O42   A    
C59   C63   A    
C80   O4    A    
Cr4   O4    S    
C39   Cl23  S    
C60   C64   A    
Cr11  O15   S    
C101  H1    S    
C74   C90   S    
C1    O25   A    
C8    C100  A    
C55   C75   A    
C90   O14   A    
Cr5   O29   S    
C16   C36   A    
C6    C12   A    
C4    C21   S    
C33   C77   S    
C66   C70   A    
C46   C93   S    
Cr3   O43   S    
C43   C51   A    
C65   C69   A    
C96   C100  A    
C17   Cl13  S    
Cr9   O9    S    
C5    H9    S    
C5    C97   A    
C67   C71   A    
C11   Cl7   S    
C64   C81   S    
C1    O21   A    
C86   O6    A    
C73   C89   S    
C13   C17   A    
C37   Cl21  S    
C61   C65   A    
Cr2   O2    S    
C31   Cl19  S    
C2    O26   A    
Cr6   O50   S    
C1    C24   S    
C8    C10   A    
C13   C33   A    
C22   C26   A    
C96   C103  A    
Cr11  O19   S    
C2    C23   S    
C20   Cl16  S    
Cr12  O36   S    
C3    C22   S    
Cr1   O41   S    
C56   Br4   S    
C7    H11   S    
C16   Cl12  S    
C45   O33   A    
Cr2   O46   S    
C34   C78   S    
C91   O43   A    
C104  H4    S    
Cr2   O42   S    
