data_mof_unit_27315.cif
_audit_creation_date              2012-12-10T19:46:51-0500
_audit_creation_method            fapswitch 2.2
_symmetry_space_group_name_H-M    P1
_symmetry_Int_Tables_number       1
_space_group_crystal_system       triclinic
_cell_length_a                    10.890791
_cell_length_b                    10.988751
_cell_length_c                    13.111452
_cell_angle_alpha                 90.543346
_cell_angle_beta                  90.560405
_cell_angle_gamma                 89.901338
_cell_volume                      1568.98093627

loop_
_atom_site_label
_atom_site_type_symbol
_atom_type_description
_atom_site_fract_x
_atom_site_fract_y
_atom_site_fract_z
_atom_type_partial_charge
C1    C     C_R   0.497068 0.259444 0.499507 0.895954
C2    C     C_R   0.502932 0.740556 0.500493 0.895954
C3    C     C_R   0.872851 0.495773 0.501519 -0.085784
C4    C     C_R   0.127149 0.504226 0.498481 -0.085785
C5    C     C_R   0.940669 0.446643 0.583466 0.006624
C6    C     C_R   0.059331 0.553356 0.416534 0.006625
C7    C     C_R   0.284065 0.193749 0.191112 -0.114313
C8    C     C_R   0.715934 0.806250 0.808888 -0.114313
C9    C     C_R   0.314919 0.146711 0.286818 0.405740
C10   C     C_R   0.685081 0.853288 0.713182 0.405738
C11   C     C_R   0.440445 0.123236 0.310843 -0.011779
C12   C     C_R   0.559555 0.876764 0.689157 -0.011783
C13   C     C_R   0.531861 0.151091 0.238476 0.156200
C14   C     C_R   0.468139 0.848910 0.761523 0.156203
C15   C     C_R   0.497808 0.198368 0.143726 -0.118136
C16   C     C_R   0.502191 0.801633 0.856274 -0.118136
C17   C     C_R   0.374566 0.218885 0.119940 -0.288283
C18   C     C_R   0.625433 0.781115 0.880060 -0.288284
C19   C     C_R   0.481256 0.933649 0.408064 0.376894
C20   C     C_R   0.518744 0.066351 0.591936 0.376896
C21   C     C_R   0.502718 0.873202 0.500963 -0.188044
C22   C     C_R   0.497282 0.126798 0.499037 -0.188043
C23   C     C_R   0.259561 0.504297 0.499438 0.823767
C24   C     C_R   0.740439 0.495703 0.500562 0.823766
C25   C     C_R   0.523764 0.938920 0.592743 -0.190067
C26   C     C_R   0.476237 0.061080 0.407256 -0.190067
C27   C     C_1   0.500175 0.500401 0.173560 0.191232
C28   C     C_1   0.499825 0.499599 0.826439 0.191232
C29   C     C_1   0.500218 0.500268 0.050684 -0.063503
C30   C     C_1   0.499782 0.499732 0.949316 -0.063503
C31   C     C_R   0.201008 0.797744 0.254160 -0.134195
C32   C     C_R   0.798992 0.202255 0.745840 -0.134198
C33   C     C_R   0.153962 0.737236 0.338260 0.127465
C34   C     C_R   0.846038 0.262764 0.661740 0.127465
C35   C     C_R   0.117262 0.614257 0.328706 -0.068827
C36   C     C_R   0.882738 0.385742 0.671294 -0.068827
C37   C     C_R   0.129128 0.553209 0.233174 0.339225
C38   C     C_R   0.870871 0.446791 0.766826 0.339225
C39   C     C_R   0.177593 0.616072 0.149506 0.167223
C40   C     C_R   0.822407 0.383927 0.850494 0.167223
C41   C     C_R   0.214032 0.738061 0.159993 0.115708
C42   C     C_R   0.785968 0.261939 0.840007 0.115709
C43   C     C_R   0.932326 0.547832 0.418718 -0.220345
C44   C     C_R   0.067674 0.452168 0.581282 -0.220345
Cu1   Cu    Cu3+1 0.499990 0.499990 0.592680 1.011836
Cu2   Cu    Cu3+1 0.500010 0.500010 0.407320 1.011836
H1    H     H_    0.567270 0.219200 0.088101 0.190672
H2    H     H_    0.432729 0.780801 0.911898 0.190672
H3    H     H_    0.226948 0.892368 0.262243 0.196942
H4    H     H_    0.773052 0.107631 0.737757 0.196939
H5    H     H_    0.879675 0.586649 0.356284 0.165839
H6    H     H_    0.120325 0.413351 0.643716 0.165840
H7    H     H_    0.349104 0.254979 0.046163 0.170601
H8    H     H_    0.650895 0.745021 0.953837 0.170601
H9    H     H_    0.188743 0.210032 0.171421 0.194254
H10   H     H_    0.811256 0.789967 0.828580 0.194255
N1    N     N_1   0.500030 0.500030 0.268070 -0.129349
N2    N     N_1   0.499970 0.499970 0.731930 -0.129349
O1    O     O_R   0.499980 0.319630 0.578260 -0.517758
O2    O     O_R   0.500020 0.680370 0.421740 -0.517758
O3    O     O_R   0.500000 0.319650 0.421740 -0.600196
O4    O     O_R   0.500000 0.680350 0.578260 -0.600196
O5    O     O_R   0.319630 0.500000 0.578260 -0.593311
O6    O     O_R   0.680370 0.500000 0.421740 -0.593311
O7    O     O_R   0.319650 0.500020 0.421740 -0.571427
O8    O     O_R   0.680350 0.499980 0.578260 -0.571427
N3    N     N_3   0.264359 0.800462 0.074224 -0.564987
H11   H     H_    0.292786 0.888027 0.095547 0.209786
H12   H     H_    0.193792 0.811108 0.020399 0.238558
N4    N     N_3   0.735641 0.199538 0.925776 -0.564987
H13   H     H_    0.707215 0.111973 0.904452 0.209785
H14   H     H_    0.806208 0.188892 0.979601 0.238558
N5    N     N_3   0.659626 0.130727 0.259362 -0.582533
H15   H     H_    0.684044 0.180089 0.325003 0.232479
H16   H     H_    0.672805 0.038283 0.274047 0.227088
N6    N     N_3   0.340374 0.869274 0.740638 -0.582533
H17   H     H_    0.315956 0.819913 0.674997 0.232479
H18   H     H_    0.327195 0.961718 0.725953 0.227091
O9    O     O_3   0.463549 0.864732 0.319883 -0.720292
H19   H     H_    0.468817 0.914659 0.257927 0.320700
O10   O     O_3   0.536451 0.135269 0.680117 -0.720291
H20   H     H_    0.531191 0.085340 0.742073 0.320700
N7    N     N_3   0.142271 0.803501 0.432372 -0.561137
H21   H     H_    0.195363 0.760226 0.488105 0.207004
H22   H     H_    0.050369 0.801284 0.454563 0.242243
N8    N     N_3   0.857730 0.196499 0.567628 -0.561137
H23   H     H_    0.804637 0.239774 0.511895 0.207004
H24   H     H_    0.949632 0.198716 0.545437 0.242243
O11   O     O_3   0.094417 0.433350 0.217720 -0.754030
H25   H     H_    0.074168 0.395121 0.283375 0.350242
O12   O     O_3   0.905583 0.566650 0.782280 -0.754030
H26   H     H_    0.925832 0.604879 0.716625 0.350242
N9    N     N_3   0.189530 0.556331 0.052468 -0.550112
H27   H     H_    0.241940 0.477535 0.062542 0.240159
H28   H     H_    0.102063 0.529752 0.027730 0.236601
N10   N     N_3   0.810469 0.443668 0.947532 -0.550113
H29   H     H_    0.758060 0.522465 0.937457 0.240160
H30   H     H_    0.897936 0.470248 0.972270 0.236601
O13   O     O_3   0.219681 0.123852 0.352830 -0.744192
H31   H     H_    0.252357 0.094480 0.418753 0.331564
O14   O     O_3   0.780319 0.876146 0.647170 -0.744192
H32   H     H_    0.747644 0.905518 0.581247 0.331564

loop_
_geom_bond_atom_site_label_1
_geom_bond_atom_site_label_2
_ccdc_geom_bond_type
N9    H27   S    
C27   C29   S    
N5    H15   S    
C7    H9    S    
C8    H10   S    
O10   H20   S    
C39   C41   A    
Cu1   Cu2   S    
C3    C43   A    
O14   H32   S    
N6    H18   S    
C35   C37   A    
C31   H3    S    
C1    O1    A    
C2    O2    A    
C23   O5    A    
C20   C25   A    
C5    C36   S    
Cu1   O4    S    
C42   N4    S    
N8    H24   S    
C6    C35   S    
C7    C9    A    
C34   N8    S    
C19   C26   A    
C39   N9    S    
O13   H31   S    
C7    C17   A    
N10   H30   S    
C31   C33   A    
N4    H13   S    
C15   H1    S    
C24   O8    A    
C44   H6    S    
C40   C42   A    
C1    C22   S    
C9    O13   S    
C20   O10   S    
N5    H16   S    
C16   H2    S    
C3    C24   S    
C40   N10   S    
Cu1   N2    S    
Cu2   O3    S    
N3    H11   S    
N6    H17   S    
C41   N3    S    
Cu2   O7    S    
C4    C6    A    
C27   N1    T    
O12   H26   S    
C4    C23   S    
N8    H23   S    
C4    C44   A    
C11   C26   S    
C38   O12   S    
Cu1   O5    S    
C8    C18   A    
Cu2   O6    S    
N3    H12   S    
C14   N6    S    
C29   C30   T    
C9    C11   A    
N7    H21   S    
N10   H29   S    
C2    C21   S    
C19   O9    S    
C33   N7    S    
C32   H4    S    
C10   C12   A    
C8    C10   A    
N7    H22   S    
C5    C44   A    
C13   N5    S    
C6    C43   A    
C13   C15   A    
Cu2   N1    S    
C14   C16   A    
C20   C22   A    
C17   H7    S    
C15   C17   A    
C21   C25   A    
Cu1   O1    S    
C31   C41   A    
Cu2   O2    S    
C10   O14   S    
C12   C14   A    
C3    C5    A    
C1    O3    A    
C28   N2    T    
C37   O11   S    
C12   C25   S    
C23   O7    A    
C36   C38   A    
C37   C39   A    
C38   C40   A    
C11   C13   A    
C43   H5    S    
N9    H28   S    
C28   C30   S    
C33   C35   A    
C24   O6    A    
C34   C36   A    
C18   H8    S    
O9    H19   S    
C16   C18   A    
C22   C26   A    
Cu1   O8    S    
C32   C42   A    
N4    H14   S    
O11   H25   S    
C2    O4    A    
C32   C34   A    
C19   C21   A    
