data_mof_unit_45515.cif
_audit_creation_date              2012-10-26T20:04:51-0400
_audit_creation_method            fapswitch 2.2
_symmetry_space_group_name_H-M    P1
_symmetry_Int_Tables_number       1
_space_group_crystal_system       triclinic
_cell_length_a                    15.864093
_cell_length_b                    15.052257
_cell_length_c                    13.794706
_cell_angle_alpha                 90.594123
_cell_angle_beta                  88.646051
_cell_angle_gamma                 88.330089
_cell_volume                      3291.5236262

loop_
_atom_site_label
_atom_site_type_symbol
_atom_type_description
_atom_site_fract_x
_atom_site_fract_y
_atom_site_fract_z
_atom_type_partial_charge
C1    C     C_R   0.500774 0.329003 0.499663 0.569479
C2    C     C_R   0.490478 0.046691 0.513123 0.003973
C3    C     C_R   0.420374 0.907264 0.477129 0.022364
C4    C     C_R   0.560025 0.090828 0.552592 -0.061154
C5    C     C_R   0.621202 0.948092 0.603619 0.056583
C6    C     C_R   0.348231 0.049940 0.446638 0.013147
C7    C     C_R   0.618968 0.041815 0.608784 -0.001398
C8    C     C_R   0.351881 0.956476 0.437506 0.037184
C9    C     C_R   0.553815 0.444313 0.790838 0.020487
C10   C     C_R   0.446298 0.555801 0.209256 0.039381
C11   C     C_R   0.445523 0.556309 0.796439 0.141872
C12   C     C_R   0.499421 0.670711 0.500423 0.514582
C13   C     C_R   0.554600 0.443911 0.203747 0.157156
C14   C     C_R   0.450609 0.564031 0.899536 -0.033138
C15   C     C_R   0.549437 0.436020 0.100614 0.016689
C16   C     C_R   0.339912 0.500259 0.500939 0.533711
C17   C     C_R   0.660095 0.499769 0.499041 0.575493
C18   C     C_R   0.500755 0.500812 0.948428 0.010805
C19   C     C_R   0.499531 0.499432 0.051697 0.011258
C20   C     C_R   0.553206 0.440022 0.893813 -0.016016
C21   C     C_R   0.446739 0.559903 0.106339 -0.005039
C22   C     C_R   0.406244 0.631988 0.955194 -0.010147
C23   C     C_R   0.496757 0.767202 0.501910 -0.040063
C24   C     C_R   0.592487 0.367123 0.045106 0.036507
C25   C     C_R   0.397241 0.624217 0.057418 0.000692
C26   C     C_R   0.601606 0.374729 0.942811 0.002347
C27   C     C_3   0.970889 0.448752 0.572906 -0.091487
C28   C     C_3   0.029166 0.551182 0.426723 -0.090217
C29   C     C_3   0.031004 0.417151 0.488487 0.012660
C30   C     C_3   0.969055 0.582780 0.511136 0.003023
C31   C     C_1   0.250333 0.500639 0.502715 -0.022701
C32   C     C_1   0.749690 0.499403 0.497191 0.022395
C33   C     C_3   0.023946 0.532854 0.584613 0.018860
C34   C     C_R   0.498916 0.232105 0.500454 -0.018104
C35   C     C_3   0.976099 0.467085 0.415012 0.013015
C36   C     C_3   0.083309 0.500603 0.501166 0.052407
C37   C     C_3   0.916738 0.499339 0.498467 0.046460
C38   C     C_1   0.174873 0.500818 0.502574 -0.046566
C39   C     C_1   0.825159 0.499190 0.497195 -0.032378
C40   C     C_R   0.420067 0.813423 0.486754 0.021172
C41   C     C_R   0.567109 0.183242 0.538745 -0.025145
C42   C     C_3   0.067217 0.322982 0.475434 -0.384047
C43   C     C_3   0.932880 0.676953 0.524125 -0.361476
C44   C     C_3   0.381622 0.719912 0.909432 -0.375067
C45   C     C_R   0.569708 0.812660 0.524335 -0.026741
C46   C     C_3   0.615546 0.278660 0.090904 -0.371042
C47   C     C_3   0.335453 0.684801 0.114436 -0.384068
C48   C     C_3   0.661359 0.312173 0.885570 -0.385017
C49   C     C_3   0.947963 0.429526 0.318676 -0.374360
C50   C     C_3   0.052081 0.570460 0.680928 -0.391054
C51   C     C_2   0.340533 0.763108 0.492146 0.299722
C52   C     C_2   0.651346 0.224522 0.546556 0.206900
C53   C     C_2   0.653360 0.764560 0.518461 0.231035
C54   C     C_2   0.368561 0.243319 0.405663 0.240920
C55   C     C_2   0.672811 0.894674 0.672042 0.300297
C56   C     C_R   0.428208 0.189388 0.464336 -0.043100
C57   C     C_2   0.265261 0.098046 0.438651 0.245623
C58   C     C_2   0.665722 0.088550 0.685535 0.238915
C59   C     C_2   0.288051 0.912214 0.377900 0.321716
C60   C     C_2   0.369406 0.593429 0.750203 0.281120
C61   C     C_2   0.627521 0.402575 0.252556 0.273138
C62   C     C_R   0.562137 0.904578 0.545667 -0.008779
C63   C     C_R   0.421329 0.095888 0.474573 -0.007435
C64   C     C_R   0.490594 0.952995 0.512415 -0.007032
Cu1   Cu    Cu3+1 0.500010 0.499990 0.597420 1.003037
Cu2   Cu    Cu3+1 0.499990 0.500010 0.402580 0.971198
H1    H     H_    0.946556 0.406895 0.632539 0.123951
H2    H     H_    0.891435 0.680931 0.590071 0.161333
H3    H     H_    0.424035 0.734395 0.846866 0.174881
H4    H     H_    0.314877 0.719749 0.887017 0.150356
H5    H     H_    0.390206 0.776263 0.960488 0.143097
H6    H     H_    0.577226 0.267026 0.157639 0.129467
H7    H     H_    0.600603 0.222738 0.041656 0.138204
H8    H     H_    0.683752 0.274996 0.107087 0.169712
H9    H     H_    0.293783 0.644387 0.161111 0.130802
H10   H     H_    0.370406 0.731627 0.160196 0.178136
H11   H     H_    0.292370 0.723617 0.067794 0.150938
H12   H     H_    0.053503 0.593044 0.367097 0.121762
H13   H     H_    0.704877 0.351201 0.839686 0.147551
H14   H     H_    0.702422 0.270622 0.931824 0.150174
H15   H     H_    0.624683 0.267717 0.838980 0.130788
H16   H     H_    0.004098 0.411454 0.272323 0.139531
H17   H     H_    0.910526 0.369447 0.331535 0.160654
H18   H     H_    0.908530 0.480085 0.281326 0.165777
H19   H     H_    0.995946 0.588565 0.727266 0.141682
H20   H     H_    0.091504 0.519916 0.718312 0.133612
H21   H     H_    0.089528 0.630528 0.668028 0.162446
H22   H     H_    0.337659 0.697332 0.459762 0.119450
H23   H     H_    0.594062 0.400292 0.746759 0.171405
H24   H     H_    0.707816 0.185894 0.525575 0.151153
H25   H     H_    0.658899 0.694275 0.534269 0.102679
H26   H     H_    0.339359 0.303949 0.435700 0.094527
H27   H     H_    0.644038 0.840837 0.711389 0.074620
H28   H     H_    0.245747 0.146772 0.493895 0.086370
H29   H     H_    0.632152 0.136656 0.732316 0.094900
H30   H     H_    0.221203 0.925391 0.391211 0.167058
H31   H     H_    0.308583 0.565980 0.768201 0.078763
H32   H     H_    0.619149 0.358179 0.312737 0.140852
H33   H     H_    0.406103 0.599862 0.253402 0.137580
H34   H     H_    0.015073 0.276053 0.467718 0.155945
H35   H     H_    0.108644 0.319037 0.409470 0.159324
H36   H     H_    0.104632 0.304558 0.539541 0.132228
H37   H     H_    0.985045 0.723859 0.531832 0.158433
H38   H     H_    0.895497 0.695341 0.459982 0.173011
N1    N     N_R   0.499960 0.499930 0.743810 -0.256190
N2    N     N_R   0.500040 0.500070 0.256190 -0.261364
O1    O     O_R   0.500020 0.370250 0.582280 -0.474293
O2    O     O_2   0.659206 0.299546 0.578647 -0.518840
O3    O     O_2   0.716591 0.802640 0.491688 -0.468722
O4    O     O_2   0.355239 0.222392 0.321763 -0.448751
O5    O     O_2   0.748109 0.906210 0.680376 -0.401274
O6    O     O_2   0.220334 0.087267 0.369101 -0.474597
O7    O     O_2   0.741882 0.078476 0.692885 -0.431366
O8    O     O_2   0.310313 0.860924 0.312410 -0.525536
O9    O     O_2   0.372545 0.657283 0.696772 -0.484351
O10   O     O_2   0.699171 0.417882 0.224480 -0.525633
O11   O     O_R   0.499980 0.629750 0.417720 -0.513360
O12   O     O_R   0.500010 0.370270 0.417740 -0.529664
O13   O     O_R   0.499990 0.629730 0.582260 -0.457218
O14   O     O_R   0.379080 0.499980 0.582260 -0.488722
O15   O     O_R   0.620920 0.500020 0.417740 -0.492282
O16   O     O_R   0.379070 0.500000 0.417710 -0.513095
O17   O     O_R   0.620930 0.500000 0.582290 -0.488021
O18   O     O_2   0.278734 0.793309 0.537078 -0.504425

loop_
_geom_bond_atom_site_label_1
_geom_bond_atom_site_label_2
_ccdc_geom_bond_type
C49   H16   S    
C34   C56   A    
C23   C45   A    
C29   C42   S    
C27   C29   S    
C14   C18   A    
C52   H24   S    
C61   H32   S    
C55   H27   S    
C3    C64   A    
C27   C33   S    
C16   C31   S    
C15   C19   A    
C29   C36   S    
C49   H18   S    
C35   C37   S    
C24   C26   A    
C47   H10   S    
C16   O14   A    
C8    C59   S    
C11   C14   A    
C57   O6    D    
C4    C41   A    
C9    N1    A    
C23   C40   A    
C45   C62   A    
C33   C36   S    
C48   H15   S    
C54   O4    D    
C44   H5    S    
C18   C19   A    
C32   C39   T    
C16   O16   A    
C43   H38   S    
C62   C64   A    
C50   H19   S    
C17   O17   A    
C22   C44   S    
C28   C35   S    
C43   H2    S    
C22   C25   A    
C35   C49   S    
C58   O7    D    
Cu2   O16   S    
C44   H4    S    
C28   H12   S    
C25   C47   S    
C7    C58   S    
C46   H6    S    
C26   C48   S    
C45   C53   S    
C51   O18   D    
C6    C57   S    
C34   C41   A    
Cu2   N2    S    
C4    C7    A    
C42   H36   S    
Cu1   N1    S    
C2    C64   A    
C1    C34   S    
C10   C21   A    
C54   C56   S    
Cu2   O15   S    
C49   H17   S    
C60   H31   S    
C9    H23   S    
C5    C7    A    
C6    C8    A    
C33   C50   S    
Cu2   O11   S    
C30   C37   S    
C6    C63   A    
C2    C4    A    
C58   H29   S    
C54   H26   S    
C42   H34   S    
C12   O13   A    
C9    C20   A    
C12   C23   S    
C61   O10   D    
Cu1   O13   S    
C56   C63   A    
C44   H3    S    
C11   N1    A    
C52   O2    D    
C50   H21   S    
C1    O1    A    
C53   H25   S    
C17   O15   A    
C15   C24   A    
C3    C40   A    
C3    C8    A    
C57   H28   S    
C13   C15   A    
C30   C43   S    
C10   N2    A    
C59   H30   S    
C47   H11   S    
C11   C60   S    
C42   H35   S    
C46   H8    S    
C2    C63   A    
C48   H13   S    
C53   O3    D    
C21   C25   A    
C41   C52   S    
C30   C33   S    
C55   O5    D    
C5    C55   S    
C13   N2    A    
C51   H22   S    
C40   C51   S    
C29   C35   S    
C31   C38   T    
C24   C46   S    
C14   C22   A    
C28   C30   S    
C47   H9    S    
C37   C39   S    
C48   H14   S    
C20   C26   A    
C27   C37   S    
C59   O8    D    
C36   C38   S    
Cu1   O14   S    
C5    C62   A    
C18   C20   A    
C1    O12   A    
Cu1   O17   S    
C10   H33   S    
C43   H37   S    
C27   H1    S    
C50   H20   S    
C12   O11   A    
C13   C61   S    
C28   C36   S    
Cu1   Cu2   S    
Cu2   O12   S    
C17   C32   S    
C60   O9    D    
Cu1   O1    S    
C46   H7    S    
C19   C21   A    
