data_mof_unit_31377.cif
_audit_creation_date              2012-12-11T14:23:14-0500
_audit_creation_method            fapswitch 2.2
_symmetry_space_group_name_H-M    P1
_symmetry_Int_Tables_number       1
_space_group_crystal_system       triclinic
_cell_length_a                    11.045211
_cell_length_b                    10.961706
_cell_length_c                    18.871008
_cell_angle_alpha                 90.120641
_cell_angle_beta                  90.429366
_cell_angle_gamma                 59.611908
_cell_volume                      1970.84818492

loop_
_atom_site_label
_atom_site_type_symbol
_atom_type_description
_atom_site_fract_x
_atom_site_fract_y
_atom_site_fract_z
_atom_type_partial_charge
C1    C     C_R   0.236422 0.645494 0.610007 0.529822
C2    C     C_R   0.593377 0.117472 0.704968 -0.161598
C3    C     C_R   0.601435 0.106700 0.777258 -0.157289
C4    C     C_R   0.629739 0.588544 0.609042 0.563074
C5    C     C_R   0.913718 0.147765 0.813153 -0.110797
C6    C     C_R   0.021929 0.144799 0.774199 -0.156432
C7    C     C_R   0.025570 0.129176 0.700973 -0.152143
C8    C     C_R   0.917723 0.123671 0.665831 -0.094723
C9    C     C_R   0.684988 0.145314 0.668021 -0.008324
C10   C     C_R   0.183247 0.667811 0.834846 -0.031203
C11   C     C_R   0.212187 0.541295 0.799995 -0.016421
C12   C     C_3   0.738517 0.503079 0.803939 -0.234157
C13   C     C_R   0.198252 0.543599 0.724573 0.014552
C14   C     C_R   0.177227 0.774880 0.722048 -0.163086
C15   C     C_R   0.174698 0.779234 0.794977 -0.152722
C16   C     C_R   0.632193 0.222046 0.600666 0.532073
C17   C     C_R   0.253346 0.413078 0.837413 0.046528
C18   C     C_R   0.253889 0.300810 0.801826 -0.103132
C19   C     C_R   0.222942 0.310448 0.730000 -0.166719
C20   C     C_R   0.194123 0.430211 0.691697 -0.092383
C21   C     C_R   0.190492 0.658512 0.685029 -0.009925
C22   C     C_R   0.723726 0.691069 0.180396 0.009563
C23   C     C_3   0.688876 0.661305 0.816393 0.051017
C24   C     C_R   0.796079 0.550355 0.209673 0.022271
C25   C     C_R   0.745419 0.528990 0.272599 -0.020986
C26   C     C_R   0.615145 0.783719 0.293880 -0.151565
C27   C     C_R   0.640448 0.806292 0.224307 -0.167001
C28   C     C_R   0.230807 0.648418 0.398372 0.550492
C29   C     C_R   0.915769 0.428680 0.179246 -0.147866
C30   C     C_R   0.975825 0.295296 0.208947 -0.119847
C31   C     C_R   0.921258 0.277559 0.270239 0.275190
C32   C     C_R   0.791587 0.388196 0.292148 -0.074053
C33   C     C_R   0.660194 0.646441 0.317150 0.012704
C34   C     C_3   0.649350 0.618642 0.683757 0.042817
C35   C     C_R   0.661636 0.151604 0.177801 -0.014565
C36   C     C_R   0.528784 0.216183 0.207979 0.008069
C37   C     C_R   0.518567 0.198665 0.280760 0.038513
C38   C     C_R   0.769470 0.098177 0.295049 -0.161597
C39   C     C_R   0.782277 0.089690 0.221870 -0.130508
C40   C     C_R   0.639813 0.619273 0.390636 0.548060
C41   C     C_R   0.406634 0.283260 0.165970 -0.076940
C42   C     C_R   0.282075 0.302433 0.191970 -0.114287
C43   C     C_R   0.274087 0.266809 0.261620 -0.151022
C44   C     C_R   0.391063 0.213577 0.305528 -0.088582
C45   C     C_3   0.742163 0.687179 0.688078 -0.226047
C46   C     C_R   0.637452 0.163592 0.324902 -0.019542
C47   C     C_R   0.160760 0.659366 0.179590 0.003132
C48   C     C_R   0.243590 0.712681 0.205336 0.022352
C49   C     C_R   0.236898 0.742614 0.277800 0.032154
C50   C     C_R   0.120542 0.605473 0.297607 -0.148783
C51   C     C_R   0.097337 0.609626 0.225877 -0.149705
C52   C     C_R   0.616207 0.225511 0.395947 0.534054
C53   C     C_R   0.312063 0.758566 0.158557 -0.079916
C54   C     C_R   0.340772 0.862452 0.179581 -0.107193
C55   C     C_R   0.312608 0.911900 0.248534 -0.110654
C56   C     C_3   0.721319 0.477700 0.725378 -0.234178
C57   C     C_R   0.269279 0.848127 0.298091 -0.047348
C58   C     C_R   0.189394 0.671810 0.324579 0.010656
C59   C     C_R   0.706413 0.092143 0.893147 0.536800
C60   C     C_R   0.719287 0.684255 0.890218 0.542555
C61   C     C_R   0.118901 0.705536 0.905779 0.521650
C62   C     C_R   0.677778 0.104455 0.104584 0.526089
C63   C     C_R   0.736686 0.715547 0.105334 0.556477
C64   C     C_3   0.530693 0.749709 0.797332 -0.240699
C65   C     C_R   0.096444 0.706123 0.111135 0.522243
C66   C     C_3   0.507037 0.718085 0.720265 -0.237066
C67   C     C_R   0.701873 0.122172 0.816496 -0.010187
C68   C     C_3   0.771782 0.704662 0.766157 -0.229210
C69   C     C_2   0.313226 0.387231 0.910343 0.254410
C70   C     C_3   0.024117 0.193097 0.378694 -0.132039
C71   C     C_R   0.806642 0.134447 0.779067 0.018839
C72   C     C_R   0.803431 0.134105 0.703588 0.021931
Cr1   Cr    Cr6+3 0.392940 0.397950 0.502230 0.993822
Cr2   Cr    Cr6+3 0.398400 0.708500 0.501260 0.985798
Cr3   Cr    Cr6+3 0.708640 0.393530 0.496460 0.967564
Cr4   Cr    Cr6+3 0.937880 0.938320 0.007620 1.006881
Cr5   Cr    Cr6+3 0.625560 0.937220 0.994510 1.042663
Cr6   Cr    Cr6+3 0.938080 0.625010 0.001190 1.021416
H1    H     H_    0.492884 0.864600 0.802655 0.123828
H2    H     H_    0.927211 0.106476 0.609202 0.131656
H3    H     H_    0.178408 0.860121 0.694494 0.151936
H4    H     H_    0.468508 0.724017 0.834183 0.117656
H5    H     H_    0.161880 0.873457 0.820341 0.157387
H6    H     H_    0.283961 0.202656 0.829147 0.134718
H7    H     H_    0.228547 0.221383 0.702899 0.096314
H8    H     H_    0.165558 0.433011 0.636683 0.140344
H9    H     H_    0.556361 0.873203 0.328640 0.114693
H10   H     H_    0.977814 0.431937 0.136886 0.157954
H11   H     H_    0.594759 0.913488 0.204654 0.135024
H12   H     H_    0.826390 0.406595 0.702598 0.164192
H13   H     H_    0.071648 0.208607 0.187512 0.131697
H14   H     H_    0.445284 0.664039 0.720692 0.131284
H15   H     H_    0.732429 0.365977 0.327609 0.177999
H16   H     H_    0.861360 0.052922 0.328823 0.181612
H17   H     H_    0.408479 0.313968 0.111645 0.150972
H18   H     H_    0.886974 0.031420 0.200053 0.180735
H19   H     H_    0.193633 0.343773 0.156918 0.111240
H20   H     H_    0.177654 0.281323 0.282619 0.128663
H21   H     H_    0.380981 0.176960 0.357012 0.134699
H22   H     H_    0.078940 0.556845 0.332216 0.125419
H23   H     H_    0.886497 0.638012 0.776938 0.143574
H24   H     H_    0.329748 0.725007 0.103686 0.123846
H25   H     H_    0.026125 0.578032 0.206612 0.128658
H26   H     H_    0.446146 0.819463 0.690767 0.132192
H27   H     H_    0.380473 0.907764 0.141927 0.142205
H28   H     H_    0.329705 0.996488 0.264611 0.118638
H29   H     H_    0.252538 0.893561 0.349803 0.164983
H30   H     H_    0.742808 0.816109 0.775863 0.127750
H31   H     H_    0.687979 0.792310 0.661450 0.128945
H32   H     H_    0.850969 0.435422 0.818959 0.155138
H33   H     H_    0.676842 0.470640 0.837306 0.113678
H34   H     H_    0.843631 0.620670 0.660501 0.137628
H35   H     H_    0.657935 0.425134 0.720746 0.121007
H36   H     H_    0.353156 0.452091 0.931755 0.082340
H37   H     H_    0.935779 0.215327 0.413903 0.170365
H38   H     H_    0.041758 0.284691 0.378883 0.107898
H39   H     H_    0.119251 0.102647 0.402149 0.101687
H40   H     H_    0.508119 0.113335 0.678516 0.140998
H41   H     H_    0.914908 0.164132 0.869363 0.146533
H42   H     H_    0.527278 0.083863 0.802047 0.146607
H43   H     H_    0.105100 0.150638 0.801404 0.112671
H44   H     H_    0.113139 0.117903 0.670773 0.097513
O1    O     O_R   0.507340 0.255690 0.581430 -0.519388
O2    O     O_R   0.837290 0.593240 0.915240 -0.517424
O3    O     O_R   0.065320 0.635310 0.931580 -0.489672
O4    O     O_R   0.280360 0.527380 0.578910 -0.508159
O5    O     O_R   0.068470 0.828620 0.091850 -0.520262
O6    O     O_R   0.799150 0.057200 0.079350 -0.507130
O7    O     O_R   0.585220 0.080180 0.076770 -0.510589
O8    O     O_R   0.627170 0.809480 0.067050 -0.504519
O9    O     O_R   0.816200 0.596410 0.076500 -0.535248
O10   O     O_R   0.045770 0.638240 0.081070 -0.534832
O11   O     O_3   0.833840 0.833520 0.001110 -0.275187
O12   O     O_R   0.524510 0.695820 0.424050 -0.505133
O13   O     O_R   0.260600 0.739610 0.584580 -0.537646
O14   O     O_R   0.532370 0.695050 0.573830 -0.507772
O15   O     O_R   0.744850 0.503430 0.576380 -0.527423
O16   O     O_R   0.699080 0.276500 0.571950 -0.528627
O17   O     O_R   0.498860 0.256520 0.419860 -0.529186
O18   O     O_R   0.272490 0.528150 0.429140 -0.494739
O19   O     O_R   0.252110 0.740440 0.423010 -0.548826
O20   O     O_2   0.318438 0.293396 0.947349 -0.515332
O21   O     O_3   0.001045 0.156317 0.309962 -0.602981
O22   O     O_R   0.736370 0.504260 0.414810 -0.545344
O23   O     O_R   0.691220 0.277270 0.422180 -0.536602
O24   O     O_3   0.499990 0.499990 0.499980 -0.255879
O25   O     O_R   0.089570 0.825450 0.930590 -0.526542
O26   O     O_R   0.818700 0.054260 0.929860 -0.512151
O27   O     O_R   0.606310 0.077010 0.915520 -0.486167
O28   O     O_R   0.646730 0.806540 0.917560 -0.505907

loop_
_geom_bond_atom_site_label_1
_geom_bond_atom_site_label_2
_ccdc_geom_bond_type
C34   C56   S    
C52   O23   A    
C41   C42   A    
C19   C20   A    
C28   O18   A    
C43   H20   S    
C43   C44   A    
C34   C66   S    
C12   H32   S    
C2    H40   S    
C45   H34   S    
C7    C8    A    
C41   H17   S    
C53   C54   A    
Cr3   O23   S    
C1    C21   S    
C12   C23   S    
C70   O21   S    
C5    H41   S    
C65   O5    A    
C14   C21   A    
C36   C37   A    
C16   O1    A    
C10   C15   A    
C30   C31   A    
C44   H21   S    
C45   H31   S    
C70   H39   S    
C51   H25   S    
Cr1   O4    S    
C46   C52   S    
C52   O17   A    
C49   C57   A    
C18   C19   A    
C63   O8    A    
C60   O2    A    
Cr6   O10   S    
C24   C29   A    
C29   H10   S    
C17   C69   S    
C59   C67   S    
C22   C63   S    
C35   C36   A    
Cr4   O25   S    
C26   H9    S    
Cr1   O1    S    
Cr2   O14   S    
C18   H6    S    
C56   H35   S    
C9    C72   A    
C63   O9    A    
Cr6   O2    S    
Cr3   O22   S    
C54   H27   S    
C4    O14   A    
C59   O26   A    
C25   C32   A    
C56   H12   S    
C32   H15   S    
C4    O15   A    
C62   O7    A    
C36   C41   A    
C23   C60   S    
Cr5   O11   S    
Cr2   O24   S    
C50   C51   A    
C59   O27   A    
Cr3   O24   S    
C48   C53   A    
C4    C34   S    
C69   H36   S    
C8    C72   A    
C33   C40   S    
C55   H28   S    
C50   C58   A    
C47   C48   A    
C66   H26   S    
C38   C39   A    
C1    O4    A    
Cr3   O15   S    
C42   H19   S    
Cr5   O27   S    
C66   H14   S    
Cr1   O17   S    
C70   H38   S    
C69   O20   D    
C40   O12   A    
C49   C58   A    
C20   H8    S    
C64   C66   S    
C23   C68   S    
C2    C9    A    
C35   C39   A    
Cr6   O9    S    
C29   C30   A    
C26   C33   A    
C31   C32   A    
C53   H24   S    
Cr2   O13   S    
C38   H16   S    
C45   C68   S    
C17   C18   A    
C26   C27   A    
C13   C21   A    
C34   C45   S    
Cr5   O7    S    
C24   C25   A    
C64   H4    S    
C12   C56   S    
C60   O28   A    
C48   C49   A    
C57   H29   S    
Cr2   O19   S    
C22   C27   A    
C55   C57   A    
Cr4   O6    S    
C64   H1    S    
C22   C24   A    
C10   C61   S    
C42   C43   A    
C7    H44   S    
C65   O10   A    
C54   C55   A    
C11   C17   A    
C13   C20   A    
C9    C16   S    
C16   O16   A    
C30   H13   S    
C19   H7    S    
Cr3   O16   S    
Cr5   O28   S    
C47   C51   A    
Cr4   O11   S    
C6    C7    A    
Cr1   O18   S    
C28   C58   S    
C70   H37   S    
C50   H22   S    
C68   H23   S    
C6    H43   S    
Cr1   O24   S    
C10   C11   A    
C37   C44   A    
C40   O22   A    
C2    C3    A    
C61   O25   A    
C23   C64   S    
C71   C72   A    
C5    C71   A    
C62   O6    A    
C11   C13   A    
C5    C6    A    
C3    C67   A    
C15   H5    S    
Cr2   O12   S    
C27   H11   S    
C35   C62   S    
C67   C71   A    
Cr5   O8    S    
C31   O21   S    
Cr6   O11   S    
C39   H18   S    
C38   C46   A    
C3    H42   S    
Cr4   O26   S    
C8    H2    S    
Cr4   O5    S    
C14   C15   A    
C61   O3    A    
C28   O19   A    
C68   H30   S    
C14   H3    S    
C37   C46   A    
C1    O13   A    
Cr6   O3    S    
C47   C65   S    
C12   H33   S    
C25   C33   A    
