data_mof_unit_58560.cif
_audit_creation_date              2012-12-10T17:12:41-0500
_audit_creation_method            fapswitch 2.2
_symmetry_space_group_name_H-M    P1
_symmetry_Int_Tables_number       1
_space_group_crystal_system       triclinic
_cell_length_a                    23.411089
_cell_length_b                    10.741483
_cell_length_c                    10.039501
_cell_angle_alpha                 89.628489
_cell_angle_beta                  88.144292
_cell_angle_gamma                 91.063696
_cell_volume                      2522.8091641

loop_
_atom_site_label
_atom_site_type_symbol
_atom_type_description
_atom_site_fract_x
_atom_site_fract_y
_atom_site_fract_z
_atom_type_partial_charge
C1    C     C_R   0.500601 0.263014 0.500365 0.933779
C2    C     C_R   0.966036 0.318274 0.653522 -0.116587
C3    C     C_R   0.025987 0.325068 0.665353 -0.123599
C4    C     C_R   0.057588 0.427701 0.608649 -0.066577
C5    C     C_R   0.028751 0.529278 0.553570 -0.010963
C6    C     C_R   0.059458 0.638946 0.511006 -0.084958
C7    C     C_R   0.029286 0.739412 0.454885 -0.046754
C8    C     C_R   0.971701 0.722959 0.427882 -0.167660
C9    C     C_R   0.117601 0.429620 0.597555 0.612720
C10   C     C_R   0.119405 0.640172 0.519610 0.552415
C11   C     C_R   0.233622 0.544420 0.421843 -0.146137
C12   C     C_R   0.388943 0.497640 0.502302 0.860600
C13   C     C_R   0.292606 0.536951 0.402722 0.085957
C14   C     C_R   0.325703 0.497490 0.511447 -0.112888
C15   C     C_R   0.297276 0.466461 0.636055 0.068274
C16   C     C_R   0.240841 0.506238 0.659444 -0.042559
C17   C     C_R   0.207802 0.532765 0.548443 0.173824
C18   C     C_R   0.762903 0.399109 0.436461 0.002598
C19   C     C_R   0.702384 0.394784 0.441316 0.037163
C20   C     C_R   0.672505 0.499849 0.491001 -0.149452
C21   C     C_R   0.702343 0.607111 0.534092 -0.106747
C22   C     C_R   0.761367 0.604193 0.538953 -0.147195
C23   C     C_R   0.496888 0.737530 0.498831 0.995952
C24   C     C_R   0.791684 0.503060 0.489932 0.175347
C25   C     C_2   0.497685 0.939562 0.388484 0.148585
C26   C     C_2   0.479029 0.865438 0.492809 -0.067506
C27   C     C_2   0.486125 0.070159 0.394929 -0.152157
C28   C     C_2   0.504451 0.131981 0.499689 -0.405743
C29   C     C_2   0.520469 0.589349 0.926190 -0.018425
C30   C     C_2   0.534216 0.567725 0.069347 0.089570
C31   C     C_R   0.610342 0.497995 0.497659 0.958711
C32   C     C_R   0.883650 0.601459 0.444046 0.569048
C33   C     C_R   0.877370 0.418318 0.579451 0.555230
C34   C     C_R   0.937416 0.416432 0.589503 -0.076442
C35   C     C_R   0.969276 0.520219 0.537919 -0.001175
C36   C     C_R   0.941660 0.614990 0.468549 -0.034775
H1    H     H_    0.784857 0.683091 0.577935 0.204450
H2    H     H_    0.468156 0.116237 0.309560 0.181841
H3    H     H_    0.523154 0.085369 0.583956 0.165502
H4    H     H_    0.495976 0.414987 0.896925 0.155257
H5    H     H_    0.463636 0.467934 0.106821 0.150867
H6    H     H_    0.949519 0.798230 0.380428 0.217756
H7    H     H_    0.207127 0.563645 0.337792 0.165212
N1    N     N_R   0.852569 0.505520 0.501382 -0.339896
N2    N     N_R   0.146701 0.536011 0.559729 -0.330470
N3    N     N_2   0.500610 0.501330 0.852150 -0.250924
N4    N     N_2   0.500630 0.501360 0.147810 -0.209161
O1    O     O_R   0.499990 0.319060 0.613040 -0.624520
O2    O     O_2   0.843509 0.336889 0.649602 -0.519957
O3    O     O_2   0.147171 0.325097 0.619203 -0.534930
O4    O     O_2   0.150975 0.741519 0.482593 -0.526533
O5    O     O_R   0.500010 0.319100 0.386900 -0.613776
O6    O     O_R   0.416150 0.499940 0.613100 -0.624980
O7    O     O_R   0.416160 0.499980 0.386960 -0.616436
O8    O     O_R   0.499990 0.680900 0.613100 -0.575893
O9    O     O_R   0.500010 0.680940 0.386960 -0.655738
O10   O     O_R   0.583840 0.500020 0.613040 -0.575148
O11   O     O_R   0.583850 0.500060 0.386900 -0.630587
O12   O     O_2   0.858075 0.684613 0.365205 -0.533405
Zn1   Zn    Zn3+2 0.499990 0.499970 0.650990 0.974653
Zn2   Zn    Zn3+2 0.500010 0.500030 0.349010 0.921023
C37   C     C_2   0.934579 0.204872 0.702729 1.059326
O13   O     O_2   0.931597 0.181106 0.822069 -0.570932
O14   O     O_R   0.908915 0.125210 0.611703 -0.741343
H8    H     H_    0.888824 0.051027 0.656678 0.362859
C38   C     C_3   0.669886 0.278854 0.396100 -0.414071
C39   C     C_3   0.654159 0.193308 0.514249 -0.766579
H9    H     H_    0.692984 0.166369 0.567223 0.306068
H10   H     H_    0.624681 0.240674 0.585467 0.238795
H11   H     H_    0.632627 0.107475 0.478331 0.246183
H12   H     H_    0.630456 0.303078 0.344655 0.209671
H13   H     H_    0.694859 0.226328 0.320285 0.229136
C40   C     C_2   0.674148 0.726243 0.568766 0.980689
O15   O     O_2   0.628893 0.753299 0.519774 -0.682837
O16   O     O_R   0.701062 0.811021 0.652649 -0.777336
H14   H     H_    0.679071 0.890861 0.664336 0.343043
C41   C     C_3   0.537541 0.896915 0.274276 -0.384326
C42   C     C_3   0.562907 0.000571 0.183448 -0.831880
H15   H     H_    0.528679 0.047502 0.129165 0.262478
H16   H     H_    0.587007 0.069896 0.242341 0.266516
H17   H     H_    0.592876 0.959590 0.108523 0.256096
H18   H     H_    0.574268 0.848859 0.317309 0.235593
H19   H     H_    0.513640 0.832004 0.209786 0.238551
C43   C     C_3   0.434517 0.905988 0.598911 -0.445640
C44   C     C_3   0.381300 0.821113 0.603504 -0.801792
H20   H     H_    0.365371 0.806368 0.501630 0.246981
H21   H     H_    0.390782 0.730255 0.649670 0.274316
H22   H     H_    0.346999 0.864467 0.665448 0.265401
H23   H     H_    0.454102 0.905955 0.697993 0.259637
H24   H     H_    0.418616 0.001025 0.581769 0.234066
C45   C     C_2   0.531209 0.714961 0.871684 0.964602
O17   O     O_2   0.498515 0.798292 0.901899 -0.679436
O18   O     O_R   0.580654 0.740566 0.794457 -0.762213
H25   H     H_    0.583734 0.831387 0.766573 0.334263
C46   C     C_3   0.588590 0.625784 0.120006 -0.346672
C47   C     C_3   0.638233 0.536664 0.102776 -0.753860
H26   H     H_    0.627459 0.445093 0.149825 0.254184
H27   H     H_    0.648277 0.522401 0.995096 0.263559
H28   H     H_    0.676665 0.576474 0.150030 0.255861
H29   H     H_    0.600147 0.713405 0.065780 0.191278
H30   H     H_    0.583034 0.653355 0.224663 0.253570
C48   C     C_2   0.054629 0.228306 0.744821 1.054920
O19   O     O_2   0.050008 0.118377 0.715375 -0.558715
O20   O     O_R   0.086844 0.263968 0.853557 -0.727619
H31   H     H_    0.104414 0.190407 0.899695 0.358565
C49   C     C_2   0.054688 0.863974 0.423831 1.018606
O21   O     O_2   0.078738 0.922955 0.510165 -0.507460
O22   O     O_R   0.047912 0.916975 0.297916 -0.775353
H32   H     H_    0.065989 0.003286 0.289374 0.360784
C50   C     C_3   0.316742 0.570303 0.264558 -0.357415
C51   C     C_3   0.326079 0.454083 0.180041 -0.789269
H33   H     H_    0.346748 0.481056 0.082720 0.249989
H34   H     H_    0.353596 0.386459 0.230213 0.263759
H35   H     H_    0.284336 0.407666 0.161278 0.259923
H36   H     H_    0.286483 0.630244 0.211457 0.205067
H37   H     H_    0.356120 0.628789 0.269163 0.223805
C52   C     C_3   0.322950 0.378506 0.738074 -0.312910
C53   C     C_3   0.340583 0.254555 0.676029 -0.836450
H38   H     H_    0.303597 0.209996 0.627204 0.279693
H39   H     H_    0.376175 0.266984 0.601476 0.247584
H40   H     H_    0.355067 0.190889 0.755204 0.245396
H41   H     H_    0.358938 0.422992 0.790079 0.233596
H42   H     H_    0.291010 0.352763 0.818097 0.222420
C54   C     C_2   0.218819 0.529674 0.798615 0.935442
O23   O     O_2   0.167578 0.530677 0.825807 -0.571524
O24   O     O_R   0.257420 0.557708 0.898131 -0.837258
H43   H     H_    0.237695 0.574028 0.987539 0.350719
C55   C     C_2   0.797015 0.297249 0.376259 0.947538
O25   O     O_2   0.834399 0.322012 0.291829 -0.585550
O26   O     O_R   0.787931 0.174167 0.419079 -0.761890
H44   H     H_    0.814471 0.114081 0.371790 0.374123

loop_
_geom_bond_atom_site_label_1
_geom_bond_atom_site_label_2
_ccdc_geom_bond_type
C9    N2    A    
O18   H25   S    
C40   O15   D    
C19   C20   A    
C52   H41   S    
C55   O25   D    
C23   O9    A    
C41   C42   S    
H4    N3    S    
C37   O13   D    
C19   C38   S    
C18   C24   A    
C32   C36   A    
C31   O11   A    
C8    H6    S    
C18   C19   A    
O5    Zn2   S    
C5    C6    A    
C42   H16   S    
C49   O21   D    
C41   H19   S    
C27   H2    S    
C33   O2    S    
C15   C16   A    
C47   H28   S    
C21   C40   S    
O22   H32   S    
C30   C46   S    
C34   C35   A    
C8    C36   A    
C23   C26   S    
C53   H38   S    
C37   O14   S    
C18   C55   S    
C50   C51   S    
C38   H13   S    
C46   C47   S    
C16   C17   A    
C47   H27   S    
C1    C28   S    
C11   H7    S    
C12   O6    A    
O8    Zn1   S    
C2    C34   A    
O11   Zn2   S    
C38   C39   S    
C13   C14   A    
C40   O16   S    
C43   H24   S    
C10   O4    S    
O20   H31   S    
O6    Zn1   S    
O1    Zn1   S    
C44   H21   S    
H5    N4    S    
C39   H9    S    
C30   N4    D    
C7    C8    A    
C43   C44   S    
C45   O17   D    
C42   H15   S    
O10   Zn1   S    
C28   H3    S    
C25   C26   D    
C44   H20   S    
C22   H1    S    
C15   C52   S    
C39   H10   S    
C35   C36   A    
O16   H14   S    
N4    Zn2   S    
C29   C30   S    
C45   O18   S    
C38   H12   S    
C14   C15   A    
C47   H26   S    
C10   N2    A    
C33   C34   A    
C32   N1    A    
C7    C49   S    
C51   H34   S    
C48   O20   S    
C13   C50   S    
C3    C48   S    
C12   C14   S    
C24   N1    S    
C25   C41   S    
C43   H23   S    
C3    C4    A    
C50   H37   S    
C29   C45   S    
C54   O24   S    
C44   H22   S    
C11   C17   A    
C26   C43   S    
C51   H33   S    
N3    Zn1   S    
C46   H29   S    
C33   N1    A    
C9    O3    S    
C17   N2    S    
C4    C5    A    
C55   O26   S    
C6    C10   A    
C1    O1    A    
C23   O8    A    
C6    C7    A    
O7    Zn2   S    
C25   C27   S    
C29   N3    D    
C39   H11   S    
O14   H8    S    
C31   O10   A    
O26   H44   S    
C16   C54   S    
C52   C53   S    
C11   C13   A    
C42   H17   S    
C49   O22   S    
C41   H18   S    
O24   H43   S    
C5    C35   A    
C2    C3    A    
C51   H35   S    
C22   C24   A    
C52   H42   S    
C48   O19   D    
C1    O5    A    
C53   H39   S    
C46   H30   S    
C20   C21   A    
C27   C28   D    
O9    Zn2   S    
C32   O12   S    
C4    C9    A    
C21   C22   A    
C50   H36   S    
C53   H40   S    
C12   O7    A    
C2    C37   S    
C54   O23   D    
C20   C31   S    
