data_mof_unit_63695.cif
_audit_creation_date              2012-12-10T18:37:06-0500
_audit_creation_method            fapswitch 2.2
_symmetry_space_group_name_H-M    P1
_symmetry_Int_Tables_number       1
_space_group_crystal_system       triclinic
_cell_length_a                    25.574724
_cell_length_b                    25.570741
_cell_length_c                    25.575891
_cell_angle_alpha                 119.977492
_cell_angle_beta                  90.02447
_cell_angle_gamma                 119.987378
_cell_volume                      11830.6291569

loop_
_atom_site_label
_atom_site_type_symbol
_atom_type_description
_atom_site_fract_x
_atom_site_fract_y
_atom_site_fract_z
_atom_type_partial_charge
C1    C     C_R   0.599559 0.699163 0.599627 0.519972
C2    C     C_1   0.827195 0.499931 0.827026 0.016042
C3    C     C_2   0.881531 0.069228 0.813095 0.214533
C4    C     C_2   0.768088 0.075444 0.690354 0.229053
C5    C     C_2   0.216035 0.505898 0.360708 0.260568
C6    C     C_2   0.118348 0.374999 0.185818 0.268423
C7    C     C_2   0.184532 0.373514 0.116532 0.218634
C8    C     C_2   0.373536 0.526084 0.233280 0.236677
C9    C     C_2   0.310948 0.612139 0.220802 0.206297
C10   C     C_2   0.231906 0.616437 0.312167 0.207078
C11   C     C_2   0.266612 0.375532 0.689573 0.262827
C12   C     C_2   0.353342 0.495516 0.786325 0.263261
C13   C     C_3   0.290034 0.042277 0.323679 -0.110473
C14   C     C_2   0.256996 0.454934 0.839969 0.228195
C15   C     C_2   0.183329 0.384914 0.614767 0.213298
C16   C     C_2   0.323774 0.076415 0.188422 0.275316
C17   C     C_R   0.400360 0.300764 0.400321 0.519907
C18   C     C_3   0.315431 0.043477 0.226667 -0.002734
C19   C     C_3   0.267544 0.955232 0.181320 -0.124178
C20   C     C_1   0.139793 0.778340 0.138813 0.041210
C21   C     C_3   0.289581 0.073133 0.283802 0.038859
C22   C     C_3   0.250034 0.956338 0.279112 -0.253885
C23   C     C_3   0.215559 0.926556 0.210845 0.004730
C24   C     C_3   0.175012 0.957239 0.217101 -0.247039
C25   C     C_1   0.860442 0.499918 0.860406 0.046962
C26   C     C_3   0.218862 0.042457 0.254753 -0.244814
C27   C     C_1   0.173708 0.844950 0.171490 -0.022372
C28   C     C_1   0.329006 0.154953 0.326349 0.072113
C29   C     C_R   0.400314 0.499889 0.599562 0.526524
C30   C     C_1   0.361407 0.221552 0.360498 0.097083
C31   C     C_3   0.780906 0.586497 0.325566 -0.006392
C32   C     C_3   0.677420 0.485995 0.221159 0.011955
C33   C     C_3   0.726139 0.494338 0.181635 -0.044074
C34   C     C_1   0.861091 0.501864 0.139351 0.045928
C35   C     C_3   0.713522 0.507110 0.287000 -0.057111
C36   C     C_3   0.784354 0.562848 0.753292 -0.131667
C37   C     C_3   0.826684 0.582303 0.283585 -0.047509
C38   C     C_3   0.787925 0.508214 0.214262 0.002947
C39   C     C_3   0.765272 0.444332 0.222063 -0.269582
C40   C     C_3   0.726782 0.447668 0.268844 -0.245735
C41   C     C_R   0.599657 0.500026 0.400472 0.519953
C42   C     C_1   0.828211 0.504368 0.172956 -0.026974
C43   C     C_1   0.672473 0.503596 0.327762 -0.103252
C44   C     C_1   0.639201 0.501544 0.360965 0.024154
C45   C     C_3   0.768188 0.955185 0.767220 -0.288195
C46   C     C_3   0.671435 0.956957 0.744560 0.008379
C47   C     C_3   0.713049 0.499906 0.713635 0.042881
C48   C     C_3   0.717115 0.044102 0.787922 -0.221900
C49   C     C_1   0.860667 0.221615 0.861255 0.100179
C50   C     C_3   0.712141 0.926607 0.713326 -0.037123
C51   C     C_3   0.813114 0.042086 0.812989 0.011477
C52   C     C_3   0.787236 0.073258 0.787848 -0.003643
C53   C     C_R   0.400253 0.500055 0.400249 0.518935
C54   C     C_3   0.786648 0.043535 0.716990 -0.131757
C55   C     C_3   0.741321 0.957049 0.672798 -0.115723
C56   C     C_1   0.827664 0.155071 0.828339 0.066139
C57   C     C_1   0.671928 0.844791 0.672423 -0.031616
C58   C     C_3   0.772568 0.558573 0.811178 -0.132904
C59   C     C_1   0.639009 0.778253 0.639169 0.047346
C60   C     C_3   0.254434 0.537553 0.326315 -0.108591
C61   C     C_3   0.233767 0.418840 0.229024 -0.180444
C62   C     C_3   0.187134 0.416377 0.185912 -0.007474
C63   C     C_1   0.139249 0.499828 0.139018 0.062546
C64   C     C_3   0.286466 0.499437 0.286519 0.005385
C65   C     C_R   0.599842 0.499937 0.599848 0.515747
C66   C     C_3   0.212305 0.538481 0.282789 -0.118849
C67   C     C_3   0.213540 0.499182 0.212324 -0.042051
C68   C     C_3   0.284495 0.539065 0.212026 -0.092519
C69   C     C_3   0.786822 0.499957 0.786352 0.043783
C70   C     C_3   0.328218 0.545190 0.260859 -0.090035
C71   C     C_1   0.172583 0.499606 0.171912 -0.028824
C72   C     C_1   0.327346 0.499760 0.327492 -0.005700
C73   C     C_1   0.360694 0.499950 0.360783 0.051496
C74   C     C_3   0.313096 0.576768 0.769746 -0.261003
C75   C     C_3   0.285617 0.452884 0.741833 -0.003506
C76   C     C_3   0.235469 0.446579 0.779140 -0.081262
C77   C     C_3   0.798543 0.504175 0.729328 0.039024
C78   C     C_1   0.139237 0.499517 0.860782 0.054873
C79   C     C_3   0.286369 0.495853 0.713095 -0.023068
C80   C     C_3   0.701325 0.495687 0.770659 0.034697
C81   C     C_3   0.273975 0.576953 0.816027 -0.224216
C82   C     C_3   0.214174 0.497536 0.787540 0.028097
C83   C     C_3   0.175729 0.465777 0.719966 -0.261859
C84   C     C_3   0.216952 0.462247 0.675178 -0.104248
C85   C     C_1   0.172881 0.498951 0.827829 0.007889
C86   C     C_1   0.327322 0.498403 0.672339 -0.021446
C87   C     C_1   0.360672 0.499573 0.639112 0.062037
C88   C     C_R   0.900486 0.500105 0.099678 0.519433
C89   C     C_3   0.727302 0.441290 0.688810 -0.128708
C90   C     C_R   0.099403 0.499540 0.900156 0.517375
C91   C     C_3   0.715515 0.437015 0.746696 -0.127234
C92   C     C_R   0.099708 0.699106 0.099379 0.515087
C93   C     C_R   0.900189 0.300704 0.900506 0.524332
C94   C     C_R   0.099698 0.499829 0.099671 0.519599
C95   C     C_R   0.900076 0.499915 0.900084 0.515508
C96   C     C_1   0.639466 0.499946 0.639548 0.050480
C97   C     C_2   0.382183 0.066327 0.253860 0.188250
C98   C     C_2   0.236281 0.923669 0.112631 0.213390
C99   C     C_2   0.266128 0.067556 0.379325 0.229492
C100  C     C_2   0.874225 0.653333 0.289681 0.331504
C101  C     C_2   0.852572 0.509017 0.704370 0.246514
C102  C     C_1   0.672694 0.499934 0.672946 0.016668
C103  C     C_2   0.769727 0.646354 0.343921 0.294433
C104  C     C_2   0.616641 0.406550 0.184602 0.250402
C105  C     C_2   0.650512 0.530611 0.231417 0.283361
C106  C     C_2   0.741057 0.546644 0.162626 0.332987
C107  C     C_2   0.812704 0.604877 0.388962 0.196166
C108  C     C_2   0.814880 0.065872 0.881311 0.269355
C109  C     C_2   0.614916 0.927264 0.691948 0.278618
C110  C     C_2   0.644146 0.931006 0.786655 0.234016
C111  C     C_2   0.776169 0.925542 0.635746 0.246453
C112  C     C_2   0.647291 0.490843 0.795609 0.255873
H1    H     H_    0.215047 0.058090 0.222278 0.185723
H2    H     H_    0.304856 0.600316 0.862995 0.181551
H3    H     H_    0.221246 0.497742 0.659866 0.173116
H4    H     H_    0.282344 0.938573 0.276625 0.125251
H5    H     H_    0.708855 0.393353 0.638310 0.130913
H6    H     H_    0.389133 0.027035 0.252163 0.111800
H7    H     H_    0.294553 0.931017 0.177929 0.138067
H8    H     H_    0.206963 0.938884 0.102328 0.129857
H9    H     H_    0.200841 0.066907 0.292956 0.120550
H10   H     H_    0.216248 0.047913 0.370828 0.123895
H11   H     H_    0.214192 0.931223 0.298816 0.145286
H12   H     H_    0.141551 0.941466 0.242620 0.141073
H13   H     H_    0.905290 0.703786 0.337133 0.142375
H14   H     H_    0.855040 0.511672 0.663353 0.111013
H15   H     H_    0.739753 0.652140 0.373384 0.139770
H16   H     H_    0.580546 0.393395 0.207106 0.129949
H17   H     H_    0.649565 0.565063 0.278085 0.100807
H18   H     H_    0.740339 0.528680 0.113993 0.106236
H19   H     H_    0.703726 0.440779 0.134153 0.138835
H20   H     H_    0.752882 0.458952 0.311876 0.126548
H21   H     H_    0.681420 0.391961 0.246624 0.161313
H22   H     H_    0.807012 0.447388 0.240175 0.133831
H23   H     H_    0.144814 0.932693 0.169241 0.130691
H24   H     H_    0.831550 0.575071 0.388742 0.113356
H25   H     H_    0.860503 0.576873 0.304348 0.057775
H26   H     H_    0.821314 0.037828 0.898792 0.118887
H27   H     H_    0.748221 0.930746 0.794146 0.106673
H28   H     H_    0.581848 0.868017 0.656477 0.151460
H29   H     H_    0.675570 0.955185 0.832411 0.120993
H30   H     H_    0.819967 0.938928 0.660624 0.109625
H31   H     H_    0.700787 0.938592 0.636223 0.165943
H32   H     H_    0.836513 0.062323 0.717285 0.161680
H33   H     H_    0.644820 0.488195 0.836629 0.117616
H34   H     H_    0.687291 0.385517 0.744450 0.134365
H35   H     H_    0.795225 0.931659 0.745195 0.107005
H36   H     H_    0.891224 0.033874 0.774810 0.099671
H37   H     H_    0.719994 0.061717 0.681748 0.157955
H38   H     H_    0.161655 0.506919 0.280557 0.168509
H39   H     H_    0.193385 0.530729 0.389320 0.134343
H40   H     H_    0.257447 0.393280 0.201200 0.142978
H41   H     H_    0.208011 0.384559 0.246706 0.225287
H42   H     H_    0.081337 0.368913 0.157659 0.154632
H43   H     H_    0.221124 0.363977 0.105139 0.162759
H44   H     H_    0.791014 0.606510 0.861678 0.127967
H45   H     H_    0.734977 0.389884 0.174764 0.168426
H46   H     H_    0.424357 0.564119 0.260411 0.140565
H47   H     H_    0.283980 0.614280 0.190074 0.135893
H48   H     H_    0.281765 0.661313 0.328566 0.162969
H49   H     H_    0.283686 0.503954 0.163054 0.163203
H50   H     H_    0.364650 0.608818 0.796400 0.135270
H51   H     H_    0.270190 0.361428 0.642700 0.139315
H52   H     H_    0.370939 0.544396 0.834391 0.131325
H53   H     H_    0.259515 0.411997 0.835923 0.173638
H54   H     H_    0.812580 0.614345 0.755538 0.128132
H55   H     H_    0.190874 0.389256 0.748917 0.121952
H56   H     H_    0.716278 0.066760 0.837720 0.166129
H57   H     H_    0.161945 0.337674 0.617191 0.126972
H58   H     H_    0.160954 0.501530 0.723979 0.142189
H59   H     H_    0.310466 0.606744 0.751014 0.145985
H60   H     H_    0.259039 0.613924 0.824800 0.140291
H61   H     H_    0.130606 0.410247 0.699579 0.127917
H62   H     H_    0.340178 0.063498 0.344634 0.168773
H63   H     H_    0.341342 0.059592 0.148601 0.145973
H64   H     H_    0.700692 0.069011 0.773264 0.164174
H65   H     H_    0.359812 0.603574 0.303516 0.141150
H66   H     H_    0.294067 0.595457 0.365645 0.090892
O1    O     O_3   0.500000 0.500000 0.500000 -0.463813
O2    O     O_R   0.960830 0.335840 0.918110 -0.508165
O3    O     O_R   0.082190 0.542890 0.125100 -0.528706
O4    O     O_R   0.625020 0.663960 0.582080 -0.527171
O5    O     O_R   0.874750 0.456980 0.917820 -0.537033
O6    O     O_R   0.082060 0.456790 0.039130 -0.510414
O7    O     O_R   0.960740 0.542810 0.917680 -0.519977
O8    O     O_R   0.081970 0.663760 0.038700 -0.522480
O9    O     O_R   0.874800 0.335990 0.918070 -0.538986
O10   O     O_R   0.961140 0.543090 0.125040 -0.521768
O11   O     O_R   0.081820 0.456620 0.917920 -0.521014
O12   O     O_R   0.418020 0.456930 0.581980 -0.517426
O13   O     O_R   0.418070 0.336020 0.461010 -0.526303
O14   O     O_R   0.417900 0.542920 0.581890 -0.528691
O15   O     O_R   0.539010 0.457110 0.375020 -0.533802
O16   O     O_R   0.417800 0.543010 0.460800 -0.528442
O17   O     O_R   0.625170 0.542960 0.582200 -0.540127
O18   O     O_R   0.417840 0.457080 0.374840 -0.528434
O19   O     O_R   0.539180 0.456950 0.582160 -0.510557
O20   O     O_2   0.428864 0.130258 0.280944 -0.472480
O21   O     O_2   0.244170 0.881265 0.068347 -0.473587
O22   O     O_2   0.302557 0.109582 0.434360 -0.453167
O23   O     O_R   0.625070 0.543050 0.461120 -0.518752
O24   O     O_2   0.879800 0.655559 0.243319 -0.450173
O25   O     O_2   0.893799 0.510006 0.729694 -0.470814
O26   O     O_2   0.793328 0.688791 0.328190 -0.422145
O27   O     O_2   0.606635 0.357082 0.130906 -0.484555
O28   O     O_2   0.623890 0.523082 0.186006 -0.428508
O29   O     O_2   0.755624 0.609051 0.200617 -0.364407
O30   O     O_2   0.818461 0.653314 0.440961 -0.474454
O31   O     O_2   0.811731 0.117319 0.918064 -0.491374
O32   O     O_2   0.604915 0.967647 0.688601 -0.503892
O33   O     O_2   0.587276 0.883422 0.770500 -0.476475
O34   O     O_R   0.538910 0.663940 0.581950 -0.530843
O35   O     O_2   0.755643 0.885259 0.577310 -0.449074
O36   O     O_2   0.606063 0.489846 0.770276 -0.450137
O37   O     O_2   0.926682 0.132434 0.854797 -0.439575
O38   O     O_2   0.806927 0.116375 0.677601 -0.459290
O39   O     O_2   0.210384 0.454206 0.357986 -0.455779
O40   O     O_2   0.103194 0.348642 0.216564 -0.470094
O41   O     O_2   0.142881 0.351735 0.072459 -0.471844
O42   O     O_2   0.354052 0.468183 0.181706 -0.496494
O43   O     O_2   0.362878 0.668525 0.260257 -0.491291
O44   O     O_2   0.191895 0.629964 0.318992 -0.472491
O45   O     O_R   0.418000 0.336080 0.374960 -0.515032
O46   O     O_2   0.250976 0.329563 0.700829 -0.468454
O47   O     O_2   0.389240 0.476888 0.768785 -0.439491
O48   O     O_2   0.272461 0.508963 0.893159 -0.498025
O49   O     O_2   0.178698 0.374619 0.562448 -0.461731
O50   O     O_2   0.312636 0.121957 0.201570 -0.496542
O51   O     O_3   0.999930 0.499860 0.999930 -0.463112
O52   O     O_R   0.874990 0.457140 0.039030 -0.537230
O53   O     O_R   0.081780 0.542610 0.917740 -0.530058
O54   O     O_R   0.082140 0.663870 0.124840 -0.531259
Zn1   Zn    Zn3+2 0.469350 0.438540 0.530750 1.006516
Zn2   Zn    Zn3+2 0.469190 0.561400 0.530630 0.982178
Zn3   Zn    Zn3+2 0.469250 0.438630 0.407810 0.988398
Zn4   Zn    Zn3+2 0.592210 0.561430 0.530810 0.978531
Zn5   Zn    Zn3+2 0.030570 0.561190 0.969050 0.986413
Zn6   Zn    Zn3+2 0.030810 0.561360 0.092130 0.982725
Zn7   Zn    Zn3+2 0.030630 0.438350 0.969310 1.010984
Zn8   Zn    Zn3+2 0.907720 0.438560 0.969250 0.970113

loop_
_geom_bond_atom_site_label_1
_geom_bond_atom_site_label_2
_ccdc_geom_bond_type
O3    Zn6   S    
C54   H32   S    
C21   C26   S    
C13   C99   S    
C4    O38   D    
C96   C102  T    
C110  H29   S    
C18   C21   S    
C69   C77   S    
C110  O33   D    
C34   C42   T    
C45   H27   S    
O1    Zn1   S    
C8    H46   S    
C108  O31   D    
C22   H11   S    
C7    C62   S    
C68   H49   S    
C78   C90   S    
C4    H37   S    
C20   C92   S    
C63   C94   S    
C77   C89   S    
C37   C38   S    
C17   C30   S    
C98   O21   D    
C36   C47   S    
C109  H28   S    
C8    O42   D    
O18   Zn3   S    
C24   C26   S    
C14   O48   D    
C36   C58   S    
C36   C77   S    
C1    C59   S    
C38   C39   S    
C79   C86   S    
C64   C70   S    
C92   O8    A    
C57   C59   T    
C45   C51   S    
C3    O37   D    
C83   H58   S    
C24   H12   S    
C112  H33   S    
C15   H57   S    
C76   H55   S    
C88   O52   A    
C81   H60   S    
C97   H6    S    
C103  O26   D    
C41   O15   A    
C111  H30   S    
C6    O40   D    
C100  O24   D    
C19   C98   S    
C65   C96   S    
C5    O39   D    
C95   O7    A    
C51   C108  S    
C48   H56   S    
C81   H2    S    
C13   C22   S    
C23   C24   S    
C32   C104  S    
C92   O54   A    
C26   H9    S    
C112  O36   D    
O51   Zn7   S    
C2    C69   S    
C35   C43   S    
O6    Zn7   S    
C5    C60   S    
C58   C80   S    
C72   C73   T    
C7    O41   D    
C33   H19   S    
C22   H4    S    
C66   C67   S    
C40   H20   S    
C60   C66   S    
C3    H36   S    
C47   C102  S    
C37   H25   S    
C39   H45   S    
C1    O34   A    
O54   Zn6   S    
C53   O16   A    
C47   C89   S    
C90   O11   A    
C94   O6    A    
C47   C80   S    
O16   Zn2   S    
O1    Zn2   S    
C11   H51   S    
C93   O2    A    
C52   C54   S    
O9    Zn8   S    
C10   H48   S    
C10   C66   S    
C13   H62   S    
C46   C48   S    
C55   H31   S    
C67   C68   S    
C17   O13   A    
C32   C35   S    
C111  O35   D    
C105  O28   D    
C65   O17   A    
O1    Zn3   S    
C101  O25   D    
C76   C82   S    
C106  O29   D    
C74   H50   S    
C3    C51   S    
C86   C87   T    
C18   C19   S    
O23   Zn4   S    
C105  H17   S    
O2    Zn7   S    
C11   O46   D    
C24   H23   S    
C81   C82   S    
C31   C37   S    
C15   O49   D    
O51   Zn8   S    
C14   C76   S    
C99   O22   D    
C61   C64   S    
C19   C23   S    
C75   C76   S    
C94   O3    A    
C107  H24   S    
C17   O45   A    
O5    Zn8   S    
C12   H52   S    
O8    Zn5   S    
C83   C84   S    
C104  H16   S    
C88   O10   A    
C80   C112  S    
C36   H54   S    
C101  H14   S    
C107  O30   D    
C29   O14   A    
C13   C21   S    
C58   C69   S    
O12   Zn1   S    
C34   C88   S    
C104  O27   D    
C14   H53   S    
O14   Zn2   S    
O51   Zn5   S    
C74   H59   S    
C6    H42   S    
C58   H44   S    
C99   H10   S    
C65   O19   A    
C62   C67   S    
C78   C85   T    
C68   C70   S    
C18   C97   S    
C21   C28   S    
C63   C71   T    
C25   C95   S    
C84   H3    S    
C23   C27   S    
C32   C105  S    
C46   C110  S    
C43   C44   T    
C41   C44   S    
C31   C35   S    
C90   O53   A    
C12   C75   S    
C89   C91   S    
C74   C81   S    
C41   O23   A    
C109  O32   D    
C49   C56   T    
C93   O9    A    
C39   C40   S    
C100  H13   S    
C103  H15   S    
C16   H63   S    
C106  H18   S    
C54   C55   S    
C16   O50   D    
O19   Zn1   S    
C66   H38   S    
C55   C111  S    
O52   Zn8   S    
C45   H35   S    
C50   C57   S    
C31   C107  S    
C97   O20   D    
C22   C23   S    
C53   C73   S    
C33   C106  S    
O45   Zn3   S    
C89   H5    S    
O1    Zn4   S    
C61   H41   S    
C4    C54   S    
O34   Zn2   S    
C1    O4    A    
C70   H65   S    
C98   H8    S    
C15   C84   S    
C20   C27   T    
O4    Zn4   S    
O13   Zn1   S    
C82   C85   S    
C40   H21   S    
C46   C50   S    
C8    C70   S    
C50   C55   S    
C5    H39   S    
C60   C64   S    
C74   C79   S    
C49   C93   S    
O53   Zn5   S    
C6    C62   S    
C80   C91   S    
C83   H61   S    
C35   C40   S    
C9    C68   S    
C51   C52   S    
C11   C75   S    
C32   C33   S    
C108  H26   S    
C95   O5    A    
C12   O47   D    
C79   C84   S    
C75   C79   S    
C45   C50   S    
C28   C30   T    
C77   C101  S    
C2    C25   T    
C67   C71   S    
C64   C72   S    
C61   C62   S    
O17   Zn4   S    
C61   H40   S    
O7    Zn5   S    
C29   C87   S    
O10   Zn6   S    
C10   O44   D    
C19   H7    S    
C38   C42   S    
C9    O43   D    
C48   C52   S    
C7    H43   S    
C16   C18   S    
C82   C83   S    
C46   C109  S    
C53   O18   A    
C9    H47   S    
C29   O12   A    
C33   C38   S    
C26   H1    S    
O51   Zn6   S    
C69   C91   S    
C60   H66   S    
O15   Zn3   S    
C37   C100  S    
C91   H34   S    
C52   C56   S    
C31   C103  S    
C48   H64   S    
C39   H22   S    
O11   Zn7   S    
