data_mof_unit_42316.cif
_audit_creation_date              2012-12-10T17:24:16-0500
_audit_creation_method            fapswitch 2.2
_symmetry_space_group_name_H-M    P1
_symmetry_Int_Tables_number       1
_space_group_crystal_system       triclinic
_cell_length_a                    10.084816
_cell_length_b                    10.58973
_cell_length_c                    16.652918
_cell_angle_alpha                 90.959953
_cell_angle_beta                  77.860491
_cell_angle_gamma                 95.550828
_cell_volume                      1730.52247279

loop_
_atom_site_label
_atom_site_type_symbol
_atom_type_description
_atom_site_fract_x
_atom_site_fract_y
_atom_site_fract_z
_atom_type_partial_charge
C1    C     C_R   0.557094 0.734528 0.497273 0.818176
C2    C     C_R   0.515043 0.492130 0.345131 0.966296
C3    C     C_R   0.465187 0.453714 0.740940 -0.225017
C4    C     C_R   0.513995 0.455318 0.260468 -0.217413
C5    C     C_R   0.563845 0.383792 0.764277 0.494879
C6    C     C_R   0.396836 0.388796 0.240831 0.508328
C7    C     C_R   0.534804 0.326223 0.841310 -0.338216
C8    C     C_R   0.408389 0.330046 0.164426 -0.318863
C9    C     C_R   0.419588 0.352206 0.899954 0.001987
C10   C     C_R   0.526594 0.353600 0.103454 0.027775
C11   C     C_R   0.318208 0.417370 0.875959 0.524217
C12   C     C_R   0.442503 0.265524 0.507704 0.836849
C13   C     C_R   0.641282 0.425574 0.121625 0.532698
C14   C     C_R   0.342720 0.468695 0.796987 -0.345767
C15   C     C_R   0.635919 0.470705 0.201484 -0.370588
C16   C     C_2   0.412806 0.328669 0.987781 -0.208241
C17   C     C_2   0.525080 0.318524 0.018054 -0.176752
C18   C     C_3   0.799244 0.416185 0.737552 0.099950
C19   C     C_3   0.812686 0.561962 0.735154 -0.384736
C20   C     C_3   0.947471 0.616964 0.755248 -0.944671
C21   C     C_3   0.166117 0.414460 0.273534 0.096640
C22   C     C_3   0.172906 0.559955 0.276923 -0.392189
C23   C     C_2   0.589214 0.869946 0.507467 0.242185
C24   C     C_3   0.043915 0.607571 0.258969 -0.869821
C25   C     C_3   0.110721 0.329747 0.948273 0.065524
C26   C     C_3   0.006358 0.320438 0.893250 -0.346166
C27   C     C_3   0.907834 0.200781 0.912574 -0.918765
C28   C     C_3   0.790356 0.573295 0.040136 0.052424
C29   C     C_3   0.707614 0.608313 0.977677 -0.383125
C30   C     C_3   0.746969 0.744991 0.947906 -0.915941
C31   C     C_2   0.408319 0.130421 0.523346 0.237419
C32   C     C_2   0.491400 0.932579 0.554299 -0.221596
C33   C     C_2   0.497938 0.069355 0.553724 -0.210417
C34   C     C_2   0.929964 0.517704 0.501580 -0.121918
C35   C     C_2   0.072081 0.486151 0.495002 -0.146210
C36   C     C_R   0.481840 0.494979 0.655310 0.887208
H1    H     H_    0.726957 0.518444 0.217278 0.186182
H2    H     H_    0.895244 0.600185 0.536053 0.161990
H3    H     H_    0.116607 0.628000 0.566530 0.193389
H4    H     H_    0.881793 0.369198 0.436134 0.194442
H5    H     H_    0.890400 0.382510 0.696253 0.182161
H6    H     H_    0.800564 0.382656 0.800093 0.116636
H7    H     H_    0.806704 0.595071 0.673447 0.238882
H8    H     H_    0.727642 0.598530 0.780243 0.213557
H9    H     H_    0.952487 0.590567 0.818645 0.264202
H10   H     H_    0.956198 0.722020 0.750538 0.283919
H11   H     H_    0.034695 0.580926 0.711764 0.260796
H12   H     H_    0.265243 0.520168 0.779591 0.194485
H13   H     H_    0.071477 0.375057 0.315802 0.173253
H14   H     H_    0.155915 0.380607 0.211390 0.124348
H15   H     H_    0.185342 0.593321 0.338679 0.263346
H16   H     H_    0.262147 0.601319 0.230861 0.218338
H17   H     H_    0.030194 0.576910 0.196860 0.255463
H18   H     H_    0.052193 0.712829 0.261279 0.297170
H19   H     H_    0.953217 0.570373 0.305461 0.271399
H20   H     H_    0.055365 0.334702 0.013254 0.186323
H21   H     H_    0.163755 0.241235 0.942873 0.129413
H22   H     H_    0.947702 0.404806 0.903182 0.235025
H23   H     H_    0.623187 0.311506 0.977634 0.189678
H24   H     H_    0.059764 0.318587 0.827732 0.215968
H25   H     H_    0.964381 0.114945 0.903132 0.267624
H26   H     H_    0.834404 0.194897 0.871238 0.250693
H27   H     H_    0.850069 0.202664 0.977144 0.284532
H28   H     H_    0.900377 0.588237 0.010908 0.187386
H29   H     H_    0.774744 0.638481 0.093799 0.145768
H30   H     H_    0.725608 0.543135 0.924389 0.227315
H31   H     H_    0.597162 0.597478 0.006224 0.230690
H32   H     H_    0.724617 0.811641 0.000160 0.271378
H33   H     H_    0.687319 0.766512 0.901703 0.268136
H34   H     H_    0.318864 0.346481 0.029773 0.174944
H35   H     H_    0.857105 0.759304 0.919056 0.267850
H36   H     H_    0.105686 0.181999 0.501582 0.371283
H37   H     H_    0.896401 0.808010 0.434567 0.374391
H38   H     H_    0.323921 0.267051 0.152156 0.167427
H39   H     H_    0.605232 0.263549 0.855344 0.160059
H40   H     H_    0.588073 0.120484 0.569059 0.212026
H41   H     H_    0.395727 0.882515 0.585546 0.197080
H42   H     H_    0.109083 0.407718 0.456982 0.207700
N1    N     N_2   0.846390 0.448330 0.467170 -0.182564
N2    N     N_2   0.153610 0.551670 0.532830 -0.192534
O1    O     O_R   0.430310 0.692580 0.506610 -0.598912
O2    O     O_3   0.277365 0.368245 0.300107 -0.595878
O3    O     O_3   0.199992 0.442359 0.930834 -0.659872
O4    O     O_3   0.760957 0.443524 0.062526 -0.667220
O5    O     O_2   0.299952 0.949032 0.435519 -0.242945
O6    O     O_2   0.168645 0.991693 0.572397 -0.324622
O7    O     O_3   0.174694 0.153279 0.455162 -0.483656
O8    O     O_2   0.723560 0.049423 0.401033 -0.248923
O9    O     O_2   0.823619 0.005693 0.517877 -0.294470
O10   O     O_3   0.843575 0.843207 0.397770 -0.519453
O11   O     O_R   0.569690 0.307420 0.493390 -0.591756
O12   O     O_R   0.652740 0.659410 0.485540 -0.594888
O13   O     O_R   0.347260 0.340590 0.514460 -0.581287
O14   O     O_R   0.375640 0.518570 0.627580 -0.627229
O15   O     O_R   0.624360 0.481430 0.372420 -0.603420
O16   O     O_R   0.598070 0.485390 0.606510 -0.565253
O17   O     O_R   0.401930 0.514610 0.393490 -0.567243
O18   O     O_3   0.683278 0.362607 0.708941 -0.613023
S1    S     S_3+6 0.259864 0.051618 0.496781 0.059959
S2    S     S_3+6 0.748087 0.946524 0.455739 0.053160
Zn1   Zn    Zn3+2 0.351480 0.522150 0.514070 0.987935
Zn2   Zn    Zn3+2 0.648520 0.477850 0.485930 1.001299

loop_
_geom_bond_atom_site_label_1
_geom_bond_atom_site_label_2
_ccdc_geom_bond_type
C6    O2    S    
O16   Zn2   S    
C28   O4    S    
C12   O11   A    
C19   C20   S    
C25   H20   S    
H36   O7    S    
C21   H13   S    
C30   H35   S    
O1    Zn1   S    
C24   H19   S    
C13   O4    S    
C26   C27   S    
C28   C29   S    
C9    C16   S    
H37   O10   S    
C18   C19   S    
C18   H6    S    
C11   C14   A    
C10   C17   S    
C24   H18   S    
C35   N2    D    
C34   C35   S    
C15   H1    S    
C27   H25   S    
C32   H41   S    
C29   H31   S    
O14   Zn1   S    
C16   C17   D    
C31   C33   D    
N1    Zn2   S    
C31   S1    S    
C20   H9    S    
O15   Zn2   S    
O12   Zn2   S    
C23   S2    S    
C21   C22   S    
C25   H21   S    
O10   S2    S    
C21   H14   S    
C19   H7    S    
O7    S1    S    
O9    S2    D    
C16   H34   S    
C2    O17   A    
C4    C6    A    
C18   H5    S    
O13   Zn1   S    
C5    C7    A    
C6    C8    A    
C11   O3    S    
C24   H17   S    
C32   C33   S    
C2    C4    S    
C29   C30   S    
O5    S1    D    
C27   H26   S    
C34   N1    D    
C26   H22   S    
C36   O16   A    
C33   H40   S    
O17   Zn1   S    
C8    H38   S    
H4    N1    S    
C21   O2    S    
O6    S1    D    
C9    C11   A    
O8    S2    D    
C3    C14   A    
C27   H27   S    
C17   H23   S    
C28   H28   S    
C1    C23   S    
C1    O12   A    
C13   C15   A    
C12   C31   S    
C22   C24   S    
C12   O13   A    
O11   Zn2   S    
C30   H33   S    
C19   H8    S    
C22   H16   S    
C7    C9    A    
C2    O15   A    
C34   H2    S    
C3    C5    A    
C10   C13   A    
C7    H39   S    
C35   H42   S    
N2    Zn1   S    
H3    N2    S    
C4    C15   A    
C28   H29   S    
C25   C26   S    
C23   C32   D    
C26   H24   S    
C3    C36   S    
C20   H10   S    
C20   H11   S    
C29   H30   S    
C36   O14   A    
C5    O18   S    
C8    C10   A    
C25   O3    S    
C14   H12   S    
C18   O18   S    
C1    O1    A    
C30   H32   S    
C22   H15   S    
