data_mof_unit_46829.cif
_audit_creation_date              2012-12-10T18:18:21-0500
_audit_creation_method            fapswitch 2.2
_symmetry_space_group_name_H-M    P1
_symmetry_Int_Tables_number       1
_space_group_crystal_system       triclinic
_cell_length_a                    14.171046
_cell_length_b                    14.970515
_cell_length_c                    15.464916
_cell_angle_alpha                 88.551968
_cell_angle_beta                  66.331371
_cell_angle_gamma                 90.378718
_cell_volume                      3003.40952699

loop_
_atom_site_label
_atom_site_type_symbol
_atom_type_description
_atom_site_fract_x
_atom_site_fract_y
_atom_site_fract_z
_atom_type_partial_charge
C1    C     C_R   0.500238 0.672419 0.499678 0.867512
C2    C     C_R   0.499714 0.327599 0.500335 0.866069
C3    C     C_R   0.377089 0.527717 0.110889 0.441646
C4    C     C_R   0.621105 0.532394 0.891029 0.436582
C5    C     C_R   0.301573 0.516292 0.073788 0.350042
C6    C     C_R   0.694041 0.551925 0.929271 0.332547
C7    C     C_R   0.459815 0.184405 0.588041 0.447768
C8    C     C_R   0.542614 0.815503 0.411492 0.441484
C9    C     C_R   0.499260 0.232298 0.501312 -0.236123
C10   C     C_R   0.500577 0.767717 0.498239 -0.240290
C11   C     C_R   0.541081 0.190162 0.414860 -0.078310
C12   C     C_R   0.455509 0.810184 0.584201 -0.084045
C13   C     C_R   0.531876 0.096807 0.413064 0.017706
C14   C     C_R   0.466714 0.903204 0.586084 0.019954
C15   C     C_R   0.499922 0.046918 0.499923 -0.086445
C16   C     C_R   0.500499 0.953110 0.499235 -0.084690
C17   C     C_R   0.466275 0.090890 0.587610 0.024846
C18   C     C_R   0.535410 0.908995 0.411642 0.026487
C19   C     C_R   0.553036 0.051937 0.327788 -0.157991
C20   C     C_R   0.445869 0.947514 0.671481 -0.158829
C21   C     C_R   0.560909 0.958657 0.326067 0.452439
C22   C     C_R   0.440668 0.040954 0.673150 0.454412
C23   C     C_R   0.434714 0.501878 0.676766 0.853444
C24   C     C_R   0.565655 0.497868 0.323036 0.883837
C25   C     C_R   0.182266 0.430762 0.542638 0.051095
C26   C     C_R   0.819431 0.565952 0.451360 0.026441
C27   C     C_R   0.222536 0.567917 0.454447 0.031572
C28   C     C_R   0.776630 0.434051 0.548009 0.050604
C29   C     C_R   0.119147 0.574053 0.460092 -0.079671
C30   C     C_R   0.880822 0.426365 0.538893 -0.080603
C31   C     C_R   0.051048 0.499627 0.498220 0.066341
C32   C     C_R   0.949766 0.499809 0.498548 0.068711
C33   C     C_R   0.084685 0.424597 0.535339 -0.061692
C34   C     C_R   0.917037 0.573261 0.458435 -0.056315
C35   C     C_R   0.080896 0.651721 0.430562 -0.056855
C36   C     C_R   0.919280 0.347590 0.565469 -0.054799
C37   C     C_R   0.981730 0.651036 0.428943 -0.050275
C38   C     C_R   0.020459 0.346110 0.561957 -0.046009
C39   C     C_R   0.392350 0.510380 0.780088 -0.329141
C40   C     C_R   0.609439 0.498329 0.218779 -0.338854
C41   C     C_R   0.261185 0.486293 0.938396 -0.066252
C42   C     C_R   0.737774 0.548805 0.066337 -0.064766
C43   C     C_R   0.292916 0.478437 0.841261 0.380374
C44   C     C_R   0.711034 0.528825 0.161907 0.383418
C45   C     C_R   0.456393 0.548638 0.819880 0.508955
C46   C     C_R   0.541664 0.479737 0.175152 0.493030
C47   C     C_R   0.436108 0.528837 0.914871 -0.005995
C48   C     C_R   0.561538 0.517681 0.085426 0.007003
C49   C     C_R   0.332792 0.508904 0.976298 -0.132720
C50   C     C_R   0.664401 0.542140 0.026959 -0.123967
C51   C     C_R   0.513918 0.531840 0.950761 -0.078341
C52   C     C_R   0.483671 0.525509 0.049940 -0.069788
H1    H     H_    0.182578 0.467407 0.984155 0.231205
H2    H     H_    0.816888 0.568271 0.022916 0.232979
N1    N     N_R   0.249980 0.499930 0.499960 -0.139578
N2    N     N_R   0.750020 0.500070 0.500040 -0.140161
O1    O     O_R   0.419720 0.632140 0.499980 -0.617912
O2    O     O_R   0.580280 0.367860 0.500020 -0.620622
O3    O     O_R   0.580270 0.632160 0.499970 -0.619047
O4    O     O_R   0.419730 0.367840 0.500030 -0.623451
O5    O     O_R   0.373870 0.499980 0.632250 -0.596553
O6    O     O_R   0.626130 0.500020 0.367750 -0.612653
O7    O     O_R   0.534420 0.500000 0.632240 -0.578000
O8    O     O_R   0.465580 0.500000 0.367760 -0.583430
Zn1   Zn    Zn3+2 0.392800 0.499980 0.500010 0.985786
Zn2   Zn    Zn3+2 0.607200 0.500020 0.499990 0.981018
O9    O     O_3   0.197199 0.515878 0.130184 -0.758704
H3    H     H_    0.184456 0.557237 0.182500 0.345857
O10   O     O_3   0.795653 0.572996 0.872225 -0.756991
H4    H     H_    0.799079 0.597813 0.810970 0.354766
C53   C     C_1   0.210138 0.365924 0.598186 0.278050
N3    N     N_1   0.230853 0.312248 0.642525 -0.171103
C54   C     C_1   0.793587 0.623258 0.388097 0.292318
N4    N     N_1   0.773634 0.669360 0.336842 -0.106155
C55   C     C_1   0.303231 0.628180 0.393952 0.340191
N5    N     N_1   0.367881 0.676259 0.344635 -0.126843
C56   C     C_1   0.695074 0.377196 0.613113 0.314535
N6    N     N_1   0.629727 0.331946 0.666004 -0.143267
C57   C     C_1   0.137595 0.736452 0.410211 0.184561
N7    N     N_1   0.181714 0.804369 0.394258 -0.152972
C58   C     C_1   0.860500 0.263854 0.586604 0.179282
N8    N     N_1   0.814598 0.196816 0.603140 -0.152593
C59   C     C_1   0.944185 0.734706 0.405932 0.189502
N9    N     N_1   0.915029 0.801767 0.387873 -0.153487
C60   C     C_1   0.059744 0.259941 0.576325 0.194268
N10   N     N_1   0.090087 0.190835 0.587412 -0.152981
O11   O     O_3   0.461538 0.417947 0.214468 -0.718099
H5    H     H_    0.475112 0.378575 0.260540 0.339981
O12   O     O_3   0.532714 0.611321 0.770746 -0.689156
H6    H     H_    0.518844 0.637838 0.717824 0.335992
O13   O     O_3   0.787145 0.536638 0.195292 -0.725440
H7    H     H_    0.781340 0.483697 0.236906 0.356825
O14   O     O_3   0.225061 0.439582 0.809743 -0.713573
H8    H     H_    0.266126 0.401324 0.757428 0.353222
O15   O     O_3   0.348700 0.545331 0.205060 -0.741391
H9    H     H_    0.285766 0.509665 0.242862 0.347983
O16   O     O_3   0.653291 0.504393 0.799169 -0.721315
H10   H     H_    0.725078 0.483263 0.776839 0.334013
O17   O     O_3   0.416470 0.226721 0.673780 -0.675593
H11   H     H_    0.418968 0.292426 0.665650 0.316955
O18   O     O_3   0.588643 0.773149 0.326044 -0.668160
H12   H     H_    0.582465 0.707441 0.334079 0.330988
C61   C     C_1   0.602024 0.243396 0.330317 0.188230
N11   N     N_1   0.651088 0.285866 0.263483 -0.209240
C62   C     C_1   0.388593 0.758369 0.667550 0.189194
N12   N     N_1   0.334618 0.717185 0.733451 -0.177153
C63   C     C_1   0.552416 0.098470 0.244436 0.211234
N13   N     N_1   0.551556 0.135039 0.177897 -0.146070
C64   C     C_1   0.444299 0.899599 0.754964 0.210539
N14   N     N_1   0.443406 0.861809 0.821545 -0.142556
O19   O     O_3   0.586637 0.914333 0.242248 -0.665561
H13   H     H_    0.629625 0.953866 0.188243 0.342608
O20   O     O_3   0.416625 0.085023 0.756907 -0.666055
H14   H     H_    0.373300 0.045880 0.811122 0.342231

loop_
_geom_bond_atom_site_label_1
_geom_bond_atom_site_label_2
_ccdc_geom_bond_type
C6    O10   S    
O11   H5    S    
O14   H8    S    
C27   C29   A    
C34   C37   A    
C54   N4    T    
O15   H9    S    
C5    O9    S    
C58   N8    T    
C28   N2    A    
C47   C49   A    
C56   N6    T    
C40   C46   A    
O18   H12   S    
C7    O17   S    
C35   C37   A    
O20   H14   S    
C1    O3    A    
O3    Zn2   S    
C12   C62   S    
C2    O4    A    
C23   O7    A    
C15   C16   A    
C18   C21   A    
C26   C54   S    
C15   C17   A    
N1    Zn1   S    
C26   C34   A    
C22   O20   S    
C59   N9    T    
C7    C17   A    
C63   N13   T    
C31   C33   A    
C25   C53   S    
C45   O12   S    
C8    O18   S    
C39   C45   A    
C48   C50   A    
O7    Zn2   S    
C24   O8    A    
C4    O16   S    
C41   C43   A    
C5    C49   A    
N2    Zn2   S    
C42   C44   A    
C27   C55   S    
C41   C49   A    
C21   O19   S    
O2    Zn2   S    
O16   H10   S    
C45   C47   A    
C46   C48   A    
O6    Zn2   S    
C4    C51   A    
C51   C52   A    
C14   C20   A    
C4    C6    A    
O1    Zn1   S    
O13   H7    S    
C13   C19   A    
C39   C43   A    
C38   C60   S    
C60   N10   T    
C8    C18   A    
O9    H3    S    
C32   C34   A    
C55   N5    T    
C1    O1    A    
C31   C32   A    
C48   C52   A    
C36   C58   S    
C6    C50   A    
C28   C56   S    
C9    C11   A    
C41   H1    S    
C44   O13   S    
C10   C12   A    
C42   C50   A    
C16   C18   A    
C12   C14   A    
O4    Zn1   S    
C20   C64   S    
C13   C15   A    
C14   C16   A    
C36   C38   A    
C46   O11   S    
C23   O5    A    
C7    C9    A    
C24   C40   S    
C24   O6    A    
O19   H13   S    
C19   C21   A    
C1    C10   S    
C25   N1    A    
C20   C22   A    
C3    C5    A    
C26   N2    A    
C47   C51   A    
C3    C52   A    
C2    O2    A    
C11   C61   S    
C62   N12   T    
C29   C35   A    
C17   C22   A    
O17   H11   S    
C30   C36   A    
O8    Zn1   S    
C28   C30   A    
C53   N3    T    
C29   C31   A    
C64   N14   T    
C42   H2    S    
C30   C32   A    
C11   C13   A    
C23   C39   S    
C35   C57   S    
C43   O14   S    
C27   N1    A    
O10   H4    S    
C57   N7    T    
O5    Zn1   S    
C40   C44   A    
C8    C10   A    
C61   N11   T    
C37   C59   S    
C33   C38   A    
C3    O15   S    
O12   H6    S    
C2    C9    S    
C25   C33   A    
C19   C63   S    
