data_mof_unit_57244.cif
_audit_creation_date              2012-10-26T20:17:10-0400
_audit_creation_method            fapswitch 2.2
_symmetry_space_group_name_H-M    P1
_symmetry_Int_Tables_number       1
_space_group_crystal_system       triclinic
_cell_length_a                    10.641984
_cell_length_b                    11.036112
_cell_length_c                    9.840386
_cell_angle_alpha                 110.937669
_cell_angle_beta                  98.400555
_cell_angle_gamma                 91.099207
_cell_volume                      1064.62977937

loop_
_atom_site_label
_atom_site_type_symbol
_atom_type_description
_atom_site_fract_x
_atom_site_fract_y
_atom_site_fract_z
_atom_type_partial_charge
C1    C     C_R   0.490783 0.254232 0.440809 0.582290
C2    C     C_3   0.123140 0.501444 0.501564 0.043536
C3    C     C_3   0.976712 0.527541 0.638460 -0.143079
C4    C     C_3   0.023288 0.472459 0.361540 -0.143079
C5    C     C_2   0.485949 0.115026 0.407501 -0.099255
C6    C     C_2   0.514051 0.884973 0.592499 -0.099255
C7    C     C_2   0.502298 0.069536 0.516656 -0.158194
C8    C     C_2   0.497702 0.930464 0.483344 -0.158194
C9    C     C_2   0.510579 0.510754 0.081380 -0.013311
C10   C     C_2   0.489421 0.489246 0.918620 -0.013311
C11   C     C_2   0.890282 0.248996 0.316403 0.219898
C12   C     C_R   0.509217 0.745768 0.559191 0.582290
C13   C     C_2   0.109718 0.751004 0.683597 0.219898
C14   C     C_R   0.259575 0.500536 0.500850 0.589306
C15   C     C_R   0.740425 0.499464 0.499150 0.589306
C16   C     C_3   0.047868 0.410056 0.552533 -0.161301
C17   C     C_3   0.952132 0.589944 0.447467 -0.161301
C18   C     C_3   0.946639 0.382657 0.413937 0.020587
C19   C     C_3   0.053361 0.617343 0.586063 0.020587
C20   C     C_3   0.876860 0.498556 0.498436 0.043536
Cu1   Cu    Cu3+1 0.522260 0.521810 0.644920 0.976597
Cu2   Cu    Cu3+1 0.477740 0.478190 0.355080 0.976597
H1    H     H_    0.089141 0.336314 0.594991 0.109032
H2    H     H_    0.584088 0.583860 0.154549 0.142453
H3    H     H_    0.624405 0.623901 0.934790 0.202568
H4    H     H_    0.375595 0.376099 0.065209 0.202568
H5    H     H_    0.951795 0.176646 0.261065 0.094742
H6    H     H_    0.048205 0.823354 0.738935 0.094742
H7    H     H_    0.910858 0.663686 0.405008 0.109032
H8    H     H_    0.956239 0.550794 0.752145 0.125429
H9    H     H_    0.043761 0.449205 0.247855 0.125429
H10   H     H_    0.480798 0.864947 0.368491 0.157087
H11   H     H_    0.519202 0.135053 0.631509 0.157087
H12   H     H_    0.530986 0.950795 0.707153 0.118336
H13   H     H_    0.469014 0.049205 0.292847 0.118336
H14   H     H_    0.415912 0.416140 0.845451 0.142453
N1    N     N_2   0.444270 0.445410 0.137360 -0.349585
N2    N     N_2   0.555730 0.554590 0.862640 -0.349585
O1    O     O_R   0.511880 0.332340 0.577400 -0.509231
O2    O     O_2   0.223810 0.779457 0.701158 -0.493391
O3    O     O_R   0.488120 0.667660 0.422600 -0.509231
O4    O     O_R   0.474280 0.295500 0.332650 -0.470743
O5    O     O_R   0.525720 0.704500 0.667350 -0.470742
O6    O     O_R   0.335640 0.518390 0.622350 -0.472987
O7    O     O_R   0.664360 0.481610 0.377650 -0.472987
O8    O     O_R   0.298050 0.481550 0.377590 -0.510786
O9    O     O_R   0.701950 0.518450 0.622410 -0.510786
O10   O     O_2   0.776190 0.220542 0.298842 -0.493391

loop_
_geom_bond_atom_site_label_1
_geom_bond_atom_site_label_2
_ccdc_geom_bond_type
C3    H8    S    
C2    C4    S    
C11   C18   S    
C3    C19   S    
C12   O3    A    
C15   O9    A    
H3    N2    S    
C12   O5    A    
Cu1   O6    S    
C17   H7    S    
C9    C10   S    
Cu1   O1    S    
C11   H5    S    
C10   N2    D    
C4    C18   S    
C17   C20   S    
C9    N1    D    
C3    C20   S    
C13   H6    S    
H4    N1    S    
Cu1   Cu2   S    
C7    H11   S    
C11   O10   D    
Cu2   O4    S    
C1    C5    S    
C4    C17   S    
C5    H13   S    
C16   C18   S    
Cu2   O8    S    
C16   H1    S    
C18   C20   S    
C6    C12   S    
C15   C20   S    
C2    C14   S    
Cu1   O9    S    
Cu2   O3    S    
C1    O1    A    
C4    H9    S    
C1    O4    A    
C7    C8    S    
Cu2   O7    S    
C2    C16   S    
C6    C8    D    
C14   O6    A    
C5    C7    D    
C13   C19   S    
Cu1   N2    S    
C13   O2    D    
C10   H14   S    
C17   C19   S    
C2    C19   S    
Cu1   O5    S    
Cu2   N1    S    
C9    H2    S    
C3    C16   S    
C6    H12   S    
C14   O8    A    
C15   O7    A    
C8    H10   S    
