data_mof_unit_52873.cif
_audit_creation_date              2012-12-11T18:11:19-0500
_audit_creation_method            fapswitch 2.2
_symmetry_space_group_name_H-M    P1
_symmetry_Int_Tables_number       1
_space_group_crystal_system       triclinic
_cell_length_a                    8.251501
_cell_length_b                    12.825842
_cell_length_c                    18.787599
_cell_angle_alpha                 100.78278
_cell_angle_beta                  90.203919
_cell_angle_gamma                 99.900931
_cell_volume                      1922.82837861

loop_
_atom_site_label
_atom_site_type_symbol
_atom_type_description
_atom_site_fract_x
_atom_site_fract_y
_atom_site_fract_z
_atom_type_partial_charge
Ba1   Ba    Ba6+2 0.852780 0.548340 0.465070 1.706684
Ba2   Ba    Ba6+2 0.337060 0.451750 0.534940 1.767495
C1    C     C_3   0.589890 0.887904 0.247802 -0.414509
C2    C     C_R   0.905664 0.376115 0.095226 -0.085193
C3    C     C_R   0.771906 0.397401 0.954546 -0.090232
C4    C     C_3   0.136946 0.754090 0.264748 0.358630
C5    C     C_R   0.938781 0.436125 0.976598 0.010201
C6    C     C_R   0.712570 0.401015 0.885920 -0.075282
C7    C     C_R   0.816521 0.440805 0.835019 -0.063318
C8    C     C_R   0.982908 0.487713 0.856584 0.015816
C9    C     C_R   0.043828 0.485681 0.927866 0.042195
C10   C     C_R   0.755118 0.444509 0.765368 -0.091446
C11   C     C_R   0.854876 0.510251 0.725032 0.169818
C12   C     C_3   0.639416 0.813303 0.294817 0.345428
C13   C     C_R   0.024582 0.542924 0.737392 0.000054
C14   C     C_R   0.086267 0.540145 0.807973 -0.057252
C15   C     C_R   0.163743 0.483027 0.069903 0.034693
C16   C     C_3   0.121776 0.775374 0.188257 -0.374353
C17   C     C_R   0.221576 0.486026 0.142477 -0.000714
C18   C     C_R   0.116421 0.438500 0.191996 -0.037605
C19   C     C_R   0.962683 0.378829 0.165539 -0.029712
C20   C     C_R   0.240964 0.597496 0.834486 0.034547
C21   C     C_R   0.301559 0.593884 0.903117 -0.094779
C22   C     C_R   0.207659 0.535840 0.950535 0.005307
C23   C     C_3   0.459185 0.271208 0.316101 0.309861
C24   C     C_R   0.269228 0.531895 0.021113 -0.000615
C25   C     C_R   0.434495 0.574017 0.044516 -0.093717
C26   C     C_R   0.384821 0.536284 0.165432 -0.039673
C27   C     C_R   0.490369 0.576387 0.114843 -0.100241
C28   C     C_3   0.241302 0.786637 0.620307 0.271612
C29   C     C_R   0.437612 0.544713 0.238350 -0.003727
C30   C     C_R   0.327856 0.505885 0.287661 -0.298985
C31   C     C_R   0.169359 0.451408 0.265998 0.027540
C32   C     C_R   0.763800 0.182543 0.528874 -0.266987
C33   C     C_R   0.429421 0.805067 0.468099 -0.284447
C34   C     C_3   0.440877 0.234813 0.234217 -0.400223
C35   C     C_R   0.405522 0.980784 0.443826 -0.103357
C36   C     C_R   0.340848 0.872715 0.439553 -0.007220
C37   C     C_R   0.580421 0.846107 0.505943 0.023119
C38   C     C_R   0.647649 0.958380 0.510683 -0.018077
C39   C     C_R   0.556880 0.026115 0.480138 -0.055681
C40   C     C_3   0.258402 0.908845 0.637939 -0.293816
C41   C     C_R   0.617765 0.138397 0.488478 0.034639
C42   C     C_R   0.859165 0.116466 0.554159 -0.056648
C43   C     C_R   0.802454 0.005864 0.544761 -0.081400
C44   C     C_3   0.962740 0.213850 0.379779 0.284154
C45   C     C_3   0.979462 0.197267 0.726075 0.385255
C46   C     C_3   0.925302 0.091571 0.360235 -0.381776
C47   C     C_3   0.708660 0.896014 0.678664 0.477285
C48   C     C_3   0.665295 0.922114 0.758570 0.433210
C49   C     C_3   0.031218 0.208705 0.805314 -0.321530
C50   C     C_3   0.539327 0.190623 0.761893 0.291091
C51   C     C_3   0.460913 0.144799 0.825600 -0.342072
C52   C     C_R   0.000588 0.431995 0.047033 0.007942
H1    H     H_    0.728906 0.860771 0.338109 0.072472
H2    H     H_    0.636460 0.941829 0.650119 -0.217790
H3    H     H_    0.842430 0.922539 0.673662 0.000882
H4    H     H_    0.530086 0.950622 0.281190 0.095360
H5    H     H_    0.539723 0.879679 0.766932 0.036068
H6    H     H_    0.666437 0.009315 0.771874 -0.164971
H7    H     H_    0.527350 0.779986 0.321349 -0.054910
H8    H     H_    0.501943 0.840824 0.203824 0.121955
H9    H     H_    0.339061 0.288926 0.336796 0.010220
H10   H     H_    0.553881 0.345648 0.328103 0.056947
H11   H     H_    0.344906 0.161318 0.220263 0.130630
H12   H     H_    0.138427 0.931711 0.654469 0.136087
H13   H     H_    0.404385 0.299368 0.209045 0.057976
H14   H     H_    0.559728 0.216760 0.212025 0.124440
H15   H     H_    0.700076 0.927391 0.223009 0.140581
H16   H     H_    0.159587 0.708993 0.148695 0.079109
H17   H     H_    0.960375 0.277882 0.717330 -0.070882
H18   H     H_    0.862491 0.138702 0.714334 -0.056084
H19   H     H_    0.929721 0.230153 0.840556 0.043873
H20   H     H_    0.061801 0.131748 0.815469 0.156363
H21   H     H_    0.140980 0.273240 0.819375 0.128913
H22   H     H_    0.665008 0.234216 0.778559 -0.077302
H23   H     H_    0.350604 0.943152 0.682910 0.111205
H24   H     H_    0.550681 0.123790 0.716322 0.046948
H25   H     H_    0.360952 0.075519 0.805440 0.145192
H26   H     H_    0.407438 0.206983 0.862716 0.109811
H27   H     H_    0.052632 0.677939 0.268151 0.095261
H28   H     H_    0.554012 0.118175 0.857509 0.098559
H29   H     H_    0.582185 0.375351 0.873867 0.068629
H30   H     H_    0.883151 0.333549 0.198776 0.102377
H31   H     H_    0.316950 0.647914 0.803080 0.131710
H32   H     H_    0.618087 0.610456 0.128788 0.115761
H33   H     H_    0.368643 0.514692 0.343603 0.065640
H34   H     H_    0.297953 0.943661 0.589836 0.078979
H35   H     H_    0.681213 0.367418 0.990294 0.069129
H36   H     H_    0.786351 0.327530 0.079873 0.062450
H37   H     H_    0.421627 0.641359 0.918386 0.102999
H38   H     H_    0.265518 0.744513 0.274869 -0.072473
H39   H     H_    0.525697 0.604783 0.009253 0.089122
H40   H     H_    0.332353 0.029077 0.420619 0.097992
H41   H     H_    0.882404 0.958841 0.564218 0.084692
H42   H     H_    0.809773 0.268259 0.535926 0.057699
H43   H     H_    0.375716 0.721069 0.464633 0.053446
H44   H     H_    0.992405 0.780454 0.175158 0.158332
H45   H     H_    0.855821 0.244392 0.405499 -0.000844
H46   H     H_    0.202221 0.852424 0.183514 0.120377
H47   H     H_    0.357730 0.764209 0.600327 0.003765
H48   H     H_    0.143199 0.755608 0.577293 0.036525
H49   H     H_    0.833725 0.054596 0.891019 0.311198
H50   H     H_    0.918265 0.729960 0.651952 0.328446
H51   H     H_    0.070529 0.237750 0.418082 0.077118
H52   H     H_    0.807890 0.065951 0.327953 0.110548
H53   H     H_    0.914147 0.056375 0.409753 0.086318
H54   H     H_    0.025906 0.060872 0.328183 0.147678
O1    O     O_2   0.873090 0.425890 0.325140 -0.463912
O2    O     O_2   0.199710 0.124148 0.550607 -0.472524
O3    O     O_3   0.102054 0.158583 0.682436 -0.556079
O4    O     O_3   0.122420 0.434370 0.414380 -0.510473
O5    O     O_3   0.578370 0.633800 0.536380 -0.395634
O6    O     O_2   0.341510 0.231850 0.465510 -0.475110
O7    O     O_3   0.506882 0.188630 0.346549 -0.649986
O8    O     O_2   0.417290 0.451844 0.754485 -0.441672
O9    O     O_3   0.434625 0.253433 0.738438 -0.560062
O10   O     O_3   0.659500 0.627100 0.368810 -0.482070
O11   O     O_2   0.776328 0.540471 0.244092 -0.491503
O12   O     O_3   0.663142 0.785275 0.651190 -0.555463
O13   O     O_3   0.994635 0.253886 0.316169 -0.641578
O14   O     O_3   0.715068 0.734692 0.251402 -0.598048
O15   O     O_2   0.848200 0.768190 0.534530 -0.508993
O16   O     O_3   0.081160 0.685950 0.404810 -0.490543
O17   O     O_2   0.005844 0.877952 0.448643 -0.490791
O18   O     O_2   0.763179 0.783440 0.834916 -0.206593
O19   O     O_2   0.981608 0.914403 0.796097 -0.301336
O20   O     O_3   0.800495 0.981338 0.901743 -0.502590
O21   O     O_2   0.735340 0.546617 0.609073 -0.294468
O22   O     O_2   0.606257 0.616694 0.722351 -0.237450
O23   O     O_3   0.094387 0.840724 0.314326 -0.596588
O24   O     O_3   0.889533 0.716966 0.700685 -0.481864
O25   O     O_2   0.316610 0.574140 0.674900 -0.404411
O26   O     O_3   0.067290 0.565720 0.585630 -0.491107
O27   O     O_3   0.530210 0.372990 0.631200 -0.402780
O28   O     O_3   0.205671 0.746326 0.683810 -0.586067
O29   O     O_3   0.611340 0.366290 0.463630 -0.458007
O30   O     O_3   0.108550 0.314140 0.595200 -0.481117
P1    P     P_3+3 0.041040 0.394770 0.336330 0.963457
P2    P     P_3+3 0.672880 0.754030 0.556100 1.066280
P3    P     P_3+3 0.131204 0.821481 0.402376 0.944381
P4    P     P_3+3 0.148670 0.605320 0.663680 1.090544
P5    P     P_3+3 0.065856 0.175928 0.594127 0.982287
P6    P     P_3+3 0.646784 0.608978 0.274617 0.940542
P7    P     P_3+3 0.522739 0.229230 0.441001 0.940316
P8    P     P_3+3 0.541086 0.378428 0.725317 1.045529
S1    S     S_3+6 0.808921 0.896830 0.822315 -0.030911
S2    S     S_3+6 0.763106 0.597593 0.687186 -0.030122

loop_
_geom_bond_atom_site_label_1
_geom_bond_atom_site_label_2
_ccdc_geom_bond_type
C48   S1    S    
C16   H16   S    
C44   H45   S    
C12   O14   S    
C25   C27   A    
C6    H29   S    
C17   C18   A    
C49   H20   S    
O14   P6    S    
C34   H13   S    
C42   C43   A    
C5    C9    A    
Ba2   O4    S    
O25   P4    D    
Ba2   O26   S    
Ba1   O5    S    
C48   H5    S    
O29   P7    S    
C26   C27   A    
C1    H15   S    
C32   H42   S    
O10   P6    S    
O30   P5    S    
C23   O7    S    
Ba1   O4    S    
Ba2   O5    S    
C45   O3    S    
C47   O12   S    
C13   C14   A    
C44   H51   S    
C9    C22   A    
C47   H3    S    
C51   H25   S    
Ba1   Ba2   S    
C23   H9    S    
C20   H31   S    
C10   P8    S    
C29   P6    S    
O21   S2    D    
O28   P4    S    
Ba1   O1    S    
C46   H52   S    
O17   P3    D    
C6    C7    A    
C21   C22   A    
C44   O13   S    
O12   P2    S    
C7    C8    A    
O23   P3    S    
O3    P5    S    
C50   O9    S    
C12   H1    S    
C4    H27   S    
O11   P6    D    
C39   C41   A    
O4    P1    S    
C28   H48   S    
C16   H46   S    
C50   H24   S    
C2    H36   S    
C38   C43   A    
C4    C16   S    
C44   C46   S    
Ba2   O25   S    
O22   S2    D    
O24   S2    S    
C33   C36   A    
C32   C42   A    
C37   C38   A    
C3    C5    A    
C34   H11   S    
C45   C49   S    
C12   H7    S    
O15   P2    D    
C51   H28   S    
C23   H10   S    
Ba2   O30   S    
C33   C37   A    
Ba1   O15   S    
C35   C36   A    
C41   P7    S    
O26   P4    S    
C13   P4    S    
C29   C30   A    
C19   H30   S    
O27   P8    S    
C51   H26   S    
C24   C25   A    
O5    P2    S    
C18   C19   A    
C17   C26   A    
Ba1   P2    S    
C45   H17   S    
C27   H32   S    
C1    C12   S    
C18   C31   A    
C38   C39   A    
C28   O28   S    
C11   C13   A    
Ba2   P4    S    
C36   P3    S    
C21   H37   S    
O16   P3    S    
C25   H39   S    
C40   H34   S    
C15   C24   A    
Ba1   O26   S    
C43   H41   S    
Ba1   O29   S    
C50   C51   S    
C1    H8    S    
H49   O20   S    
C37   P2    S    
C14   C20   A    
C2    C52   A    
Ba2   O29   S    
C26   C29   A    
C28   C40   S    
C32   C41   A    
C49   H19   S    
O6    P7    D    
C49   H21   S    
C4    O23   S    
C50   H22   S    
Ba1   P1    S    
C3    C6    A    
O18   S1    D    
C34   H14   S    
O20   S1    S    
C47   H2    S    
O7    P7    S    
Ba2   O27   S    
C5    C52   A    
O1    P1    D    
C48   H6    S    
C30   C31   A    
O13   P1    S    
Ba1   O16   S    
C8    C14   A    
O8    P8    D    
C2    C19   A    
Ba2   O6    S    
C22   C24   A    
C46   H54   S    
C31   P1    S    
C42   P5    S    
C4    H38   S    
C28   H47   S    
C15   C17   A    
C35   H40   S    
Ba1   O10   S    
C35   C39   A    
O2    P5    D    
C7    C10   A    
C45   H18   S    
C8    C9    A    
C23   C34   S    
C46   H53   S    
C1    H4    S    
C30   H33   S    
C10   C11   A    
C40   H23   S    
C47   C48   S    
H50   O24   S    
C40   H12   S    
C20   C21   A    
O9    P8    S    
C16   H44   S    
C11   S2    S    
C33   H43   S    
C15   C52   A    
C3    H35   S    
O19   S1    D    
