data_mof_unit_7258.cif
_audit_creation_date              2012-12-11T15:12:43-0500
_audit_creation_method            fapswitch 2.2
_symmetry_space_group_name_H-M    P1
_symmetry_Int_Tables_number       1
_space_group_crystal_system       triclinic
_cell_length_a                    22.346371
_cell_length_b                    6.941377
_cell_length_c                    19.379282
_cell_angle_alpha                 89.995588
_cell_angle_beta                  99.203816
_cell_angle_gamma                 89.994403
_cell_volume                      2967.30874875

loop_
_atom_site_label
_atom_site_type_symbol
_atom_type_description
_atom_site_fract_x
_atom_site_fract_y
_atom_site_fract_z
_atom_type_partial_charge
O1    O     O_R   0.448420 0.506120 0.415750 -0.535995
O2    O     O_R   0.551580 0.006120 0.584250 -0.536026
O3    O     O_R   0.436490 0.174470 0.555610 -0.535336
O4    O     O_R   0.563510 0.674470 0.444390 -0.535329
C1    C     C_R   0.421086 0.344689 0.575774 0.711795
C2    C     C_R   0.578915 0.844686 0.424226 0.711808
O5    O     O_R   0.441310 0.176330 0.414520 -0.537346
O6    O     O_R   0.558690 0.676330 0.585480 -0.537332
O7    O     O_R   0.556430 0.007110 0.442150 -0.532886
O8    O     O_R   0.443570 0.507110 0.557850 -0.532861
C3    C     C_R   0.426775 0.345105 0.388369 0.686371
C4    C     C_R   0.573230 0.845071 0.611630 0.686337
O9    O     O_3   0.537770 0.339560 0.509230 -0.365263
O10   O     O_3   0.462230 0.839560 0.490770 -0.365238
V1    V     V_3+5 0.492990 0.064280 0.498290 1.444182
V2    V     V_3+5 0.507010 0.564280 0.501710 1.444248
C5    C     C_R   0.867104 0.975498 0.695645 -0.162549
C6    C     C_R   0.132780 0.473041 0.304427 -0.162501
H1    H     H_    0.954251 0.002395 0.759675 0.102186
H2    H     H_    0.045625 0.499878 0.240399 0.102138
H3    H     H_    0.784896 0.971044 0.580877 0.119498
H4    H     H_    0.214935 0.467413 0.419237 0.119463
H5    H     H_    0.885517 0.001874 0.648054 0.108028
H6    H     H_    0.114308 0.498227 0.352057 0.108007
C7    C     C_R   0.884444 0.941179 0.821508 -0.038816
C8    C     C_R   0.115548 0.440955 0.178491 -0.038721
C9    C     C_R   0.590045 0.819031 0.739831 -0.162115
C10   C     C_R   0.410035 0.320655 0.260129 -0.162200
C11   C     C_R   0.626643 0.817577 0.804960 -0.123513
C12   C     C_R   0.373469 0.319909 0.194978 -0.123489
C13   C     C_R   0.688936 0.847417 0.811000 -0.158104
C14   C     C_R   0.311147 0.349155 0.188951 -0.158086
C15   C     C_R   0.716613 0.880267 0.751309 0.078722
C16   C     C_R   0.283405 0.380636 0.248682 0.078703
C17   C     C_R   0.678488 0.883332 0.684343 0.068536
C18   C     C_R   0.321491 0.382880 0.315676 0.068530
C19   C     C_R   0.780734 0.909880 0.755853 0.073554
C20   C     C_R   0.219258 0.409675 0.244150 0.073566
C21   C     C_R   0.804768 0.943498 0.693293 0.141299
C22   C     C_R   0.195153 0.441796 0.306757 0.141285
C23   C     C_R   0.766592 0.945775 0.628623 -0.202595
C24   C     C_R   0.233291 0.443280 0.371455 -0.202567
C25   C     C_R   0.704592 0.915873 0.624096 -0.193454
C26   C     C_R   0.295321 0.414021 0.375965 -0.193322
C27   C     C_R   0.822100 0.908134 0.820023 -0.216280
C28   C     C_R   0.177931 0.408725 0.179951 -0.216229
C29   C     C_R   0.906420 0.975427 0.759146 -0.170271
C30   C     C_R   0.093493 0.473647 0.240904 -0.170330
C31   C     C_R   0.614934 0.852064 0.679166 -0.085131
C32   C     C_R   0.385077 0.352288 0.320835 -0.085048
H7    H     H_    0.807463 0.883761 0.869646 0.091674
H8    H     H_    0.192621 0.385465 0.130292 0.091590
H9    H     H_    0.541817 0.793837 0.736674 0.108292
H10   H     H_    0.458293 0.296061 0.263269 0.108254
H11   H     H_    0.714124 0.843713 0.863220 0.104675
H12   H     H_    0.285990 0.346100 0.136711 0.104667
H13   H     H_    0.606533 0.792206 0.851399 0.114498
H14   H     H_    0.393631 0.295620 0.148507 0.114482
H15   H     H_    0.677144 0.918817 0.572721 0.108792
H16   H     H_    0.322740 0.416315 0.427362 0.108588
C33   C     C_3   0.813033 0.777126 0.268813 -0.383026
C34   C     C_3   0.186963 0.277182 0.731175 -0.382999
C35   C     C_3   0.780151 0.118605 0.240889 0.046393
C36   C     C_3   0.219850 0.618609 0.759119 0.046358
C37   C     C_3   0.731203 0.099479 0.290487 0.255822
C38   C     C_3   0.268819 0.599501 0.709547 0.255893
H17   H     H_    0.785850 0.802883 0.372503 0.132002
H18   H     H_    0.214141 0.303110 0.627487 0.131977
H19   H     H_    0.856720 0.828395 0.298947 0.135090
H20   H     H_    0.143272 0.328489 0.701050 0.135084
H21   H     H_    0.823454 0.161202 0.274367 0.087484
H22   H     H_    0.176555 0.661228 0.725623 0.087453
H23   H     H_    0.753869 0.137256 0.344208 0.080024
H24   H     H_    0.246179 0.637419 0.655826 0.080026
C39   C     C_1   0.624737 0.855041 0.378915 -0.172475
C40   C     C_1   0.375264 0.355050 0.621086 -0.172486
C41   C     C_3   0.791113 0.918123 0.207509 0.206517
C42   C     C_3   0.208884 0.418110 0.792489 0.206528
C43   C     C_3   0.765068 0.759138 0.318747 -0.402450
C44   C     C_3   0.234923 0.259240 0.681232 -0.402489
C45   C     C_3   0.708697 0.886387 0.292908 0.170075
C46   C     C_3   0.291304 0.386381 0.707094 0.170087
C47   C     C_3   0.682457 0.817084 0.217893 -0.342069
C48   C     C_3   0.317535 0.316937 0.782098 -0.342033
C49   C     C_3   0.730291 0.836350 0.168159 -0.337393
C50   C     C_3   0.269705 0.336256 0.831835 -0.337434
C51   C     C_1   0.662639 0.867388 0.340494 -0.019254
C52   C     C_1   0.337362 0.367392 0.659507 -0.019258
C53   C     C_1   0.837413 0.930532 0.159937 -0.079258
C54   C     C_1   0.162584 0.430519 0.840060 -0.079237
C55   C     C_1   0.875319 0.940090 0.121427 -0.200976
C56   C     C_1   0.124679 0.440078 0.878571 -0.200979
H25   H     H_    0.738396 0.691753 0.146583 0.171137
H26   H     H_    0.261593 0.191665 0.853416 0.171154
H27   H     H_    0.712032 0.927262 0.122522 0.128757
H28   H     H_    0.287972 0.427135 0.877469 0.128736
H29   H     H_    0.668548 0.663389 0.219763 0.186826
H30   H     H_    0.331417 0.163214 0.780209 0.186905
H31   H     H_    0.821721 0.632287 0.247870 0.187625
H32   H     H_    0.178282 0.132322 0.752108 0.187598
H33   H     H_    0.751175 0.605684 0.321563 0.208514
H34   H     H_    0.248805 0.105776 0.678384 0.208418
H35   H     H_    0.640796 0.898223 0.196408 0.128663
H36   H     H_    0.359210 0.397960 0.803592 0.128688
O11   O     O_R   0.056480 0.288780 0.942210 -0.535242
O12   O     O_R   0.943520 0.788780 0.057790 -0.535240
O13   O     O_R   0.058700 0.616820 0.085490 -0.538028
O14   O     O_R   0.941300 0.116820 0.914510 -0.538030
C57   C     C_R   0.073226 0.448354 0.111711 0.693641
C58   C     C_R   0.926772 0.948388 0.888288 0.693630
O15   O     O_R   0.063520 0.618570 0.944410 -0.538437
O16   O     O_R   0.936480 0.118570 0.055590 -0.538440
O17   O     O_R   0.948420 0.787670 0.915740 -0.535969
O18   O     O_R   0.051580 0.287670 0.084260 -0.535953
C59   C     C_R   0.078957 0.449816 0.924040 0.726281
C60   C     C_R   0.921042 0.949819 0.075959 0.726309
O19   O     O_3   0.962260 0.453430 0.990800 -0.366464
O20   O     O_3   0.037740 0.953430 0.009200 -0.366449
V3    V     V_3+5 0.007000 0.728750 0.001710 1.419111
V4    V     V_3+5 0.993000 0.228750 0.998290 1.419126
N1    N     N_3   0.765286 0.273284 0.189121 -0.666421
H37   H     H_    0.803320 0.303121 0.165765 0.225081
H38   H     H_    0.730391 0.231730 0.149578 0.227793
N2    N     N_3   0.234691 0.773259 0.810891 -0.666408
H39   H     H_    0.196622 0.803249 0.834168 0.225063
H40   H     H_    0.269526 0.731593 0.850495 0.227778
O21   O     O_3   0.682971 0.231219 0.274355 -0.639542
H41   H     H_    0.661162 0.201961 0.226960 0.297720
O22   O     O_3   0.317065 0.731126 0.725736 -0.639523
H42   H     H_    0.338829 0.701805 0.773150 0.297761

loop_
_geom_bond_atom_site_label_1
_geom_bond_atom_site_label_2
_ccdc_geom_bond_type
H18   C44   S    
C12   C14   A    
C35   C37   S    
O12   V3    S    
C9    C11   A    
O13   C57   A    
O14   V4    S    
C49   H25   S    
O1    C3    A    
O2    C4    A    
C2    O7    A    
C4    C31   S    
O3    V1    S    
C2    C39   S    
C21   C23   A    
C42   C54   S    
O16   V4    S    
O5    C3    A    
C41   C53   S    
C5    H5    S    
C47   H35   S    
C6    H6    S    
C37   O21   S    
C34   C44   S    
C48   C50   S    
O19   V3    S    
H1    C29   S    
C27   H7    S    
C38   H24   S    
C28   H8    S    
C33   C43   S    
C37   H23   S    
C55   C60   S    
C34   H20   S    
O15   V3    S    
C5    C21   A    
C6    C22   A    
O20   V3    S    
C50   H26   S    
C45   C47   S    
O17   V3    S    
C37   C45   S    
C33   C41   S    
C17   C31   A    
C13   C15   A    
O11   V4    S    
C53   C55   T    
C17   C25   A    
C40   C52   T    
C8    C30   A    
C38   O22   S    
C42   C50   S    
C22   C24   A    
C41   C49   S    
O6    V2    S    
C23   C25   A    
C33   H31   S    
C24   C26   A    
O13   V3    S    
C35   N1    S    
O11   C59   A    
N1    H38   S    
H17   C43   S    
C44   C46   S    
H3    C23   S    
O19   V4    S    
C43   C45   S    
C10   C32   A    
C36   N2    S    
C15   C19   A    
C44   H34   S    
C36   C38   S    
O4    V2    S    
C38   C46   S    
C54   C56   T    
C8    C57   S    
O6    C4    A    
O1    V2    S    
C45   C51   S    
O2    V1    S    
C58   O17   A    
N1    H37   S    
H2    C30   S    
C50   H28   S    
C57   O18   A    
C34   H32   S    
C7    C58   S    
C39   C51   T    
C47   C49   S    
C11   H13   S    
C46   C48   S    
O9    V1    S    
C48   H36   S    
O10   V2    S    
C18   C26   A    
O4    C2    A    
C19   C27   A    
O21   H41   S    
C7    C27   A    
O16   C60   A    
C18   C32   A    
N2    H40   S    
O22   H42   S    
C35   C41   S    
C33   H19   S    
C7    C29   A    
C10   H10   S    
C16   C20   A    
C36   C42   S    
C34   C42   S    
C5    C29   A    
C35   H21   S    
O3    C1    A    
C6    C30   A    
C9    H9    S    
C25   H15   S    
C48   H30   S    
C1    C40   S    
C10   C12   A    
O7    V1    S    
C1    O8    A    
C11   C13   A    
C3    C32   S    
O8    V2    S    
C20   C22   A    
C49   H27   S    
H4    C24   S    
C26   H16   S    
C46   C52   S    
C12   H14   S    
O5    V1    S    
C15   C17   A    
O14   C58   A    
C16   C18   A    
C36   H22   S    
C56   C59   S    
O20   V4    S    
C20   C28   A    
C8    C28   A    
C19   C21   A    
C47   H29   S    
O9    V2    S    
O12   C60   A    
O10   V1    S    
C43   H33   S    
O15   C59   A    
C13   H11   S    
C14   H12   S    
O18   V4    S    
C9    C31   A    
C14   C16   A    
N2    H39   S    
