data_mof_unit_16749.cif
_audit_creation_date              2012-12-10T17:45:31-0500
_audit_creation_method            fapswitch 2.2
_symmetry_space_group_name_H-M    P1
_symmetry_Int_Tables_number       1
_space_group_crystal_system       triclinic
_cell_length_a                    11.544236
_cell_length_b                    10.672032
_cell_length_c                    9.907037
_cell_angle_alpha                 87.902381
_cell_angle_beta                  89.871773
_cell_angle_gamma                 91.260091
_cell_volume                      1219.43297906

loop_
_atom_site_label
_atom_site_type_symbol
_atom_type_description
_atom_site_fract_x
_atom_site_fract_y
_atom_site_fract_z
_atom_type_partial_charge
C1    C     C_R   0.514781 0.261049 0.503096 0.865700
C2    C     C_R   0.481996 0.875752 0.491416 -0.241496
C3    C     C_R   0.346025 0.338138 0.145820 -0.108647
C4    C     C_R   0.281998 0.497546 0.500096 0.877992
C5    C     C_R   0.270072 0.259335 0.078316 -0.142954
C6    C     C_R   0.270885 0.259188 0.938699 -0.147996
C7    C     C_R   0.347860 0.337644 0.865843 -0.133959
C8    C     C_R   0.424937 0.419955 0.930761 0.055539
C9    C     C_R   0.424539 0.420157 0.075285 0.151826
C10   C     C_R   0.571442 0.577202 0.068634 -0.210994
C11   C     C_R   0.571742 0.577841 0.924382 0.517017
C12   C     C_R   0.465807 0.034625 0.871542 0.369084
C13   C     C_R   0.490766 0.740404 0.497256 0.917740
C14   C     C_R   0.718014 0.500035 0.499863 0.908384
C15   C     C_1   0.161453 0.495092 0.499977 -0.158426
C16   C     C_1   0.059253 0.494610 0.499805 0.016977
C17   C     C_1   0.940595 0.495885 0.499669 0.015434
C18   C     C_1   0.838452 0.497823 0.499668 -0.163612
C19   C     C_R   0.517702 0.099119 0.760179 -0.304769
C20   C     C_1   0.628281 0.132663 0.283579 0.340420
C21   C     C_1   0.291309 0.796369 0.691106 0.277079
C22   C     C_R   0.392577 0.930268 0.848970 0.435438
C23   C     C_R   0.384935 0.883749 0.718294 -0.070100
C24   C     C_R   0.454870 0.937215 0.611731 -0.080476
C25   C     C_R   0.503338 0.056201 0.628106 0.043766
C26   C     C_R   0.536358 0.127515 0.510982 -0.220787
C27   C     C_R   0.563435 0.067946 0.391679 -0.070100
C28   C     C_R   0.532592 0.943217 0.379387 0.393624
H1    H     H_    0.212679 0.196651 0.886410 0.149025
H2    H     H_    0.480325 0.851287 0.228043 0.356654
H3    H     H_    0.345334 0.330019 0.759143 0.203270
H4    H     H_    0.572983 0.179845 0.778372 0.183529
H5    H     H_    0.629250 0.639728 0.121361 0.176807
H6    H     H_    0.340061 0.331630 0.252898 0.196228
H7    H     H_    0.210778 0.197309 0.134922 0.148325
H8    H     H_    0.690633 0.709257 0.912215 0.321649
H9    H     H_    0.529661 0.152886 0.997631 0.344591
H10   H     H_    0.337109 0.917716 0.035772 0.370183
N1    N     N_R   0.498930 0.498800 0.142780 -0.131496
N2    N     N_R   0.498900 0.498720 0.857170 -0.136010
N3    N     N_1   0.680847 0.184588 0.198195 -0.209393
N4    N     N_1   0.214373 0.728544 0.670839 -0.195015
O1    O     O_R   0.500000 0.316780 0.614690 -0.653711
O2    O     O_3   0.481276 0.074985 0.001186 -0.763999
O3    O     O_3   0.327384 0.871751 0.951404 -0.768505
O4    O     O_3   0.554725 0.889129 0.257989 -0.727623
O5    O     O_R   0.499990 0.316750 0.385360 -0.639661
O6    O     O_R   0.334450 0.500030 0.614670 -0.625937
O7    O     O_R   0.334440 0.500000 0.385330 -0.633575
O8    O     O_R   0.500010 0.683250 0.614640 -0.558726
O9    O     O_R   0.500000 0.683220 0.385310 -0.598014
O10   O     O_R   0.665560 0.500000 0.614670 -0.566509
O11   O     O_R   0.665550 0.499970 0.385330 -0.609551
O12   O     O_3   0.644675 0.657537 0.849715 -0.718692
Zn1   Zn    Zn3+2 0.500010 0.500020 0.653130 0.993206
Zn2   Zn    Zn3+2 0.499990 0.499980 0.346870 0.961246

loop_
_geom_bond_atom_site_label_1
_geom_bond_atom_site_label_2
_ccdc_geom_bond_type
C8    C9    A    
O6    Zn1   S    
C23   C24   A    
C6    C7    A    
C3    C9    A    
C20   C27   S    
O7    Zn2   S    
C1    O1    A    
C14   C18   S    
O8    Zn1   S    
O10   Zn1   S    
C4    O7    A    
N2    Zn1   S    
C6    H1    S    
H9    O2    S    
C17   C18   T    
C7    C8    A    
C12   O2    S    
C14   O11   A    
C28   O4    S    
C26   C27   A    
C1    C26   S    
C11   O12   S    
C4    C15   S    
C5    C6    A    
C19   H4    S    
C5    H7    S    
C12   C19   A    
O1    Zn1   S    
H2    O4    S    
C20   N3    T    
C10   H5    S    
C21   C23   S    
C2    C24   A    
C11   N2    A    
C19   C25   A    
C7    H3    S    
C10   C11   A    
C13   O8    A    
C12   C22   A    
C9    N1    A    
C22   O3    S    
H8    O12   S    
C24   C25   A    
O9    Zn2   S    
C4    O6    A    
O11   Zn2   S    
C27   C28   A    
C2    C13   S    
C22   C23   A    
C1    O5    A    
H10   O3    S    
C2    C28   A    
C21   N4    T    
C8    N2    A    
C3    H6    S    
C25   C26   A    
C13   O9    A    
C10   N1    A    
C15   C16   T    
C14   O10   A    
N1    Zn2   S    
C16   C17   S    
O5    Zn2   S    
C3    C5    A    
