data_mof_unit_25520.cif
_audit_creation_date              2012-12-10T19:44:42-0500
_audit_creation_method            fapswitch 2.2
_symmetry_space_group_name_H-M    P1
_symmetry_Int_Tables_number       1
_space_group_crystal_system       triclinic
_cell_length_a                    8.441954
_cell_length_b                    14.942597
_cell_length_c                    14.186261
_cell_angle_alpha                 88.559735
_cell_angle_beta                  98.621171
_cell_angle_gamma                 89.190072
_cell_volume                      1768.45301694

loop_
_atom_site_label
_atom_site_type_symbol
_atom_type_description
_atom_site_fract_x
_atom_site_fract_y
_atom_site_fract_z
_atom_type_partial_charge
C1    C     C_R   0.500463 0.327876 0.501267 0.884924
C2    C     C_R   0.464928 0.422893 0.893912 -0.309936
C3    C     C_R   0.492206 0.498971 0.052172 0.095875
C4    C     C_R   0.494828 0.501257 0.945809 0.083871
C5    C     C_R   0.202476 0.515682 0.474948 0.921040
C6    C     C_R   0.797071 0.515533 0.523942 0.933223
C7    C     C_2   0.039317 0.550640 0.459884 -0.140245
C8    C     C_2   0.958223 0.551104 0.535181 -0.149781
C9    C     C_R   0.444126 0.087047 0.557184 -0.231093
C10   C     C_R   0.520568 0.918917 0.429623 -0.237328
C11   C     C_R   0.412064 0.178369 0.548977 0.092372
C12   C     C_R   0.501636 0.673443 0.499225 0.819936
C13   C     C_R   0.490984 0.828469 0.420067 0.095156
C14   C     C_R   0.518829 0.232306 0.506650 -0.080646
C15   C     C_R   0.522497 0.770846 0.501727 -0.090226
C16   C     C_R   0.651046 0.195385 0.471594 -0.269026
C17   C     C_R   0.581056 0.807047 0.590705 -0.280384
C18   C     C_R   0.679865 0.103340 0.476520 0.111989
C19   C     C_R   0.609158 0.898217 0.600194 0.118264
C20   C     C_R   0.576022 0.049804 0.522343 0.064935
C21   C     C_R   0.578897 0.953580 0.517718 0.066405
C22   C     C_3   0.967427 0.583089 0.359370 -0.392419
C23   C     C_R   0.348233 0.503047 0.092364 0.036583
C24   C     C_3   0.061840 0.659927 0.322840 -0.384826
C25   C     C_3   0.986250 0.693998 0.223722 -0.939089
C26   C     C_3   0.029471 0.591169 0.629936 -0.374667
C27   C     C_3   0.924371 0.668422 0.656966 -0.350963
C28   C     C_3   0.020049 0.730967 0.726750 -0.934917
C29   C     C_3   0.256210 0.213952 0.576545 -0.424147
C30   C     C_3   0.245391 0.194949 0.682251 -0.342083
C31   C     C_3   0.098191 0.241047 0.711217 -0.886369
C32   C     C_3   0.425798 0.799048 0.321689 -0.405797
C33   C     C_3   0.563453 0.777122 0.267506 -0.312688
C34   C     C_R   0.528236 0.580569 0.895469 0.027160
C35   C     C_3   0.500267 0.742623 0.169852 -0.918635
C36   C     C_3   0.810005 0.065031 0.424470 -0.418610
C37   C     C_3   0.942561 0.012771 0.490058 -0.365021
C38   C     C_3   0.077709 0.984243 0.436132 -0.897762
C39   C     C_3   0.660910 0.934273 0.699038 -0.435990
C40   C     C_3   0.827151 0.976284 0.710496 -0.350500
C41   C     C_3   0.886524 0.997235 0.814390 -0.899067
C42   C     C_3   0.185420 0.498953 0.031494 -0.431280
C43   C     C_3   0.131261 0.589791 0.984572 -0.356747
C44   C     C_3   0.962996 0.584638 0.928477 -0.881245
C45   C     C_R   0.356794 0.505325 0.192944 -0.059297
C46   C     C_3   0.558175 0.666820 0.949195 -0.442193
C47   C     C_3   0.578979 0.751458 0.888712 -0.380329
C48   C     C_3   0.599605 0.833924 0.950601 -0.891469
C49   C     C_R   0.530865 0.577044 0.795802 -0.014298
C50   C     C_R   0.637103 0.487139 0.214583 0.007254
C51   C     C_R   0.467121 0.423822 0.795041 -0.000528
C52   C     C_R   0.636716 0.489281 0.115358 -0.318003
H1    H     H_    0.965404 0.637631 0.174009 0.269514
H2    H     H_    0.936813 0.776476 0.756973 0.256791
H3    H     H_    0.873646 0.708483 0.592065 0.227360
H4    H     H_    0.823976 0.640899 0.690374 0.236087
H5    H     H_    0.044485 0.538294 0.687270 0.204030
H6    H     H_    0.148847 0.619712 0.625001 0.242669
H7    H     H_    0.360234 0.043423 0.585670 0.145400
H8    H     H_    0.491575 0.963976 0.368001 0.141289
H9    H     H_    0.987295 0.217346 0.667313 0.265925
H10   H     H_    0.092006 0.224935 0.787401 0.246869
H11   H     H_    0.105489 0.314861 0.701850 0.264290
H12   H     H_    0.871190 0.729026 0.227326 0.268444
H13   H     H_    0.236729 0.121767 0.695882 0.210633
H14   H     H_    0.354716 0.218665 0.727439 0.220271
H15   H     H_    0.239270 0.286817 0.560823 0.208998
H16   H     H_    0.155000 0.181366 0.531938 0.197267
H17   H     H_    0.430385 0.681212 0.176267 0.277052
H18   H     H_    0.422222 0.794104 0.127490 0.257830
H19   H     H_    0.603791 0.726783 0.133603 0.260159
H20   H     H_    0.634400 0.838192 0.259026 0.210725
H21   H     H_    0.643803 0.725333 0.307668 0.240075
H22   H     H_    0.347411 0.741843 0.324766 0.213520
H23   H     H_    0.067637 0.742137 0.195376 0.252840
H24   H     H_    0.348329 0.852789 0.282153 0.187791
H25   H     H_    0.729932 0.238892 0.438504 0.145866
H26   H     H_    0.605068 0.764039 0.653891 0.152472
H27   H     H_    0.030319 0.942576 0.374808 0.263429
H28   H     H_    0.136587 0.043912 0.409729 0.263408
H29   H     H_    0.168700 0.943891 0.484544 0.253643
H30   H     H_    0.992825 0.054726 0.550415 0.218643
H31   H     H_    0.893280 0.951209 0.518602 0.234593
H32   H     H_    0.754873 0.020938 0.367285 0.197545
H33   H     H_    0.866881 0.120013 0.387982 0.198583
H34   H     H_    0.070341 0.716035 0.373303 0.222559
H35   H     H_    0.800648 0.043179 0.841946 0.264115
H36   H     H_    0.900929 0.934586 0.858924 0.263378
H37   H     H_    0.004590 0.030107 0.819706 0.251871
H38   H     H_    0.914621 0.929676 0.685463 0.223954
H39   H     H_    0.821890 0.039855 0.668118 0.232421
H40   H     H_    0.570929 0.983947 0.715879 0.198635
H41   H     H_    0.664500 0.878936 0.752658 0.206332
H42   H     H_    0.963226 0.540899 0.866323 0.269913
H43   H     H_    0.878990 0.557568 0.974481 0.258135
H44   H     H_    0.920453 0.652594 0.902494 0.256761
H45   H     H_    0.183210 0.635068 0.316583 0.247878
H46   H     H_    0.132096 0.640999 0.040114 0.223858
H47   H     H_    0.213493 0.610852 0.934607 0.228444
H48   H     H_    0.187450 0.447812 0.976200 0.212733
H49   H     H_    0.095135 0.476588 0.076306 0.188457
H50   H     H_    0.489456 0.846724 0.982368 0.263005
H51   H     H_    0.703856 0.824471 0.008029 0.267946
H52   H     H_    0.620108 0.893933 0.906902 0.249972
H53   H     H_    0.686736 0.743655 0.853183 0.212420
H54   H     H_    0.471745 0.762532 0.833516 0.222321
H55   H     H_    0.454832 0.679007 0.987311 0.217678
H56   H     H_    0.972586 0.526447 0.311044 0.194831
H57   H     H_    0.667384 0.656629 0.002784 0.215291
H58   H     H_    0.247309 0.509711 0.223459 0.139316
H59   H     H_    0.557214 0.635700 0.755922 0.123028
H60   H     H_    0.746373 0.471871 0.261192 0.123821
H61   H     H_    0.442540 0.363249 0.756194 0.142081
H62   H     H_    0.748794 0.480553 0.088136 0.140158
H63   H     H_    0.439269 0.361149 0.929828 0.146910
H64   H     H_    0.842841 0.608663 0.355833 0.238370
H65   H     H_    0.092919 0.692190 0.785912 0.276854
H66   H     H_    0.101608 0.771854 0.689324 0.262504
N1    N     N_R   0.500000 0.499980 0.252470 -0.094916
N2    N     N_R   0.500000 0.500020 0.747530 -0.104367
O1    O     O_R   0.500010 0.369070 0.579480 -0.614163
O2    O     O_R   0.499990 0.630930 0.420520 -0.631614
O3    O     O_R   0.500010 0.369060 0.420520 -0.602316
O4    O     O_R   0.499990 0.630940 0.579480 -0.648969
O5    O     O_R   0.271750 0.500000 0.560890 -0.627823
O6    O     O_R   0.728250 0.500000 0.439110 -0.639965
O7    O     O_R   0.271750 0.499990 0.401930 -0.633820
O8    O     O_R   0.728250 0.500010 0.598070 -0.610487
Zn1   Zn    Zn3+2 0.500000 0.500010 0.606140 0.914459
Zn2   Zn    Zn3+2 0.500000 0.499990 0.393860 0.912635

loop_
_geom_bond_atom_site_label_1
_geom_bond_atom_site_label_2
_ccdc_geom_bond_type
C41   H37   S    
C23   C45   A    
C8    C26   S    
C31   H9    S    
C13   C32   S    
C2    C4    A    
C43   H46   S    
O8    Zn1   S    
C7    C8    D    
C26   C27   S    
C51   H61   S    
C23   C42   S    
C36   C37   S    
C19   C21   A    
C43   H47   S    
C28   H65   S    
C32   H22   S    
C30   C31   S    
C11   C14   A    
C27   H3    S    
C49   N2    A    
C38   H27   S    
O6    Zn2   S    
C48   H52   S    
N1    Zn2   S    
C24   H34   S    
C16   H25   S    
C39   H41   S    
C33   H20   S    
C17   C19   A    
C29   H15   S    
C3    C23   A    
C35   H18   S    
C47   H53   S    
C50   C52   A    
C34   C46   S    
C29   C30   S    
C18   C20   A    
C49   H59   S    
C45   N1    A    
C22   H64   S    
C35   H19   S    
C25   H1    S    
C31   H10   S    
C10   C21   A    
C41   H35   S    
C4    C34   A    
N2    Zn1   S    
C31   H11   S    
C24   C25   S    
C6    O6    A    
C39   C40   S    
C5    C7    S    
C28   H2    S    
C27   H4    S    
C6    C8    S    
C48   H51   S    
C24   H45   S    
C9    H7    S    
C25   H12   S    
C10   H8    S    
C43   C44   S    
C1    O3    A    
C37   C38   S    
C44   H44   S    
C42   H48   S    
C29   H16   S    
C9    C11   A    
C2    H63   S    
C9    C20   A    
C47   C48   S    
C12   O4    A    
C12   C15   S    
C47   H54   S    
C48   H50   S    
C46   H55   S    
C5    O7    A    
C50   H60   S    
C51   N2    A    
C26   H6    S    
C35   H17   S    
C30   H14   S    
C19   C39   S    
C33   H21   S    
C40   C41   S    
C13   C15   A    
O3    Zn2   S    
C22   C24   S    
C37   H30   S    
C42   C43   S    
C3    C4    S    
C42   H49   S    
C39   H40   S    
C15   C17   A    
C41   H36   S    
C46   C47   S    
C34   C49   A    
C45   H58   S    
O1    Zn1   S    
C10   C13   A    
C32   H24   S    
C3    C52   A    
C52   H62   S    
C36   H33   S    
C7    C22   S    
C40   H38   S    
C32   C33   S    
O7    Zn2   S    
C6    O8    A    
C38   H29   S    
C44   H43   S    
C28   H66   S    
C38   H28   S    
C36   H32   S    
C22   H56   S    
C17   H26   S    
C33   C35   S    
O4    Zn1   S    
C14   C16   A    
C40   H39   S    
C26   H5    S    
C1    O1    A    
C30   H13   S    
C44   H42   S    
C2    C51   A    
C50   N1    A    
O5    Zn1   S    
C12   O2    A    
C20   C21   S    
C11   C29   S    
C16   C18   A    
C46   H57   S    
C5    O5    A    
C27   C28   S    
C37   H31   S    
C1    C14   S    
C25   H23   S    
C18   C36   S    
O2    Zn2   S    
