data_mof_unit_47065.cif
_audit_creation_date              2012-12-11T14:30:09-0500
_audit_creation_method            fapswitch 2.2
_symmetry_space_group_name_H-M    P1
_symmetry_Int_Tables_number       1
_space_group_crystal_system       triclinic
_cell_length_a                    12.971837
_cell_length_b                    12.985255
_cell_length_c                    26.971054
_cell_angle_alpha                 89.97059
_cell_angle_beta                  90.509238
_cell_angle_gamma                 119.912759
_cell_volume                      3937.6765527

loop_
_atom_site_label
_atom_site_type_symbol
_atom_type_description
_atom_site_fract_x
_atom_site_fract_y
_atom_site_fract_z
_atom_type_partial_charge
C1    C     C_R   0.559732 0.453335 0.822051 0.575522
C2    C     C_R   0.892969 0.439114 0.677302 0.575128
C3    C     C_R   0.547193 0.106272 0.822129 0.570951
C4    C     C_R   0.561248 0.453225 0.677124 0.580328
C5    C     C_R   0.894468 0.440948 0.821974 0.573823
C6    C     C_R   0.545065 0.110474 0.675998 0.564217
C7    C     C_R   0.458580 0.557830 0.321006 0.561976
C8    C     C_R   0.437249 0.894881 0.176932 0.563339
C9    C     C_R   0.108145 0.544371 0.323563 0.560423
C10   C     C_R   0.456763 0.562569 0.176812 0.561810
C11   C     C_R   0.444768 0.905836 0.319447 0.565605
C12   C     C_R   0.105155 0.542401 0.176896 0.560542
C13   C     C_R   0.972512 0.479761 0.973782 0.017338
C14   C     C_R   0.502350 0.030661 0.520196 0.002831
C15   C     C_R   0.519166 0.491958 0.973725 0.017212
C16   C     C_R   0.952355 0.458149 0.522913 0.020332
C17   C     C_R   0.508569 0.028159 0.973927 0.017391
C18   C     C_R   0.538268 0.499628 0.523246 0.012964
C19   C     C_R   0.495228 0.019213 0.468323 0.027349
C20   C     C_R   0.986615 0.477209 0.025206 0.027107
C21   C     C_R   0.533891 0.511531 0.471477 0.026916
C22   C     C_R   0.491852 0.013148 0.025290 0.027571
C23   C     C_R   0.967120 0.459874 0.471306 0.020113
C24   C     C_R   0.519726 0.508159 0.025107 0.026955
C25   C     C_R   0.841167 0.560141 0.987005 -0.137867
C26   C     C_R   0.717565 0.139478 0.514698 -0.135014
C27   C     C_R   0.438811 0.280663 0.987195 -0.137645
C28   C     C_R   0.849848 0.570917 0.511778 -0.125960
C29   C     C_R   0.719431 0.160937 0.988819 -0.137699
C30   C     C_R   0.479439 0.292217 0.509587 -0.118441
C31   C     C_R   0.709328 0.128216 0.463319 -0.143380
C32   C     C_R   0.863789 0.566792 0.038059 -0.126550
C33   C     C_R   0.474829 0.305250 0.458264 -0.106151
C34   C     C_R   0.703584 0.137566 0.039743 -0.127360
C35   C     C_R   0.873294 0.579906 0.460972 -0.126482
C36   C     C_R   0.430172 0.296201 0.038067 -0.128248
C37   C     C_R   0.877121 0.513506 0.903858 -0.173633
C38   C     C_R   0.624487 0.099649 0.594843 -0.170576
C39   C     C_R   0.487746 0.363684 0.904047 -0.172464
C40   C     C_R   0.878051 0.512432 0.594296 -0.167922
C41   C     C_R   0.637378 0.124798 0.904864 -0.172864
C42   C     C_R   0.509713 0.372638 0.592991 -0.161688
C43   C     C_R   0.590496 0.028160 0.389409 -0.152667
C44   C     C_R   0.970878 0.542928 0.108024 -0.142386
C45   C     C_R   0.481837 0.428475 0.387411 -0.140114
C46   C     C_R   0.572657 0.029607 0.108867 -0.140593
C47   C     C_R   0.979791 0.555238 0.391616 -0.179351
C48   C     C_R   0.452930 0.426831 0.107792 -0.141971
C49   C     C_R   0.050956 0.508617 0.125938 0.023404
C50   C     C_R   0.479081 0.978464 0.365984 0.031514
C51   C     C_R   0.487754 0.541179 0.125684 0.022961
C52   C     C_R   0.053594 0.513321 0.373911 0.006235
C53   C     C_R   0.458338 0.948735 0.125972 0.025312
C54   C     C_R   0.484207 0.533425 0.371810 0.028831
C55   C     C_R   0.524110 0.069478 0.623509 -0.012892
C56   C     C_R   0.939176 0.477960 0.872039 0.003907
C57   C     C_R   0.531918 0.465290 0.625691 0.012403
C58   C     C_R   0.540201 0.062190 0.872245 0.004572
C59   C     C_R   0.933185 0.467619 0.625755 -0.004439
C60   C     C_R   0.523677 0.461265 0.872059 0.004579
C61   C     C_R   0.898765 0.521070 0.954698 -0.002630
C62   C     C_R   0.615069 0.089124 0.543424 0.000227
C63   C     C_R   0.478843 0.377349 0.954769 -0.002016
C64   C     C_R   0.893824 0.514989 0.543162 0.002387
C65   C     C_R   0.623273 0.102910 0.955674 -0.002087
C66   C     C_R   0.508484 0.387599 0.542078 -0.001362
C67   C     C_R   0.599625 0.060531 0.439955 0.009009
C68   C     C_R   0.939898 0.529140 0.057421 0.027546
C69   C     C_R   0.497773 0.414139 0.438631 0.027256
C70   C     C_R   0.590123 0.060458 0.058296 0.027148
C71   C     C_R   0.937727 0.530149 0.440707 0.002776
C72   C     C_R   0.467050 0.409635 0.057296 0.025673
C73   C     C_R   0.026861 0.456950 0.890429 0.064805
C74   C     C_R   0.410290 0.023143 0.598898 0.056572
C75   C     C_R   0.544481 0.569759 0.890185 0.067054
C76   C     C_R   0.007733 0.428866 0.605931 0.051880
C77   C     C_R   0.431786 0.974257 0.889889 0.065957
C78   C     C_R   0.550419 0.575125 0.608101 0.067569
C79   C     C_R   0.386384 0.980917 0.392297 0.083138
C80   C     C_R   0.075552 0.433166 0.094862 0.089015
C81   C     C_R   0.512243 0.623415 0.406781 0.095603
C82   C     C_R   0.358902 0.922019 0.093839 0.088716
C83   C     C_R   0.071251 0.432399 0.404365 0.102450
C84   C     C_R   0.561474 0.640562 0.094421 0.089243
C85   C     C_R   0.028033 0.436028 0.941506 0.000636
C86   C     C_R   0.397694 0.986206 0.548530 -0.005482
C87   C     C_R   0.563802 0.591302 0.941448 -0.000172
C88   C     C_R   0.002955 0.406239 0.554172 -0.000463
C89   C     C_R   0.409569 0.972447 0.940925 0.001433
C90   C     C_R   0.563936 0.597423 0.555644 -0.000451
C91   C     C_R   0.384980 0.972517 0.444209 0.015722
C92   C     C_R   0.040928 0.416193 0.044369 0.005411
C93   C     C_R   0.560071 0.620537 0.452437 0.027106
C94   C     C_R   0.376564 0.957259 0.043636 0.006757
C95   C     C_R   0.016761 0.396053 0.450760 0.019243
C96   C     C_R   0.579691 0.623079 0.044341 0.006559
C97   C     C_R   0.051137 0.334305 0.012443 0.046185
C98   C     C_R   0.278534 0.910961 0.471815 0.036696
C99   C     C_R   0.662631 0.715303 0.013127 0.047780
C100  C     C_R   0.022537 0.307672 0.480084 0.040289
C101  C     C_R   0.284159 0.946609 0.011375 0.046639
C102  C     C_R   0.621575 0.722700 0.481395 0.033981
C103  C     C_R   0.285519 0.909313 0.524810 0.043598
C104  C     C_R   0.059051 0.353286 0.960306 0.030650
C105  C     C_R   0.606137 0.711662 0.533176 0.014795
C106  C     C_R   0.295474 0.939958 0.959210 0.031092
C107  C     C_R   0.035603 0.326198 0.532372 0.009257
C108  C     C_R   0.645534 0.704800 0.960803 0.030786
Cr1   Cr    Cr6+3 0.487630 0.241180 0.750000 1.082395
Cr2   Cr    Cr6+3 0.753550 0.512370 0.750000 1.061292
Cr3   Cr    Cr6+3 0.758820 0.246450 0.750000 1.060010
Cr4   Cr    Cr6+3 0.241180 0.487630 0.250000 1.099581
Cr5   Cr    Cr6+3 0.512370 0.753550 0.250000 1.062456
Cr6   Cr    Cr6+3 0.246450 0.758820 0.250000 1.089468
H1    H     H_    0.939155 0.586973 0.132586 0.135918
H2    H     H_    0.667335 0.039761 0.369208 0.112318
H3    H     H_    0.409716 0.351249 0.132387 0.140604
H4    H     H_    0.961011 0.612335 0.368498 0.121259
H5    H     H_    0.648222 0.062253 0.134025 0.136007
H6    H     H_    0.457649 0.356351 0.361360 0.149112
H7    H     H_    0.712123 0.142082 0.612023 0.143030
H8    H     H_    0.809853 0.532015 0.889283 0.136802
H9    H     H_    0.497682 0.289490 0.607336 0.151107
H10   H     H_    0.722759 0.192457 0.890918 0.135226
H11   H     H_    0.822341 0.544771 0.609555 0.142546
H12   H     H_    0.469471 0.278122 0.889696 0.136533
H13   H     H_    0.821293 0.600048 0.062480 0.113660
H14   H     H_    0.787353 0.176362 0.441639 0.135949
H15   H     H_    0.396090 0.220337 0.062455 0.114832
H16   H     H_    0.844743 0.628976 0.437850 0.107610
H17   H     H_    0.779204 0.180550 0.064684 0.114759
H18   H     H_    0.449797 0.229587 0.434350 0.151743
H19   H     H_    0.803616 0.188421 0.532231 0.123086
H20   H     H_    0.780459 0.587175 0.972514 0.115497
H21   H     H_    0.456187 0.206483 0.524192 0.140942
H22   H     H_    0.806732 0.222768 0.975055 0.116621
H23   H     H_    0.802646 0.612834 0.526846 0.120538
H24   H     H_    0.412415 0.193182 0.972901 0.115730
O1    O     O_R   0.460870 0.120930 0.805240 -0.494391
O2    O     O_R   0.660060 0.539130 0.694760 -0.483008
O3    O     O_R   0.879070 0.339940 0.805240 -0.493682
O4    O     O_R   0.460870 0.120930 0.694760 -0.461056
O5    O     O_R   0.660060 0.539130 0.805240 -0.493382
O6    O     O_R   0.879070 0.339940 0.694760 -0.480931
O7    O     O_R   0.120930 0.460870 0.305240 -0.481376
O8    O     O_R   0.539130 0.660060 0.194760 -0.483962
O9    O     O_R   0.339940 0.879070 0.305240 -0.473196
O10   O     O_R   0.120930 0.460870 0.194760 -0.482052
O11   O     O_R   0.539130 0.660060 0.305240 -0.514508
O12   O     O_R   0.339940 0.879070 0.194760 -0.476362
O13   O     O_R   0.498910 0.350470 0.801870 -0.502073
O14   O     O_R   0.851560 0.501090 0.698130 -0.503998
O15   O     O_R   0.649530 0.148440 0.801870 -0.503581
O16   O     O_R   0.498910 0.350470 0.698130 -0.483229
O17   O     O_R   0.851560 0.501090 0.801870 -0.505385
O18   O     O_R   0.649530 0.148440 0.698130 -0.502179
O19   O     O_R   0.350470 0.498910 0.301870 -0.452225
O20   O     O_R   0.501090 0.851560 0.198130 -0.472024
O21   O     O_R   0.148440 0.649530 0.301870 -0.491804
O22   O     O_R   0.350470 0.498910 0.198130 -0.468664
O23   O     O_R   0.501090 0.851560 0.301870 -0.488531
O24   O     O_R   0.148440 0.649530 0.198130 -0.469718
O25   O     O_3   0.666667 0.333333 0.750000 -0.299321
O26   O     O_3   0.333333 0.666667 0.250000 -0.265521
I1    I     I_    0.177433 0.353500 0.119339 -0.401359
I2    I     I_    0.288467 0.054029 0.356463 -0.432140
I3    I     I_    0.635576 0.821155 0.117443 -0.405384
I4    I     I_    0.202869 0.383629 0.390649 -0.358378
I5    I     I_    0.178590 0.814423 0.116029 -0.400709
I6    I     I_    0.412210 0.711459 0.407468 -0.383239
I7    I     I_    0.269121 0.049352 0.627568 -0.410953
I8    I     I_    0.164338 0.481662 0.840060 -0.261313
I9    I     I_    0.544212 0.686740 0.666979 -0.299618
I10   I     I_    0.319617 0.836895 0.838459 -0.275174
I11   I     I_    0.151967 0.454683 0.654013 -0.335467
I12   I     I_    0.520644 0.682916 0.839027 -0.256884
C109  C     C_3   0.004366 0.209018 0.030842 -0.256930
C110  C     C_3   0.096215 0.168705 0.029283 -0.421790
H25   H     H_    0.079846 0.111690 0.996574 0.121664
H26   H     H_    0.188343 0.244738 0.027561 0.197524
H27   H     H_    0.088697 0.116525 0.062976 0.167103
H28   H     H_    0.967356 0.196703 0.068705 0.165588
H29   H     H_    0.926006 0.149939 0.007979 0.116363
C111  C     C_3   0.160590 0.836681 0.444561 -0.249294
C112  C     C_3   0.074490 0.883044 0.453193 -0.429026
H30   H     H_    0.039538 0.865063 0.491455 0.143761
H31   H     H_    0.118788 0.980176 0.446505 0.186201
H32   H     H_    0.998376 0.837863 0.427054 0.138948
H33   H     H_    0.170959 0.831671 0.404170 0.191785
H34   H     H_    0.121445 0.742822 0.455073 0.152421
C113  C     C_3   0.787281 0.793095 0.033147 -0.257323
C114  C     C_3   0.828475 0.925214 0.031440 -0.421467
H35   H     H_    0.886401 0.965588 0.999298 0.122878
H36   H     H_    0.752997 0.942284 0.028479 0.197827
H37   H     H_    0.879884 0.969106 0.065620 0.167197
H38   H     H_    0.797768 0.767955 0.071427 0.165950
H39   H     H_    0.846956 0.773586 0.011404 0.117094
C115  C     C_3   0.000501 0.187230 0.458952 -0.255475
C116  C     C_3   0.949450 0.149409 0.405726 -0.420577
H40   H     H_    0.938543 0.216632 0.384959 0.172474
H41   H     H_    0.006095 0.124501 0.383972 0.186618
H42   H     H_    0.859670 0.070273 0.406691 0.118567
H43   H     H_    0.083164 0.182171 0.462440 0.172710
H44   H     H_    0.933780 0.115803 0.482787 0.118814
C117  C     C_3   0.204644 0.991898 0.030092 -0.257307
C118  C     C_3   0.072972 0.899490 0.027508 -0.421872
H45   H     H_    0.031219 0.916137 0.995061 0.120108
H46   H     H_    0.057885 0.807786 0.024698 0.198217
H47   H     H_    0.028690 0.905621 0.061446 0.167080
H48   H     H_    0.228960 0.027747 0.068407 0.166319
H49   H     H_    0.223218 0.070549 0.008000 0.115956
C119  C     C_3   0.709786 0.840433 0.457498 -0.277593
C120  C     C_3   0.766789 0.826734 0.410001 -0.435528
H50   H     H_    0.771859 0.744194 0.410305 0.144346
H51   H     H_    0.715135 0.826170 0.376857 0.186837
H52   H     H_    0.859122 0.900871 0.406383 0.133397
H53   H     H_    0.665405 0.892434 0.449379 0.177451
H54   H     H_    0.783956 0.892094 0.484124 0.129900
C121  C     C_3   0.178369 0.816268 0.554561 -0.258377
C122  C     C_3   0.208580 0.744737 0.590929 -0.398610
H55   H     H_    0.233108 0.686442 0.570204 0.162410
H56   H     H_    0.280436 0.801278 0.617314 0.192541
H57   H     H_    0.129151 0.687979 0.613383 0.176873
H58   H     H_    0.130787 0.855417 0.573179 0.179817
H59   H     H_    0.107853 0.747945 0.531089 0.147135
C123  C     C_3   0.068573 0.265958 0.924798 -0.252568
C124  C     C_3   0.197261 0.294643 0.917686 -0.387435
H60   H     H_    0.260632 0.391327 0.921763 0.203107
H61   H     H_    0.222231 0.246617 0.944569 0.132301
H62   H     H_    0.207327 0.265856 0.880146 0.164248
H63   H     H_    0.012456 0.172328 0.935782 0.120763
H64   H     H_    0.028241 0.263353 0.888190 0.169425
C125  C     C_3   0.611073 0.815821 0.559764 -0.254547
C126  C     C_3   0.483778 0.790206 0.566914 -0.390834
H65   H     H_    0.447824 0.802008 0.531239 0.172884
H66   H     H_    0.423122 0.697427 0.578681 0.186695
H67   H     H_    0.482656 0.850097 0.595648 0.168824
H68   H     H_    0.665430 0.838084 0.593903 0.175322
H69   H     H_    0.656960 0.899212 0.538441 0.141242
C127  C     C_3   0.197976 0.929928 0.923465 -0.252411
C128  C     C_3   0.099047 0.801091 0.915257 -0.387034
H70   H     H_    0.133122 0.738235 0.919498 0.203673
H71   H     H_    0.025405 0.775665 0.941436 0.132274
H72   H     H_    0.060820 0.790819 0.877364 0.164097
H73   H     H_    0.159481 0.985105 0.934869 0.121078
H74   H     H_    0.235219 0.970884 0.887228 0.169487
C129  C     C_3   0.072445 0.251692 0.563596 -0.262725
C130  C     C_3   0.206531 0.299904 0.560112 -0.379913
H75   H     H_    0.229922 0.281447 0.522984 0.163078
H76   H     H_    0.257211 0.397398 0.566430 0.192078
H77   H     H_    0.234545 0.256696 0.588431 0.189350
H78   H     H_    0.044849 0.245697 0.602518 0.188101
H79   H     H_    0.025657 0.157059 0.552484 0.124054
C131  C     C_3   0.733865 0.802162 0.926117 -0.253038
C132  C     C_3   0.705070 0.902073 0.918272 -0.387223
H80   H     H_    0.735464 0.941931 0.881060 0.162249
H81   H     H_    0.608062 0.868530 0.920957 0.203661
H82   H     H_    0.751683 0.974240 0.945663 0.132261
H83   H     H_    0.827207 0.839333 0.938258 0.119672
H84   H     H_    0.737709 0.765249 0.889689 0.168166

loop_
_geom_bond_atom_site_label_1
_geom_bond_atom_site_label_2
_ccdc_geom_bond_type
C44   C49   A    
C4    O16   A    
C132  H81   S    
C116  H42   S    
C77   I10   S    
C82   C94   A    
C18   C21   A    
C2    O6    A    
C5    C56   S    
C3    O15   A    
C6    C55   S    
C8    O20   A    
C50   C79   A    
C122  H56   S    
C12   C49   S    
C25   H20   S    
C117  C118  S    
C78   C90   A    
C31   C67   A    
C99   C108  A    
C20   C92   A    
C77   C89   A    
C119  H54   S    
C131  H83   S    
C32   H13   S    
C107  C129  S    
Cr1   O13   S    
C41   C58   A    
Cr2   O14   S    
C24   C96   A    
C118  H46   S    
C110  H26   S    
C112  H31   S    
C119  H53   S    
C9    O21   A    
C98   C103  A    
C14   C62   A    
C96   C99   A    
Cr6   O9    S    
C11   O23   A    
C111  C112  S    
C102  C105  A    
C128  H70   S    
C84   C96   A    
C84   I3    S    
C113  H38   S    
Cr2   O17   S    
C58   C77   A    
C121  H58   S    
C7    O11   A    
C55   C74   A    
Cr6   O26   S    
C48   C51   A    
C38   C55   A    
C94   C101  A    
C110  H27   S    
C129  H79   S    
C89   C106  A    
C92   C97   A    
C78   I9    S    
C19   C67   A    
C115  C116  S    
C131  H84   S    
Cr5   O20   S    
C6    O4    A    
Cr3   O18   S    
C34   C70   A    
C79   C91   A    
C13   C20   A    
C130  H77   S    
C33   C69   A    
C32   C68   A    
C25   C32   A    
C26   C62   A    
C132  H82   S    
C35   C71   A    
C26   C31   A    
C79   I2    S    
C39   H12   S    
C106  C127  S    
C4    C57   S    
C127  H74   S    
C37   C56   A    
C13   C61   A    
C9    C52   S    
C126  H66   S    
C31   H14   S    
C48   C72   A    
C86   C103  A    
C14   C19   A    
C42   C57   A    
C122  H55   S    
C130  H76   S    
C42   H9    S    
C110  H25   S    
C120  H51   S    
C2    O14   A    
Cr4   O26   S    
C27   H24   S    
C46   C70   A    
Cr4   O19   S    
C87   C108  A    
C45   C69   A    
C113  C114  S    
C18   C90   A    
C114  H37   S    
Cr5   O11   S    
C17   C89   A    
C14   C86   A    
Cr1   O25   S    
C1    C60   S    
C121  C122  S    
C88   C107  A    
C41   H10   S    
C95   C100  A    
C112  H32   S    
C41   C65   A    
C5    O17   A    
C12   O24   A    
C29   C34   A    
C44   H1    S    
C22   C94   A    
C74   C86   A    
C38   H7    S    
Cr4   O10   S    
C21   C69   A    
C53   C82   A    
C128  H71   S    
C126  H67   S    
C114  H36   S    
Cr5   O8    S    
C80   C92   A    
C52   C83   A    
C8    O12   A    
C125  H68   S    
C131  C132  S    
C1    O5    A    
C23   C71   A    
C43   H2    S    
C4    O2    A    
C81   C93   A    
C97   C109  S    
C124  H60   S    
C120  H50   S    
Cr2   O25   S    
C83   C95   A    
C124  H62   S    
Cr4   O7    S    
Cr3   O25   S    
C25   C61   A    
C81   I6    S    
C121  H59   S    
C73   I8    S    
Cr1   O16   S    
Cr3   O15   S    
C35   H16   S    
C47   C71   A    
C74   I7    S    
C30   C66   A    
C85   C104  A    
C101  C117  S    
Cr3   O6    S    
C10   O8    A    
C29   C65   A    
C39   C60   A    
C28   C64   A    
C33   H18   S    
C75   C87   A    
C15   C24   A    
C124  H61   S    
C34   H17   S    
C123  C124  S    
C16   C23   A    
C11   C50   S    
C115  H44   S    
C127  H73   S    
C111  H34   S    
C44   C68   A    
C3    O1    A    
C126  H65   S    
Cr6   O12   S    
C13   C85   A    
C132  H80   S    
C10   O22   A    
C80   I1    S    
C22   C70   A    
C130  H75   S    
C24   C72   A    
C16   C88   A    
C109  H28   S    
C73   C85   A    
C120  H52   S    
C101  C106  A    
C28   C35   A    
C76   C88   A    
C100  C107  A    
C15   C63   A    
C56   C73   A    
Cr4   O22   S    
C30   C33   A    
C108  C131  S    
C75   I12   S    
C118  H45   S    
C93   C102  A    
C105  C125  S    
C57   C78   A    
C20   C68   A    
C76   I11   S    
C129  H78   S    
C28   H23   S    
C113  H39   S    
C90   C105  A    
C8    C53   S    
C45   C54   A    
C37   C61   A    
C129  C130  S    
C43   C50   A    
C104  C123  S    
C48   H3    S    
C7    O19   A    
C27   C36   A    
C18   C66   A    
C39   C63   A    
C83   I4    S    
C16   C64   A    
C60   C75   A    
C17   C65   A    
C17   C22   A    
C40   C64   A    
C49   C80   A    
C47   H4    S    
Cr1   O1    S    
C128  H72   S    
C10   C51   S    
C114  H35   S    
C12   O10   A    
C109  C110  S    
Cr2   O2    S    
C125  H69   S    
C26   H19   S    
C109  H29   S    
C36   H15   S    
Cr5   O26   S    
C99   C113  S    
C118  H47   S    
C102  C119  S    
C112  H30   S    
C2    C59   S    
C21   C93   A    
C117  H48   S    
C123  H64   S    
C40   H11   S    
C59   C76   A    
C46   C53   A    
C9    O7    A    
C127  C128  S    
C42   C66   A    
C23   C95   A    
C46   H5    S    
C1    O13   A    
C54   C81   A    
C91   C98   A    
C98   C111  S    
Cr2   O5    S    
C116  H41   S    
Cr6   O21   S    
C82   I5    S    
C97   C104  A    
Cr6   O24   S    
Cr3   O3    S    
Cr5   O23   S    
C37   H8    S    
C3    C58   S    
C36   C72   A    
C116  H40   S    
C29   H22   S    
C45   H6    S    
C119  C120  S    
C43   C67   A    
C30   H21   S    
C15   C87   A    
C47   C52   A    
C115  H43   S    
C40   C59   A    
C117  H49   S    
C19   C91   A    
C27   C63   A    
C11   O9    A    
C7    C54   S    
C125  C126  S    
C5    O3    A    
C51   C84   A    
C111  H33   S    
C122  H57   S    
C6    O18   A    
C123  H63   S    
Cr1   O4    S    
C103  C121  S    
C38   C62   A    
C100  C115  S    
