data_mof_unit_50949.cif
_audit_creation_date              2012-12-11T16:56:21-0500
_audit_creation_method            fapswitch 2.2
_symmetry_space_group_name_H-M    P1
_symmetry_Int_Tables_number       1
_space_group_crystal_system       triclinic
_cell_length_a                    6.973062
_cell_length_b                    14.51701
_cell_length_c                    16.206967
_cell_angle_alpha                 90.511256
_cell_angle_beta                  89.864563
_cell_angle_gamma                 90.059396
_cell_volume                      1640.5282876

loop_
_atom_site_label
_atom_site_type_symbol
_atom_type_description
_atom_site_fract_x
_atom_site_fract_y
_atom_site_fract_z
_atom_type_partial_charge
O1    O     O_R   0.505830 0.583360 0.413880 -0.536758
O2    O     O_R   0.175830 0.595460 0.585520 -0.538109
O3    O     O_R   0.005520 0.416640 0.586120 -0.539180
C1    C     C_R   0.344440 0.617533 0.614307 0.699614
O4    O     O_R   0.176120 0.594390 0.414490 -0.540955
O5    O     O_R   0.005810 0.415570 0.413870 -0.541054
C2    C     C_R   0.345161 0.615963 0.385745 0.701845
O6    O     O_R   0.505540 0.584430 0.586130 -0.545238
O7    O     O_3   0.339200 0.441330 0.500000 -0.368702
V1    V     V_3+5 0.064350 0.510880 0.500000 1.454065
O8    O     O_R   0.676100 0.404540 0.414480 -0.543024
C3    C     C_R   0.845177 0.382518 0.385833 0.723168
O9    O     O_R   0.675810 0.405610 0.585510 -0.541604
C4    C     C_R   0.844852 0.382481 0.612244 0.739326
V2    V     V_3+5 0.564340 0.489120 0.500000 1.449575
O10   O     O_3   0.839360 0.558670 0.500000 -0.372362
C5    C     C_2   0.731360 0.205204 0.782236 -0.160926
C6    C     C_2   0.885436 0.191784 0.831563 -0.191204
H1    H     H_    0.607392 0.160483 0.788880 0.147186
C7    C     C_2   0.712801 0.279774 0.720139 -0.127688
C8    C     C_2   0.860782 0.309073 0.673908 -0.286686
H2    H     H_    0.000625 0.277312 0.679978 0.151893
C9    C     C_R   0.730441 0.179699 0.244201 0.121201
C10   C     C_R   0.882545 0.180379 0.187539 -0.093487
C11   C     C_R   0.032481 0.243516 0.202161 -0.175005
H3    H     H_    0.154128 0.246043 0.160780 0.131285
C12   C     C_R   0.020669 0.308501 0.267041 -0.135459
C13   C     C_R   0.859042 0.312030 0.319434 -0.098142
C14   C     C_R   0.718789 0.243927 0.308505 0.070483
C15   C     C_3   0.507190 0.253555 0.298897 -0.240677
C16   C     C_3   0.519548 0.182520 0.229258 -0.433725
H4    H     H_    0.463970 0.323447 0.278722 0.132600
H5    H     H_    0.485215 0.211367 0.167753 0.168763
H6    H     H_    0.449777 0.115264 0.242558 0.179987
C17   C     C_R   0.507019 0.748452 0.690271 0.076951
C18   C     C_R   0.352162 0.687522 0.681660 -0.110904
C19   C     C_R   0.201420 0.696162 0.739302 -0.152081
C20   C     C_R   0.213720 0.758712 0.806272 -0.175813
H7    H     H_    0.098874 0.760562 0.851201 0.127443
C21   C     C_R   0.378114 0.813854 0.818217 -0.101078
C22   C     C_R   0.519721 0.809875 0.756832 0.094513
C23   C     C_3   0.730777 0.796020 0.764461 -0.446686
C24   C     C_3   0.716655 0.729016 0.691710 -0.229329
H8    H     H_    0.768354 0.761685 0.823238 0.166845
H9    H     H_    0.749590 0.656288 0.707079 0.123833
C25   C     C_R   0.513955 0.743201 0.309185 0.070184
C26   C     C_R   0.354654 0.685491 0.319062 -0.096844
C27   C     C_R   0.206402 0.693762 0.261294 -0.170061
H10   H     H_    0.089051 0.646254 0.263506 0.137848
C28   C     C_R   0.217177 0.757206 0.196136 -0.145782
C29   C     C_R   0.378159 0.814737 0.186604 -0.099236
C30   C     C_R   0.523474 0.808311 0.245877 0.062249
C31   C     C_3   0.731298 0.790800 0.231375 -0.274624
C32   C     C_3   0.719238 0.716609 0.297301 -0.250589
H11   H     H_    0.808229 0.728709 0.353256 0.153210
O11   O     O_R   0.229930 0.912420 0.917160 -0.541173
O12   O     O_R   0.559420 0.902500 0.088780 -0.544759
O13   O     O_R   0.729660 0.081330 0.089380 -0.538598
C33   C     C_R   0.390348 0.880626 0.117241 0.696986
O14   O     O_R   0.559650 0.901420 0.917750 -0.540751
O15   O     O_R   0.729880 0.080250 0.917130 -0.537712
C34   C     C_R   0.390760 0.879320 0.888995 0.693022
O16   O     O_R   0.229700 0.913500 0.089410 -0.534845
O17   O     O_3   0.396250 0.055540 0.003280 -0.369330
V3    V     V_3+5 0.671130 0.986010 0.003260 1.418097
O18   O     O_R   0.059600 0.091310 0.917720 -0.539801
C35   C     C_R   0.891007 0.115208 0.891301 0.699006
O19   O     O_R   0.059370 0.092380 0.088750 -0.541307
C36   C     C_R   0.890545 0.114452 0.117339 0.720125
V4    V     V_3+5 0.171120 0.007820 0.003230 1.432564
O20   O     O_3   0.896130 0.938240 0.003240 -0.375412
H12   H     H_    0.078821 0.650802 0.735317 0.122817
H13   H     H_    0.812390 0.860299 0.751819 0.175764
C37   C     C_1   0.812985 0.761882 0.616671 0.378432
N1    N     N_1   0.888909 0.787573 0.557603 -0.352314
H14   H     H_    0.103592 0.758218 0.150836 0.120194
C38   C     C_1   0.846037 0.871426 0.256469 0.360989
N2    N     N_1   0.936213 0.934885 0.276073 -0.352029
C39   C     C_1   0.045312 0.255816 0.833512 0.325019
N3    N     N_1   0.173144 0.306727 0.835427 -0.376151
H15   H     H_    0.763179 0.765857 0.167697 0.128826
C40   C     C_1   0.735751 0.622498 0.262424 0.322928
N4    N     N_1   0.748163 0.548781 0.235134 -0.387674
H16   H     H_    0.570336 0.307357 0.709541 0.158556
H17   H     H_    0.133872 0.358999 0.273701 0.121830
C41   C     C_1   0.402868 0.220543 0.371864 0.381564
N5    N     N_1   0.320460 0.194747 0.429266 -0.345917

loop_
_geom_bond_atom_site_label_1
_geom_bond_atom_site_label_2
_ccdc_geom_bond_type
C15   H4    S    
C1    C18   S    
C22   C23   S    
O2    C1    A    
C17   C18   A    
C1    O6    A    
O18   V4    S    
C31   C32   S    
C19   C20   A    
C3    C13   S    
C9    C14   A    
C4    C8    S    
O14   C34   A    
C13   C14   A    
O5    C3    A    
C15   C16   S    
O12   C33   A    
V2    O10   S    
C25   C30   A    
C5    C7    S    
C21   C34   S    
C31   H15   S    
C12   H17   S    
C25   C26   A    
O8    V2    S    
O19   C36   A    
C9    C10   A    
C16   H5    S    
V4    O20   S    
O1    V2    S    
O17   V4    S    
C15   C41   S    
C17   C24   S    
O7    V1    S    
C24   C37   S    
C27   C28   A    
O18   C35   A    
O9    C4    A    
C23   H8    S    
C10   C36   S    
C28   C29   A    
C37   N1    T    
C29   C30   A    
C10   C11   A    
O4    C2    A    
C41   N5    T    
C6    C39   S    
C6    C35   S    
C38   N2    T    
C9    C16   S    
C31   C38   S    
C14   C15   S    
C28   H14   S    
O15   C35   A    
O13   V3    S    
C26   C27   A    
O16   V4    S    
C25   C32   S    
C5    C6    D    
C16   H6    S    
C24   H9    S    
O3    C4    A    
C21   C22   A    
O14   V3    S    
O6    V2    S    
O11   V4    S    
O9    V2    S    
O11   C34   A    
C29   C33   S    
C23   C24   S    
O2    V1    S    
C32   C40   S    
C30   C31   S    
C32   H11   S    
C18   C19   A    
C23   H13   S    
O1    C2    A    
O12   V3    S    
O5    V1    S    
O8    C3    A    
O13   C36   A    
C11   C12   A    
C33   O16   A    
O17   V3    S    
C7    H16   S    
C11   H3    S    
O4    V1    S    
O3    V1    S    
V3    O20   S    
C20   C21   A    
C20   H7    S    
C27   H10   S    
C5    H1    S    
O7    V2    S    
C17   C22   A    
C39   N3    T    
O15   V3    S    
C7    C8    D    
O19   V4    S    
C40   N4    T    
C19   H12   S    
C12   C13   A    
V1    O10   S    
C8    H2    S    
C2    C26   S    
