data_mof_unit_6260.cif
_audit_creation_date              2012-12-10T19:07:35-0500
_audit_creation_method            fapswitch 2.2
_symmetry_space_group_name_H-M    P1
_symmetry_Int_Tables_number       1
_space_group_crystal_system       triclinic
_cell_length_a                    10.82902
_cell_length_b                    10.937397
_cell_length_c                    9.555149
_cell_angle_alpha                 91.170905
_cell_angle_beta                  90.573152
_cell_angle_gamma                 90.877253
_cell_volume                      1131.29500241

loop_
_atom_site_label
_atom_site_type_symbol
_atom_type_description
_atom_site_fract_x
_atom_site_fract_y
_atom_site_fract_z
_atom_type_partial_charge
C1    C     C_R   0.494458 0.262078 0.497803 0.801465
C2    C     C_R   0.940585 0.575416 0.588096 0.051726
C3    C     C_3   0.939522 0.590963 0.743960 -0.464451
C4    C     C_3   0.079351 0.585632 0.741627 -0.017266
C5    C     C_R   0.502956 0.065455 0.616769 0.070294
C6    C     C_R   0.486338 0.127774 0.492081 -0.117790
C7    C     C_R   0.460851 0.058352 0.366479 0.114200
C8    C     C_R   0.449950 0.929894 0.373192 -0.039335
C9    C     C_R   0.481531 0.869720 0.498469 -0.183474
C10   C     C_R   0.507197 0.939011 0.619620 0.042554
C11   C     C_3   0.437393 0.935354 0.754150 -0.425532
C12   C     C_R   0.262704 0.495202 0.499054 0.807302
C13   C     C_3   0.428497 0.073211 0.748230 -0.020147
C14   C     C_R   0.541435 0.599893 0.075004 0.271042
C15   C     C_R   0.441388 0.410488 0.071420 -0.091963
C16   C     C_R   0.443903 0.408682 0.922847 -0.078886
C17   C     C_R   0.534733 0.602650 0.928375 0.249587
C18   C     C_3   0.653001 0.671478 0.918151 -0.559913
C19   C     C_3   0.665212 0.663676 0.076637 -0.292053
C20   C     C_R   0.492444 0.736950 0.500579 0.814073
C21   C     C_R   0.737540 0.499107 0.500820 0.818778
C22   C     C_R   0.067972 0.572668 0.586063 0.080015
C23   C     C_R   0.129406 0.493298 0.495955 -0.132592
C24   C     C_R   0.060384 0.417882 0.400501 0.170871
C25   C     C_R   0.931088 0.419639 0.405470 -0.163716
C26   C     C_R   0.870873 0.496266 0.501319 -0.132470
Cu1   Cu    Cu3+1 0.499990 0.499980 0.640670 0.933803
Cu2   Cu    Cu3+1 0.500010 0.500020 0.359330 0.957762
H1    H     H_    0.495089 0.905990 0.843402 0.167768
H2    H     H_    0.478718 0.121764 0.835451 0.159694
H3    H     H_    0.391747 0.340029 0.123936 0.139940
H4    H     H_    0.399846 0.333926 0.865718 0.145312
H5    H     H_    0.719752 0.618049 0.856861 0.219119
H6    H     H_    0.640813 0.766015 0.881703 0.187107
H7    H     H_    0.665409 0.754023 0.132029 0.155450
H8    H     H_    0.876924 0.358731 0.337232 0.161326
H9    H     H_    0.904096 0.682022 0.776299 0.201736
H10   H     H_    0.896849 0.511294 0.796696 0.190565
H11   H     H_    0.116478 0.502710 0.791817 0.177093
H12   H     H_    0.347783 0.885144 0.743273 0.205763
N1    N     N_R   0.500790 0.500930 0.147930 -0.190788
N2    N     N_R   0.500790 0.500890 0.852020 -0.186617
O1    O     O_R   0.500000 0.319640 0.618810 -0.589364
O2    O     O_R   0.500010 0.319680 0.381230 -0.585675
O3    O     O_R   0.319650 0.499970 0.618810 -0.597984
O4    O     O_R   0.319660 0.500010 0.381230 -0.568564
O5    O     O_R   0.499990 0.680320 0.618770 -0.578399
O6    O     O_R   0.500000 0.680360 0.381190 -0.581156
O7    O     O_R   0.680340 0.499990 0.618770 -0.581800
O8    O     O_R   0.680350 0.500030 0.381190 -0.572443
C27   C     C_3   0.121495 0.329311 0.301197 -0.842125
H13   H     H_    0.184975 0.270243 0.360545 0.211972
H14   H     H_    0.052882 0.268971 0.245478 0.223159
H15   H     H_    0.173607 0.379998 0.220946 0.249198
C28   C     C_3   0.295100 0.115588 0.726058 -0.853222
H16   H     H_    0.242400 0.103165 0.823944 0.234104
H17   H     H_    0.293493 0.213583 0.699003 0.232811
H18   H     H_    0.248307 0.062303 0.639935 0.243436
C29   C     C_1   0.770123 0.586370 0.112507 0.342468
N3    N     N_1   0.854209 0.526176 0.136497 -0.303558
C30   C     C_3   0.144890 0.704283 0.789401 -0.815517
H19   H     H_    0.128509 0.720916 0.902665 0.249484
H20   H     H_    0.245684 0.695262 0.773539 0.245755
H21   H     H_    0.111409 0.783820 0.729985 0.230365
C31   C     C_3   0.437378 0.119264 0.227996 -0.847437
H22   H     H_    0.519905 0.173422 0.197603 0.247326
H23   H     H_    0.420133 0.055827 0.137946 0.220468
H24   H     H_    0.353825 0.175489 0.238638 0.228172
C32   C     C_1   0.393414 0.861892 0.256136 0.272381
N4    N     N_1   0.347714 0.808355 0.163016 -0.311209

loop_
_geom_bond_atom_site_label_1
_geom_bond_atom_site_label_2
_ccdc_geom_bond_type
C2    C22   A    
C30   H21   S    
C23   C24   A    
C15   H3    S    
C6    C7    A    
C12   O3    A    
Cu1   O1    S    
C16   H4    S    
C4    C22   S    
C9    C10   A    
Cu2   N1    S    
C9    C20   S    
C5    C13   S    
Cu1   N2    S    
C4    H11   S    
C21   C26   S    
C27   H15   S    
C13   C28   S    
C31   H24   S    
C24   C27   S    
C21   O7    A    
C2    C3    S    
C29   N3    T    
C2    C26   A    
C28   H17   S    
C19   H7    S    
C11   H1    S    
C11   C13   S    
C14   C17   A    
Cu2   O4    S    
C8    C32   S    
C20   O6    A    
C14   N1    A    
C5    C6    A    
C4    C30   S    
C15   N1    A    
C21   O8    A    
C1    O1    A    
C17   C18   S    
C32   N4    T    
C18   H6    S    
C30   H19   S    
C18   H5    S    
C28   H16   S    
C20   O5    A    
C7    C31   S    
Cu1   O3    S    
C25   H8    S    
C11   H12   S    
C16   N2    A    
C13   H2    S    
C5    C10   A    
C27   H13   S    
C24   C25   A    
C3    H9    S    
C12   O4    A    
C31   H22   S    
C10   C11   S    
C28   H18   S    
Cu1   O5    S    
Cu1   Cu2   S    
C30   H20   S    
C7    C8    A    
C22   C23   A    
C18   C19   S    
C12   C23   S    
C31   H23   S    
C1    O2    A    
C19   C29   S    
C25   C26   A    
C17   N2    A    
Cu2   O8    S    
C14   C19   S    
Cu2   O2    S    
C15   C16   A    
Cu2   O6    S    
C3    C4    S    
Cu1   O7    S    
C3    H10   S    
C8    C9    A    
C27   H14   S    
C1    C6    S    
