data_mof_unit_68444.cif
_audit_creation_date              2012-12-10T18:42:30-0500
_audit_creation_method            fapswitch 2.2
_symmetry_space_group_name_H-M    P1
_symmetry_Int_Tables_number       1
_space_group_crystal_system       triclinic
_cell_length_a                    8.765302
_cell_length_b                    10.795772
_cell_length_c                    9.91144
_cell_angle_alpha                 89.932866
_cell_angle_beta                  98.856631
_cell_angle_gamma                 94.670754
_cell_volume                      923.579779565

loop_
_atom_site_label
_atom_site_type_symbol
_atom_type_description
_atom_site_fract_x
_atom_site_fract_y
_atom_site_fract_z
_atom_type_partial_charge
C1    C     C_R   0.511715 0.261302 0.502374 0.887966
C2    C     C_R   0.493181 0.739692 0.498666 0.896691
C3    C     C_R   0.202033 0.499457 0.464436 0.863348
C4    C     C_R   0.798171 0.501107 0.535245 0.858793
C5    C     C_2   0.037796 0.488956 0.445829 -0.280356
C6    C     C_2   0.962533 0.514026 0.552139 -0.257699
C7    C     C_R   0.562370 0.067030 0.394849 -0.202586
C8    C     C_R   0.459909 0.936092 0.613434 -0.194525
C9    C     C_R   0.530065 0.939638 0.383076 0.454616
C10   C     C_R   0.490770 0.063264 0.622746 0.417575
C11   C     C_R   0.488886 0.873010 0.496766 -0.277673
C12   C     C_R   0.525530 0.129381 0.507529 -0.265947
C13   C     C_R   0.599610 0.582160 0.090454 0.395128
C14   C     C_R   0.389090 0.428154 0.909224 0.424537
C15   C     C_R   0.594476 0.588092 0.943034 0.257479
C16   C     C_R   0.387024 0.427731 0.054477 0.254287
N1    N     N_R   0.499960 0.499970 0.857200 -0.184422
N2    N     N_R   0.500040 0.500030 0.142800 -0.188211
O1    O     O_R   0.499990 0.316750 0.614620 -0.549869
O2    O     O_R   0.500010 0.683250 0.385380 -0.514003
O3    O     O_R   0.499990 0.316780 0.385290 -0.669605
O4    O     O_R   0.500010 0.683220 0.614710 -0.608627
O5    O     O_R   0.271750 0.499990 0.587840 -0.542117
O6    O     O_R   0.728250 0.500010 0.412160 -0.564454
O7    O     O_R   0.271750 0.500010 0.358510 -0.613451
O8    O     O_R   0.728250 0.499990 0.641490 -0.682945
Zn1   Zn    Zn3+2 0.500000 0.499980 0.653120 1.003274
Zn2   Zn    Zn3+2 0.500000 0.500020 0.346880 1.010652
C17   C     C_1   0.963715 0.446391 0.310105 0.301515
N3    N     N_1   0.906243 0.414315 0.201462 -0.198492
C18   C     C_1   0.039011 0.567039 0.682540 0.262616
N4    N     N_1   0.101933 0.608737 0.785689 -0.170024
C19   C     C_1   0.650086 0.129101 0.298633 0.228281
N5    N     N_1   0.721662 0.177628 0.222212 -0.233867
C20   C     C_1   0.391181 0.875009 0.722391 0.321027
N6    N     N_1   0.335496 0.826995 0.809347 -0.201951
O9    O     O_3   0.553829 0.879209 0.265551 -0.576745
C21   C     C_3   0.436431 0.902314 0.155355 0.133253
H1    H     H_    0.486845 0.897773 0.059671 0.182411
H2    H     H_    0.393038 0.996157 0.158629 0.104102
C22   C     C_3   0.300534 0.803787 0.147353 -0.760662
H3    H     H_    0.208535 0.826165 0.063371 0.200672
H4    H     H_    0.337901 0.711019 0.126647 0.279091
H5    H     H_    0.252787 0.801135 0.244688 0.225710
O10   O     O_3   0.491244 0.122957 0.746435 -0.608204
C23   C     C_3   0.638660 0.117473 0.827200 0.104356
H6    H     H_    0.734000 0.103375 0.767039 0.122278
H7    H     H_    0.631962 0.040514 0.901062 0.149734
C24   C     C_3   0.683567 0.238157 0.906991 -0.796005
H8    H     H_    0.692960 0.317188 0.836572 0.270267
H9    H     H_    0.797987 0.233135 0.970760 0.216323
H10   H     H_    0.596570 0.253697 0.973933 0.220950
O11   O     O_3   0.678950 0.667294 0.187593 -0.525578
C25   C     C_3   0.810984 0.733939 0.153586 0.205661
H11   H     H_    0.773348 0.814004 0.090759 0.209235
H12   H     H_    0.883479 0.672980 0.104881 0.126351
C26   C     C_3   0.909300 0.789411 0.282895 -0.845549
H13   H     H_    0.966111 0.715837 0.344712 0.236283
H14   H     H_    0.999819 0.858414 0.255136 0.195335
H15   H     H_    0.837396 0.837380 0.345855 0.286309
O12   O     O_3   0.263173 0.384043 0.814024 -0.551616
C27   C     C_3   0.205816 0.261631 0.834877 0.189708
H16   H     H_    0.107819 0.265474 0.892379 0.191468
H17   H     H_    0.296729 0.204114 0.886775 0.160709
C28   C     C_3   0.136475 0.201591 0.697747 -0.814959
H18   H     H_    0.222963 0.205693 0.627041 0.275945
H19   H     H_    0.097015 0.102836 0.712751 0.199292
H20   H     H_    0.035506 0.250909 0.650517 0.232846
O13   O     O_3   0.641398 0.701966 0.889374 -0.609911
C29   C     C_3   0.781351 0.699015 0.835256 0.167668
H21   H     H_    0.753852 0.692522 0.724160 0.217473
H22   H     H_    0.851247 0.622104 0.876444 0.133631
C30   C     C_3   0.879022 0.823611 0.854821 -0.990032
H23   H     H_    0.955018 0.830502 0.954706 0.236955
H24   H     H_    0.956102 0.834500 0.775682 0.237404
H25   H     H_    0.803181 0.901052 0.844257 0.260574
O14   O     O_3   0.250438 0.378873 0.098015 -0.591628
C31   C     C_3   0.269626 0.266744 0.171323 0.181575
H26   H     H_    0.257451 0.286988 0.277770 0.214247
H27   H     H_    0.380526 0.225799 0.163432 0.126373
C32   C     C_3   0.136586 0.166733 0.131132 -1.020053
H28   H     H_    0.154987 0.110010 0.042931 0.229778
H29   H     H_    0.130063 0.101102 0.216987 0.234973
H30   H     H_    0.024927 0.209151 0.109443 0.295038

loop_
_geom_bond_atom_site_label_1
_geom_bond_atom_site_label_2
_ccdc_geom_bond_type
C1    O3    A    
C7    C19   S    
C22   H3    S    
C3    O5    A    
C20   N6    T    
C32   H28   S    
O14   C31   S    
O7    Zn2   S    
C23   C24   S    
O8    Zn1   S    
C17   N3    T    
C13   N2    A    
O9    C21   S    
C5    C6    D    
C4    O6    A    
C31   H27   S    
C26   H14   S    
C15   N1    A    
C16   O14   S    
C30   H23   S    
C27   H17   S    
C23   H6    S    
C28   H19   S    
C2    O4    A    
C29   H21   S    
O5    Zn1   S    
O1    Zn1   S    
C5    C17   S    
C28   H20   S    
C6    C18   S    
C22   H4    S    
C14   N1    A    
O13   C29   S    
C1    C12   S    
C29   C30   S    
C2    C11   S    
C32   H29   S    
C13   O11   S    
C7    C12   A    
C15   O13   S    
C25   H12   S    
C1    O1    A    
C2    O2    A    
N1    Zn1   S    
C3    O7    A    
N2    Zn2   S    
C21   C22   S    
C4    C6    S    
C31   H26   S    
C26   H15   S    
O2    Zn2   S    
C24   H9    S    
O10   C23   S    
C14   O12   S    
C8    C20   S    
C27   H16   S    
C18   N4    T    
C24   H10   S    
C10   O10   S    
C9    O9    S    
C19   N5    T    
C9    C11   A    
C10   C12   A    
C8    C10   A    
O3    Zn2   S    
C28   H18   S    
O4    Zn1   S    
C13   C15   A    
C22   H5    S    
C14   C16   A    
C30   H24   S    
C32   H30   S    
C7    C9    A    
C25   H11   S    
C27   C28   S    
O6    Zn2   S    
C3    C5    S    
C4    O8    A    
O11   C25   S    
C21   H2    S    
C31   C32   S    
C26   H13   S    
C21   H1    S    
C8    C11   A    
C30   H25   S    
O12   C27   S    
C23   H7    S    
C16   N2    A    
C24   H8    S    
C29   H22   S    
C25   C26   S    
