data_mof_unit_40899.cif
_audit_creation_date              2012-10-26T20:32:02-0400
_audit_creation_method            fapswitch 2.2
_symmetry_space_group_name_H-M    P1
_symmetry_Int_Tables_number       1
_space_group_crystal_system       triclinic
_cell_length_a                    10.664216
_cell_length_b                    10.807482
_cell_length_c                    9.609275
_cell_angle_alpha                 89.708471
_cell_angle_beta                  87.330562
_cell_angle_gamma                 91.685067
_cell_volume                      1105.79753899

loop_
_atom_site_label
_atom_site_type_symbol
_atom_type_description
_atom_site_fract_x
_atom_site_fract_y
_atom_site_fract_z
_atom_type_partial_charge
Br1   Br    Br    0.318566 0.295608 0.851766 -0.559957
Br2   Br    Br    0.680605 0.819728 0.135702 -0.587935
Br3   Br    Br    0.910529 0.740049 0.677092 -0.623007
C1    C     C_R   0.496329 0.262461 0.500361 0.554924
C2    C     C_R   0.489065 0.935843 0.625739 0.013909
C3    C     C_3   0.584824 0.932199 0.734022 -0.258006
C4    C     C_R   0.259767 0.494578 0.503396 0.558655
C5    C     C_3   0.584821 0.072520 0.733996 -0.237935
C6    C     C_R   0.550208 0.598094 0.070185 0.183030
C7    C     C_R   0.432938 0.413498 0.079412 0.013209
C8    C     C_R   0.430234 0.414599 0.931484 0.231512
C9    C     C_R   0.553452 0.596107 0.923566 0.102463
C10   C     C_3   0.686693 0.640630 0.914314 -0.218396
C11   C     C_3   0.680432 0.649255 0.072072 0.008400
C12   C     C_3   0.978350 0.524455 0.366591 -0.012673
C13   C     C_R   0.496389 0.737455 0.500027 0.566270
C14   C     C_R   0.741110 0.506177 0.496455 0.572215
C15   C     C_3   0.027758 0.477635 0.634021 -0.093177
C16   C     C_3   0.946083 0.394309 0.540931 -0.151778
C17   C     C_3   0.879438 0.509976 0.488782 0.038805
C18   C     C_3   0.960222 0.591700 0.581299 0.143782
C19   C     C_3   0.058738 0.607038 0.460594 -0.095578
C20   C     C_R   0.986336 0.571969 0.218873 0.020150
C21   C     C_R   0.959900 0.696556 0.193906 -0.090279
C22   C     C_R   0.002571 0.755115 0.069836 -0.070858
C23   C     C_3   0.045046 0.409147 0.417957 -0.131732
C24   C     C_R   0.075010 0.690847 0.971301 -0.075918
C25   C     C_R   0.100564 0.566824 0.994195 -0.113717
C26   C     C_R   0.054399 0.506613 0.115743 -0.085651
C27   C     C_3   0.123380 0.492657 0.510304 0.015919
C28   C     C_R   0.489080 0.063089 0.625787 0.056553
C29   C     C_R   0.481077 0.129010 0.501714 0.017362
C30   C     C_R   0.452636 0.063958 0.380101 -0.139573
C31   C     C_R   0.451799 0.934685 0.380320 -0.118918
C32   C     C_R   0.481002 0.870231 0.501523 0.019882
Cu1   Cu    Cu3+1 0.499990 0.499980 0.640670 1.007843
Cu2   Cu    Cu3+1 0.500010 0.500020 0.359330 0.973938
H1    H     H_    0.898266 0.305594 0.574050 0.128865
H2    H     H_    0.108927 0.695717 0.431324 0.136808
H3    H     H_    0.081313 0.330124 0.356435 0.120273
H4    H     H_    0.436988 0.112341 0.283740 0.145884
H5    H     H_    0.434535 0.886143 0.284493 0.176333
H6    H     H_    0.545628 0.890501 0.833307 0.171790
H7    H     H_    0.912685 0.750191 0.274357 0.172677
H8    H     H_    0.983861 0.851730 0.052692 0.168220
H9    H     H_    0.113487 0.737699 0.878429 0.168034
H10   H     H_    0.160811 0.518798 0.920446 0.151999
H11   H     H_    0.080533 0.412089 0.133075 0.124763
H12   H     H_    0.675154 0.894728 0.693435 0.189812
H13   H     H_    0.546003 0.111281 0.833314 0.186280
H14   H     H_    0.675136 0.116253 0.693721 0.143398
H15   H     H_    0.379875 0.342838 0.138938 0.141602
H16   H     H_    0.751404 0.568647 0.874705 0.166303
H17   H     H_    0.697690 0.731551 0.861444 0.198497
H18   H     H_    0.743866 0.586024 0.123845 0.160010
H19   H     H_    0.046841 0.452973 0.742495 0.147539
N1    N     N_R   0.500800 0.500930 0.147930 -0.267766
N2    N     N_R   0.500800 0.500890 0.852020 -0.228864
O1    O     O_R   0.500000 0.319640 0.618810 -0.457887
O2    O     O_R   0.500010 0.319680 0.381230 -0.523178
O3    O     O_R   0.316850 0.499950 0.618770 -0.470912
O4    O     O_R   0.316860 0.499990 0.381190 -0.514169
O5    O     O_R   0.499990 0.680320 0.618770 -0.502951
O6    O     O_R   0.500000 0.680360 0.381190 -0.472507
O7    O     O_R   0.683140 0.500010 0.618810 -0.493383
O8    O     O_R   0.683150 0.500050 0.381230 -0.501205

loop_
_geom_bond_atom_site_label_1
_geom_bond_atom_site_label_2
_ccdc_geom_bond_type
C6    C11   S    
C20   C26   A    
C25   H10   S    
C23   C27   S    
C15   C27   S    
C13   O5    A    
C22   H8    S    
C22   C24   A    
C15   C18   S    
C13   O6    A    
C10   H17   S    
C14   O7    A    
C28   C29   A    
C31   H5    S    
C15   H19   S    
C20   C21   A    
Cu1   O1    S    
C30   H4    S    
C29   C30   A    
C25   C26   A    
Cu1   O5    S    
C12   C20   S    
C11   H18   S    
C7    H15   S    
C9    N2    A    
C4    O4    A    
C4    C27   S    
C10   C11   S    
C21   C22   A    
C9    C10   S    
C5    H14   S    
C23   H3    S    
C14   O8    A    
C1    C29   S    
C2    C3    S    
C19   H2    S    
C2    C32   A    
C1    O1    A    
Cu1   Cu2   S    
C16   H1    S    
C21   H7    S    
C30   C31   A    
Cu2   O4    S    
Cu1   N2    S    
C3    H6    S    
C13   C32   S    
C12   C17   S    
Br2   C11   S    
C6    C9    A    
Cu2   N1    S    
Br3   C18   S    
Cu2   O2    S    
C10   H16   S    
C26   H11   S    
Cu1   O3    S    
C8    N2    A    
C5    H13   S    
C7    N1    A    
C17   C18   S    
C24   H9    S    
C6    N1    A    
C31   C32   A    
C7    C8    A    
C24   C25   A    
C16   C23   S    
Cu1   O7    S    
C15   C16   S    
C12   C23   S    
C3    C5    S    
C19   C27   S    
Cu2   O8    S    
C18   C19   S    
C5    C28   S    
C14   C17   S    
C12   C19   S    
C4    O3    A    
C3    H12   S    
C16   C17   S    
C1    O2    A    
Cu2   O6    S    
C2    C28   A    
Br1   C8    S    
