data_mof_unit_8169.cif
_audit_creation_date              2012-12-10T17:50:33-0500
_audit_creation_method            fapswitch 2.2
_symmetry_space_group_name_H-M    P1
_symmetry_Int_Tables_number       1
_space_group_crystal_system       triclinic
_cell_length_a                    15.71634
_cell_length_b                    10.632016
_cell_length_c                    9.924754
_cell_angle_alpha                 88.093958
_cell_angle_beta                  90.306666
_cell_angle_gamma                 91.249978
_cell_volume                      1657.06070094

loop_
_atom_site_label
_atom_site_type_symbol
_atom_type_description
_atom_site_fract_x
_atom_site_fract_y
_atom_site_fract_z
_atom_type_partial_charge
C1    C     C_R   0.507388 0.260900 0.503175 0.857085
C2    C     C_3   0.082794 0.496502 0.500436 0.105507
C3    C     C_3   0.973608 0.613568 0.523857 -0.190625
C4    C     C_3   0.916945 0.496718 0.501313 0.121966
C5    C     C_3   0.028673 0.576734 0.402845 -0.147792
C6    C     C_3   0.970241 0.459785 0.380073 -0.233137
C7    C     C_1   0.173750 0.497441 0.499612 -0.040591
C8    C     C_1   0.826101 0.497807 0.501402 -0.003819
C9    C     C_R   0.652712 0.113478 0.633650 -0.049919
C10   C     C_R   0.726958 0.044315 0.652816 -0.137448
C11   C     C_R   0.730108 0.920436 0.614105 -0.154844
C12   C     C_R   0.338047 0.499585 0.499703 0.887586
C13   C     C_R   0.657794 0.862376 0.562128 -0.174589
C14   C     C_R   0.582793 0.930797 0.538523 0.093359
C15   C     C_R   0.581749 0.060453 0.562466 0.038160
C16   C     C_R   0.509986 0.127527 0.511539 -0.088500
C17   C     C_R   0.439795 0.066603 0.454288 -0.193487
C18   C     C_R   0.437759 0.938343 0.448060 -0.204958
C19   C     C_R   0.508060 0.871748 0.491647 -0.080951
C20   C     C_R   0.388250 0.335846 0.144068 -0.141902
C21   C     C_R   0.334448 0.253727 0.076022 -0.188332
C22   C     C_R   0.335694 0.252404 0.936669 -0.178309
C23   C     C_R   0.499801 0.739420 0.497509 0.862042
C24   C     C_R   0.390461 0.333629 0.864488 -0.145891
C25   C     C_R   0.445800 0.418240 0.929960 0.163778
C26   C     C_R   0.445293 0.418834 0.074446 0.170495
C27   C     C_R   0.552199 0.577781 0.069111 -0.104706
C28   C     C_R   0.552068 0.577912 0.926077 -0.084238
C29   C     C_R   0.661932 0.499719 0.500335 0.874927
C30   C     C_3   0.971154 0.416996 0.598252 0.280900
C31   C     C_3   0.025618 0.381136 0.478211 -0.016096
C32   C     C_1   0.249087 0.498445 0.499274 -0.177037
C33   C     C_1   0.750819 0.498770 0.501093 -0.162297
C34   C     C_3   0.029353 0.533320 0.621582 -0.192769
H1    H     H_    0.787362 0.867221 0.631077 0.149795
H2    H     H_    0.661420 0.764136 0.538455 0.127776
H3    H     H_    0.381261 0.890732 0.410067 0.147798
H4    H     H_    0.594862 0.641404 0.120829 0.150589
H5    H     H_    0.382853 0.331436 0.250839 0.199675
H6    H     H_    0.291452 0.190776 0.131993 0.155592
H7    H     H_    0.293763 0.188327 0.883963 0.159853
H8    H     H_    0.387554 0.327429 0.757806 0.204134
H9    H     H_    0.594648 0.641640 0.870496 0.152474
H10   H     H_    0.944275 0.429295 0.281852 0.169098
H11   H     H_    0.054288 0.642424 0.322979 0.155225
H12   H     H_    0.950036 0.709117 0.542413 0.153898
H13   H     H_    0.055269 0.562956 0.720133 0.165706
H14   H     H_    0.385573 0.118798 0.416547 0.137371
H15   H     H_    0.781417 0.084184 0.705111 0.186131
N1    N     N_R   0.499210 0.498800 0.142780 -0.121803
N2    N     N_R   0.499180 0.498720 0.857170 -0.119485
O1    O     O_R   0.500000 0.316780 0.614690 -0.641441
O2    O     O_R   0.499990 0.316750 0.385360 -0.626706
O3    O     O_R   0.376780 0.500000 0.614650 -0.627667
O4    O     O_R   0.376770 0.499980 0.385310 -0.632920
O5    O     O_R   0.500010 0.683250 0.614640 -0.611309
O6    O     O_R   0.500000 0.683220 0.385310 -0.614773
O7    O     O_R   0.623230 0.500020 0.614690 -0.603653
O8    O     O_R   0.623220 0.500000 0.385350 -0.609883
Zn1   Zn    Zn3+2 0.500010 0.500020 0.653130 0.951950
Zn2   Zn    Zn3+2 0.499990 0.499980 0.346870 0.947910
C35   C     C_1   0.055728 0.254354 0.453251 0.211480
N3    N     N_1   0.079514 0.154414 0.433595 -0.204064
Br1   Br    Br    0.927301 0.302737 0.738744 -0.554472
C36   C     C_1   0.647185 0.220869 0.717372 0.216040
N4    N     N_1   0.644377 0.303732 0.789767 -0.137884

loop_
_geom_bond_atom_site_label_1
_geom_bond_atom_site_label_2
_ccdc_geom_bond_type
C19   C23   S    
C17   H14   S    
O6    Zn2   S    
C35   N3    T    
C7    C32   T    
C30   Br1   S    
C22   H7    S    
C24   H8    S    
C9    C10   A    
C3    H12   S    
C2    C7    S    
C27   N1    A    
C4    C8    S    
C2    C34   S    
C11   H1    S    
C17   C18   A    
C9    C15   A    
C4    C30   S    
C23   O5    A    
C1    C16   S    
C6    H10   S    
C21   C22   A    
C24   C25   A    
C11   C13   A    
C31   C35   S    
C34   H13   S    
C30   C31   S    
C21   H6    S    
C5    H11   S    
O1    Zn1   S    
O4    Zn2   S    
C28   N2    A    
C18   H3    S    
C29   O7    A    
C6    C31   S    
C9    C36   S    
C8    C33   T    
C26   N1    A    
C5    C6    S    
C1    O1    A    
C22   C24   A    
C25   N2    A    
O8    Zn2   S    
C2    C5    S    
C12   C32   S    
C10   C11   A    
C30   C34   S    
C27   H4    S    
O7    Zn1   S    
C15   C16   A    
C12   O4    A    
C29   C33   S    
N1    Zn2   S    
O5    Zn1   S    
C20   C21   A    
C13   H2    S    
C4    C6    S    
C36   N4    T    
C27   C28   A    
C23   O6    A    
C20   H5    S    
C1    O2    A    
C14   C15   A    
C18   C19   A    
O3    Zn1   S    
N2    Zn1   S    
C28   H9    S    
C3    C34   S    
C3    C5    S    
C25   C26   A    
C13   C14   A    
C10   H15   S    
O2    Zn2   S    
C14   C19   A    
C12   O3    A    
C3    C4    S    
C29   O8    A    
C16   C17   A    
C2    C31   S    
C20   C26   A    
