data_mof_unit_7930.cif
_audit_creation_date              2012-12-11T15:54:54-0500
_audit_creation_method            fapswitch 2.2
_symmetry_space_group_name_H-M    P1
_symmetry_Int_Tables_number       1
_space_group_crystal_system       triclinic
_cell_length_a                    17.859498
_cell_length_b                    24.371112
_cell_length_c                    15.116699
_cell_angle_alpha                 89.701584
_cell_angle_beta                  125.934486
_cell_angle_gamma                 90.373608
_cell_volume                      5327.3311824

loop_
_atom_site_label
_atom_site_type_symbol
_atom_type_description
_atom_site_fract_x
_atom_site_fract_y
_atom_site_fract_z
_atom_type_partial_charge
Br1   Br    Br    0.910601 0.083049 0.339692 -0.441101
Br2   Br    Br    0.716919 0.758248 0.790872 -0.299575
Br3   Br    Br    0.316716 0.784979 0.858137 -0.376813
Br4   Br    Br    0.218369 0.258921 0.790240 -0.281927
Br5   Br    Br    0.325598 0.866745 0.087028 -0.450125
Br6   Br    Br    0.266082 0.147719 0.975983 -0.380604
Br7   Br    Br    0.830727 0.357802 0.105108 -0.421451
Br8   Br    Br    0.762880 0.647742 0.974543 -0.388829
Br9   Br    Br    0.647506 0.956393 0.388710 -0.278298
Br10  Br    Br    0.601804 0.085758 0.389204 -0.323723
Br11  Br    Br    0.142603 0.459264 0.387560 -0.279962
Br12  Br    Br    0.877141 0.949301 0.330309 -0.422382
Br13  Br    Br    0.096288 0.588119 0.392934 -0.323026
Br14  Br    Br    0.782363 0.892830 0.640093 -0.370775
Br15  Br    Br    0.797176 0.093289 0.626834 -0.326152
Br16  Br    Br    0.281537 0.393570 0.638261 -0.368664
Br17  Br    Br    0.295786 0.593160 0.625868 -0.328940
Br18  Br    Br    0.563707 0.879192 0.473603 -0.324401
Br19  Br    Br    0.598447 0.124744 0.583698 -0.418049
Br20  Br    Br    0.062334 0.380118 0.473810 -0.344114
Br21  Br    Br    0.099319 0.624478 0.593069 -0.425247
Br22  Br    Br    0.122473 0.113248 0.364250 -0.473089
Br23  Br    Br    0.395689 0.569030 0.341915 -0.413255
Br24  Br    Br    0.114602 0.883960 0.357609 -0.459743
Br25  Br    Br    0.628988 0.612425 0.361014 -0.443723
Br26  Br    Br    0.613888 0.383908 0.359661 -0.425876
Br27  Br    Br    0.937161 0.804377 0.819592 -0.342898
Br28  Br    Br    0.932318 0.186291 0.793146 -0.339434
Br29  Br    Br    0.436094 0.304855 0.817087 -0.343105
Br30  Br    Br    0.433762 0.685839 0.789690 -0.350335
Br31  Br    Br    0.391952 0.433807 0.320483 -0.460564
Br32  Br    Br    0.233352 0.067243 0.757841 -0.342877
Br33  Br    Br    0.238381 0.942729 0.787712 -0.342165
Br34  Br    Br    0.753674 0.534335 0.800444 -0.360558
Br35  Br    Br    0.700369 0.413707 0.736231 -0.345990
Br36  Br    Br    0.834855 0.282312 0.894505 -0.270804
C1    C     C_R   0.906144 0.870378 0.091258 -0.109151
C2    C     C_R   0.146718 0.848180 0.094044 0.491916
C3    C     C_R   0.351377 0.669423 0.999248 0.086239
C4    C     C_R   0.706582 0.999090 0.625684 -0.055243
C5    C     C_R   0.205825 0.499282 0.626505 -0.055471
C6    C     C_R   0.068907 0.999131 0.368056 0.064386
C7    C     C_R   0.572431 0.500406 0.369601 0.046485
C8    C     C_R   0.268654 0.954297 0.270742 -0.020505
C9    C     C_R   0.267258 0.046933 0.268269 -0.092249
C10   C     C_R   0.768187 0.454524 0.276811 -0.028091
C11   C     C_R   0.766142 0.547316 0.275466 -0.024884
C12   C     C_R   0.023954 0.046057 0.758551 0.486900
C13   C     C_R   0.640839 0.653895 0.092378 0.453467
C14   C     C_R   0.024065 0.955120 0.757864 0.461159
C15   C     C_R   0.523280 0.545652 0.757097 0.489558
C16   C     C_R   0.521700 0.454760 0.755074 0.465656
C17   C     C_R   0.645157 0.347885 0.094427 0.500343
C18   C     C_R   0.323183 0.001256 0.308599 0.105642
C19   C     C_R   0.822099 0.501715 0.318184 0.060357
C20   C     C_R   0.053639 0.000867 0.729534 -0.041407
C21   C     C_R   0.550581 0.500267 0.726060 -0.049016
C22   C     C_R   0.119064 0.815921 0.005681 -0.189370
C23   C     C_R   0.108490 0.187317 0.001202 -0.038305
C24   C     C_R   0.616616 0.315270 0.006369 -0.203008
C25   C     C_R   0.917419 0.138188 0.092616 -0.009391
C26   C     C_R   0.606478 0.688258 0.003563 -0.186392
C27   C     C_3   0.025707 0.054492 0.471938 0.202257
C28   C     C_3   0.006448 0.950863 0.458590 0.131985
C29   C     C_3   0.523060 0.554907 0.468510 0.158943
C30   C     C_3   0.510571 0.450768 0.460288 0.172923
C31   C     C_3   0.012410 0.050804 0.561608 -0.428879
C32   C     C_3   0.013689 0.948826 0.563821 -0.456293
C33   C     C_3   0.530619 0.556715 0.573964 -0.505611
C34   C     C_3   0.493650 0.457249 0.546841 -0.399504
C35   C     C_3   0.169577 0.993632 0.573364 0.702656
C36   C     C_R   0.405713 0.370872 0.091199 -0.102236
C37   C     C_3   0.670392 0.496091 0.575027 0.700773
C38   C     C_3   0.067390 0.999320 0.465193 -0.109237
C39   C     C_3   0.568950 0.500755 0.465488 -0.105523
C40   C     C_3   0.064250 0.000540 0.637338 -0.030062
C41   C     C_3   0.561886 0.500323 0.634786 -0.019221
C42   C     C_R   0.824297 0.137766 0.907480 -0.061239
C43   C     C_R   0.813990 0.872645 0.906987 0.025472
C44   C     C_R   0.332080 0.643128 0.907161 -0.051711
C45   C     C_R   0.313561 0.373319 0.906985 0.019160
C46   C     C_3   0.167973 0.000212 0.677079 0.372609
C47   C     C_R   0.424758 0.643842 0.091798 -0.036701
C48   C     C_3   0.664012 0.488299 0.675100 0.383601
C49   C     C_3   0.742461 0.242853 0.901169 0.139760
C50   C     C_3   0.682225 0.793983 0.878761 0.070689
C51   C     C_3   0.240933 0.745847 0.892680 0.051678
C52   C     C_3   0.182608 0.294031 0.877593 0.086780
C53   C     C_3   0.172540 0.784314 0.891092 0.330319
C54   C     C_3   0.115775 0.256179 0.880543 0.311161
C55   C     C_3   0.673764 0.282324 0.896808 0.305258
C56   C     C_3   0.615258 0.756781 0.882875 0.339024
C57   C     C_3   0.349436 0.746847 0.105209 0.353455
C58   C     C_R   0.050163 0.844214 0.915114 0.407950
C59   C     C_3   0.325160 0.259630 0.060253 0.393682
C60   C     C_3   0.841434 0.237580 0.110171 0.346443
C61   C     C_3   0.824598 0.759098 0.061140 0.400611
C62   C     C_3   0.703545 0.175011 0.995971 -0.549889
C63   C     C_3   0.722399 0.831516 0.057716 -0.486035
C64   C     C_3   0.218989 0.679036 0.002756 -0.510050
C65   C     C_3   0.221714 0.330711 0.057322 -0.534459
C66   C     C_3   0.784001 0.203964 0.001874 0.029795
C67   C     C_3   0.763909 0.810266 0.997858 0.000019
C68   C     C_3   0.293392 0.710783 0.999769 -0.036223
C69   C     C_R   0.046427 0.155661 0.911618 0.392037
C70   C     C_3   0.263703 0.310496 0.997195 0.001942
C71   C     C_3   0.183102 0.779103 0.002024 0.026466
C72   C     C_3   0.162275 0.233765 0.999500 -0.015678
C73   C     C_3   0.678376 0.275985 0.003820 0.024866
C74   C     C_3   0.661862 0.734297 0.001943 0.021228
C75   C     C_3   0.287193 0.792564 0.097744 -0.002949
C76   C     C_3   0.262892 0.212410 0.049951 0.076386
C77   C     C_3   0.782216 0.284759 0.104474 0.022339
C78   C     C_3   0.761702 0.712141 0.050804 0.082562
C79   C     C_3   0.159895 0.719469 0.014406 -0.307794
C80   C     C_R   0.549338 0.343989 0.915329 0.411826
C81   C     C_3   0.171532 0.282813 0.070537 -0.243717
C82   C     C_3   0.647261 0.217281 0.008581 -0.298843
C83   C     C_3   0.673636 0.783895 0.073666 -0.333431
C84   C     C_3   0.470010 0.970368 0.345996 -0.498208
C85   C     C_3   0.460487 0.061451 0.412209 -0.496518
C86   C     C_3   0.967124 0.472156 0.350678 -0.500094
C87   C     C_3   0.958895 0.562125 0.421857 -0.501084
C88   C     C_R   0.752842 0.954012 0.691715 0.379053
C89   C     C_R   0.756295 0.044032 0.688772 0.310256
C90   C     C_R   0.252527 0.454129 0.691785 0.381884
C91   C     C_R   0.546107 0.656055 0.912932 0.427756
C92   C     C_R   0.255949 0.544107 0.689109 0.313688
C93   C     C_3   0.570319 0.957182 0.441753 0.602917
C94   C     C_3   0.566485 0.061761 0.484727 0.590503
C95   C     C_3   0.067847 0.458583 0.443897 0.604427
C96   C     C_3   0.064774 0.562503 0.491247 0.591090
C97   C     C_3   0.446486 0.977724 0.498070 -0.420803
C98   C     C_3   0.947351 0.476921 0.506181 -0.419372
C99   C     C_3   0.423474 0.002311 0.389653 0.031568
C100  C     C_3   0.922261 0.502864 0.397926 0.043850
C101  C     C_3   0.602833 0.000818 0.538324 -0.229078
C102  C     C_R   0.142044 0.154220 0.090360 0.407963
C103  C     C_3   0.101898 0.501170 0.542233 -0.230284
C104  C     C_3   0.550559 0.985116 0.591796 0.849857
C105  C     C_3   0.051961 0.484164 0.598060 0.849744
C106  C     C_R   0.056823 0.045057 0.306800 0.307821
C107  C     C_R   0.053619 0.953576 0.305080 0.276621
C108  C     C_R   0.557336 0.545976 0.306393 0.281225
C109  C     C_R   0.557012 0.454535 0.306930 0.327294
C110  C     C_R   0.821858 0.853444 0.998310 0.029645
C111  C     C_R   0.839574 0.160974 0.000368 0.084140
C112  C     C_R   0.321152 0.354236 0.998191 0.036848
H1    H     H_    0.933779 0.861449 0.175124 0.158225
H2    H     H_    0.053333 0.911165 0.606850 0.233840
H3    H     H_    0.581843 0.589124 0.624933 0.205732
H4    H     H_    0.499070 0.415454 0.577591 0.245342
H5    H     H_    0.703227 0.218241 0.824992 0.142987
H6    H     H_    0.644903 0.831950 0.832809 0.124457
H7    H     H_    0.199307 0.717543 0.822228 0.176420
H8    H     H_    0.144880 0.331912 0.831653 0.122559
H9    H     H_    0.186470 0.827604 0.880659 0.179147
H10   H     H_    0.096848 0.221521 0.823256 0.156961
H11   H     H_    0.691142 0.325497 0.890588 0.181751
H12   H     H_    0.949589 0.147647 0.177296 0.167262
H13   H     H_    0.595797 0.722228 0.825343 0.155317
H14   H     H_    0.771702 0.146360 0.822329 0.173131
H15   H     H_    0.757852 0.868326 0.821697 0.175909
H16   H     H_    0.281656 0.652705 0.821900 0.185684
H17   H     H_    0.257403 0.369173 0.821668 0.175801
H18   H     H_    0.730536 0.143469 0.061515 0.231187
H19   H     H_    0.777238 0.849135 0.138886 0.222104
H20   H     H_    0.251767 0.649437 0.072222 0.220694
H21   H     H_    0.276575 0.347216 0.139468 0.236263
H22   H     H_    0.657655 0.153465 0.916280 0.241425
H23   H     H_    0.433479 0.361789 0.175031 0.168380
H24   H     H_    0.671924 0.864843 0.009017 0.245568
H25   H     H_    0.173642 0.654613 0.926639 0.238093
H26   H     H_    0.172044 0.364573 0.009952 0.250884
H27   H     H_    0.572399 0.210999 0.942935 0.275115
H28   H     H_    0.605766 0.797571 0.052973 0.264378
H29   H     H_    0.085388 0.710169 0.951673 0.271680
H30   H     H_    0.102570 0.296368 0.046554 0.271725
H31   H     H_    0.173682 0.713818 0.095800 0.171292
H32   H     H_    0.212265 0.270829 0.158096 0.218710
H33   H     H_    0.657696 0.210685 0.088008 0.175430
H34   H     H_    0.458190 0.654509 0.176315 0.177990
H35   H     H_    0.717972 0.772729 0.161540 0.175761
H36   H     H_    0.366100 0.720267 0.174803 0.118292
H37   H     H_    0.372998 0.270155 0.149058 0.038618
H38   H     H_    0.857226 0.209910 0.178366 0.064626
H39   H     H_    0.872393 0.769663 0.149921 0.033125
H40   H     H_    0.297757 0.792342 0.177674 0.146273
H41   H     H_    0.294288 0.197500 0.134590 0.124313
H42   H     H_    0.789288 0.282726 0.182251 0.128292
H43   H     H_    0.793235 0.696817 0.135225 0.113734
H44   H     H_    0.430658 0.932573 0.302009 0.235320
H45   H     H_    0.937657 0.047549 0.526906 0.273686
H46   H     H_    0.433002 0.083382 0.451981 0.236350
H47   H     H_    0.927670 0.434587 0.305615 0.234062
H48   H     H_    0.932964 0.583063 0.464288 0.240399
H49   H     H_    0.468074 0.995415 0.282958 0.243971
H50   H     H_    0.433078 0.083678 0.334360 0.212098
H51   H     H_    0.963734 0.498194 0.287775 0.242432
H52   H     H_    0.929971 0.585349 0.344675 0.207766
H53   H     H_    0.427019 0.933520 0.486043 0.202858
H54   H     H_    0.403821 0.997720 0.520483 0.218042
H55   H     H_    0.928005 0.432694 0.492874 0.200493
H56   H     H_    0.943400 0.944290 0.544309 0.262516
H57   H     H_    0.905903 0.496100 0.531112 0.222151
H58   H     H_    0.290620 0.912097 0.291173 0.178496
H59   H     H_    0.286828 0.089497 0.284920 0.143253
H60   H     H_    0.790002 0.412316 0.298028 0.182285
H61   H     H_    0.783729 0.590100 0.294772 0.181924
H62   H     H_    0.077151 0.087602 0.496632 0.203283
H63   H     H_    0.031419 0.911045 0.451313 0.152181
H64   H     H_    0.559667 0.591618 0.469330 0.167772
H65   H     H_    0.551821 0.412871 0.480526 0.196441
H66   H     H_    0.290095 0.025840 0.627927 0.390958
H67   H     H_    0.462952 0.569280 0.555302 0.288909
H68   H     H_    0.177494 0.912624 0.585405 0.340900
H69   H     H_    0.702236 0.575126 0.606208 0.340782
H70   H     H_    0.781117 0.453014 0.627886 0.387771
H71   H     H_    0.580001 0.286661 0.739799 0.373449
H72   H     H_    0.500712 0.793011 0.769231 0.367367
H73   H     H_    0.074108 0.785635 0.735191 0.367179
H74   H     H_    0.000794 0.291651 0.765975 0.365670
H75   H     H_    0.426355 0.786795 0.072409 0.395994
H76   H     H_    0.439895 0.261332 0.071200 0.333013
H77   H     H_    0.967580 0.264119 0.211457 0.371706
H78   H     H_    0.421307 0.470533 0.509583 0.259269
H79   H     H_    0.939377 0.760295 0.072211 0.336062
H80   H     H_    0.551949 0.930228 0.687666 0.343124
H81   H     H_    0.623307 0.025220 0.729849 0.327124
H82   H     H_    0.055858 0.428100 0.693788 0.339904
H83   H     H_    0.127005 0.523319 0.736999 0.328101
H84   H     H_    0.102178 0.104396 0.774305 0.362048
H85   H     H_    0.978700 0.882215 0.720156 0.363041
H86   H     H_    0.606686 0.601583 0.777861 0.357635
H87   H     H_    0.478014 0.381677 0.719739 0.362143
H88   H     H_    0.173946 0.145831 0.234054 0.354378
H89   H     H_    0.036813 0.090663 0.603045 0.236123
H90   H     H_    0.181545 0.789445 0.197371 0.327400
H91   H     H_    0.655856 0.707415 0.194629 0.347758
H92   H     H_    0.671752 0.289476 0.195585 0.327050
N1    N     N_R   0.950530 0.896220 0.057200 -0.045190
N2    N     N_R   0.818150 0.028600 0.792440 -0.122523
N3    N     N_R   0.318150 0.471400 0.792440 -0.134395
N4    N     N_R   0.318150 0.528600 0.792440 -0.122679
N5    N     N_R   0.025710 0.028600 0.207560 -0.107317
N6    N     N_R   0.025710 0.971400 0.207560 -0.095738
N7    N     N_R   0.525710 0.528600 0.207560 -0.098955
N8    N     N_R   0.525710 0.471400 0.207560 -0.102680
N9    N     N_R   0.181850 0.971400 0.207560 -0.044506
N10   N     N_R   0.181850 0.028600 0.207560 -0.065506
N11   N     N_R   0.681850 0.471400 0.207560 -0.054119
N12   N     N_R   0.950530 0.103780 0.057200 -0.069731
N13   N     N_R   0.681850 0.528600 0.207560 -0.054180
N14   N     N_R   0.974290 0.028600 0.792440 -0.090096
N15   N     N_R   0.974290 0.971400 0.792440 -0.134866
N16   N     N_R   0.474290 0.528600 0.792440 -0.093196
N17   N     N_R   0.474290 0.471400 0.792440 -0.136224
N18   N     N_R   0.049470 0.896220 0.942800 -0.119395
N19   N     N_R   0.049470 0.103780 0.942800 -0.100028
N20   N     N_R   0.549470 0.396220 0.942800 -0.119919
N21   N     N_R   0.549470 0.603780 0.942800 -0.104523
N22   N     N_R   0.106670 0.103780 0.057200 -0.129717
N23   N     N_R   0.450530 0.396220 0.057200 -0.049192
N24   N     N_R   0.106670 0.896220 0.057200 -0.090432
N25   N     N_R   0.606670 0.603780 0.057200 -0.096543
N26   N     N_R   0.606670 0.396220 0.057200 -0.093127
N27   N     N_R   0.450530 0.603780 0.057200 -0.063759
N28   N     N_R   0.893330 0.103780 0.942800 -0.055548
N29   N     N_R   0.893330 0.896220 0.942800 -0.058061
N30   N     N_R   0.393330 0.603780 0.942800 -0.065369
N31   N     N_R   0.393330 0.396220 0.942800 -0.058211
N32   N     N_R   0.818150 0.971400 0.792440 -0.134116
Ni1   Ni    Ni4+2 0.065600 0.934400 0.131190 0.307470
Ni2   Ni    Ni4+2 0.065600 0.065600 0.131190 0.253852
Ni3   Ni    Ni4+2 0.565600 0.434400 0.131190 0.301999
Ni4   Ni    Ni4+2 0.565600 0.565600 0.131190 0.297242
Ni5   Ni    Ni4+2 0.934400 0.065600 0.868810 0.315683
Ni6   Ni    Ni4+2 0.934400 0.934400 0.868810 0.278324
Ni7   Ni    Ni4+2 0.434400 0.565600 0.868810 0.309282
Ni8   Ni    Ni4+2 0.434400 0.434400 0.868810 0.276557
O1    O     O_3   0.224125 0.035298 0.572246 -0.673710
O2    O     O_3   0.378047 0.243818 0.023070 -0.608579
O3    O     O_3   0.925316 0.256539 0.131854 -0.634120
O4    O     O_3   0.877512 0.742777 0.024293 -0.607384
O5    O     O_3   0.584203 0.935957 0.652664 -0.766591
O6    O     O_3   0.559695 0.027124 0.661281 -0.733279
O7    O     O_3   0.086562 0.434555 0.657128 -0.767780
O8    O     O_3   0.062650 0.525348 0.669797 -0.727741
O9    O     O_3   0.038418 0.100622 0.752134 -0.721278
O10   O     O_3   0.036479 0.901398 0.743665 -0.755481
O11   O     O_3   0.541914 0.599830 0.753506 -0.717111
O12   O     O_3   0.208503 0.942996 0.574848 -0.681858
O13   O     O_3   0.535781 0.400983 0.743711 -0.737038
O14   O     O_3   0.181433 0.174379 0.193438 -0.729654
O15   O     O_3   0.180098 0.830067 0.197429 -0.720084
O16   O     O_3   0.677952 0.669904 0.197615 -0.724775
O17   O     O_3   0.675931 0.330076 0.197137 -0.722560
O18   O     O_3   0.723171 0.542816 0.587074 -0.681559
O19   O     O_3   0.714093 0.450385 0.567502 -0.674816
O20   O     O_3   0.584836 0.269977 0.803070 -0.686722
O21   O     O_3   0.535903 0.787368 0.849379 -0.673579
O22   O     O_3   0.082804 0.769916 0.801406 -0.685146
O23   O     O_3   0.035844 0.286341 0.846193 -0.676513
O24   O     O_3   0.435795 0.765567 0.133749 -0.665457

loop_
_geom_bond_atom_site_label_1
_geom_bond_atom_site_label_2
_ccdc_geom_bond_type
C63   C67   S    
C60   C66   S    
C102  O14   S    
H79   O4    S    
H73   O22   S    
C64   C68   S    
H88   O14   S    
C14   N15   A    
C57   O24   S    
C76   H41   S    
C54   O23   S    
H76   O2    S    
C10   C19   A    
C15   C21   A    
C104  O5    S    
C105  O8    S    
Br8   C78   S    
C35   C46   S    
N5    N6    A    
C37   C39   S    
C7    C108  A    
C64   C79   S    
C15   N16   A    
C73   C82   S    
C63   H19   S    
C7    C39   S    
N22   Ni2   S    
C101  C104  S    
C1    N1    A    
C61   O4    S    
C98   H57   S    
C62   C66   S    
N28   Ni5   S    
N30   Ni7   S    
H87   O13   S    
Br21  C96   S    
C15   O11   S    
C7    C109  A    
C83   H28   S    
N25   Ni4   S    
H92   O17   S    
N26   Ni3   S    
C84   H49   S    
C34   H4    S    
H86   O11   S    
C85   C99   S    
C86   C100  S    
C61   C67   S    
C51   C53   S    
C92   N4    A    
C87   H48   S    
C27   H62   S    
N20   N26   A    
C85   H46   S    
C61   H39   S    
Br30  C91   S    
C36   N23   A    
N32   Ni6   S    
C13   C26   A    
N18   N24   A    
C34   H78   S    
H70   O19   S    
Br35  C48   S    
C53   H9    S    
C63   H24   S    
C27   C38   S    
H72   O21   S    
C41   C48   S    
C84   C99   S    
C3    C44   A    
C30   H65   S    
C50   H6    S    
C98   C105  S    
C30   C34   S    
C55   O20   S    
C25   N12   A    
Br13  C96   S    
N10   Ni2   S    
C63   C83   S    
C8    N9    A    
C93   C101  S    
Br15  C89   S    
C6    C107  A    
C97   C99   S    
N12   Ni2   S    
C19   C100  S    
C56   H13   S    
H75   O24   S    
C87   C96   S    
C32   H56   S    
C33   C41   S    
C85   C94   S    
C3    C68   S    
C96   C103  S    
C10   H60   S    
C77   H42   S    
C75   H40   S    
C43   N29   A    
C28   C32   S    
Br12  C28   S    
N14   Ni5   S    
C16   N17   A    
Br24  C107  S    
C22   C71   S    
C24   C73   S    
H82   O7    S    
C12   O9    S    
C74   C78   S    
N23   N31   A    
C34   C41   S    
Br34  C48   S    
C17   C24   A    
C62   C82   S    
C43   C110  A    
C4    C88   A    
Br14  C88   S    
C84   C93   S    
N8    Ni3   S    
C25   H12   S    
C40   C46   S    
C49   H5    S    
H91   O16   S    
C23   C102  A    
H68   O12   S    
N4    Ni7   S    
C14   C20   A    
N5    Ni2   S    
C59   C70   S    
C66   C111  S    
Br22  C106  S    
C89   N2    A    
C83   H35   S    
C62   H18   S    
H66   O1    S    
H81   O6    S    
N23   Ni3   S    
C11   H61   S    
C1    C110  A    
C24   C80   A    
Br25  C108  S    
C35   O12   S    
C86   C95   S    
C65   C70   S    
C88   N32   A    
C78   H43   S    
C71   C75   S    
C72   C81   S    
Br27  C58   S    
N13   Ni4   S    
C74   C83   S    
C82   H27   S    
Br4   C52   S    
C32   C40   S    
Br32  C46   S    
C107  N6    A    
Br23  C29   S    
C54   C72   S    
C103  C105  S    
C56   C74   S    
C58   N18   A    
C18   C99   S    
N1    N29   A    
N9    Ni1   S    
C10   N11   A    
C95   C103  S    
C62   H22   S    
C8    C18   A    
C108  N7    A    
C104  O6    S    
C61   C78   S    
C105  O7    S    
C49   C66   S    
C56   O21   S    
N16   Ni7   S    
C86   H47   S    
C23   C69   A    
C52   H8    S    
C59   C76   S    
C26   C91   A    
C37   O19   S    
N3    N4    A    
N1    Ni1   S    
C44   H16   S    
C29   H64   S    
C2    C22   A    
H80   O5    S    
N12   N28   A    
C102  N22   A    
N18   Ni6   S    
C65   H21   S    
C16   O13   S    
Br33  C46   S    
C55   H11   S    
Br19  C94   S    
C97   H53   S    
N27   Ni4   S    
C6    C38   S    
C60   O3    S    
C35   O1    S    
C36   H23   S    
C60   H38   S    
C98   H55   S    
H84   O9    S    
C31   H89   S    
C72   C76   S    
N2    N32   A    
Br10  C94   S    
N21   N25   A    
N14   N15   A    
C21   C41   S    
H90   O15   S    
N21   Ni7   S    
Br28  C69   S    
C45   C112  A    
C4    C101  S    
C53   C71   S    
C8    H58   S    
N9    N10   A    
C42   C111  A    
C57   C75   S    
N31   Ni8   S    
C52   C54   S    
N15   Ni6   S    
C60   C77   S    
Br20  C95   S    
C12   N14   A    
C81   H30   S    
C59   H37   S    
C82   H33   S    
C97   H54   S    
C37   O18   S    
Br6   C76   S    
C5    C90   A    
N6    Ni1   S    
C1    H1    S    
N3    Ni8   S    
C35   C38   S    
Br17  C92   S    
C13   N25   A    
Br36  C49   S    
H74   O23   S    
N24   Ni1   S    
C65   C81   S    
C25   C111  A    
C3    C47   A    
C55   C73   S    
C29   C33   S    
C30   C39   S    
N27   N30   A    
H77   O3    S    
C5    C103  S    
C16   C21   A    
C51   C68   S    
C97   C104  S    
C90   N3    A    
C28   C38   S    
Br18  C93   S    
N2    Ni5   S    
N7    Ni4   S    
C94   C101  S    
Br16  C90   S    
Br31  C30   S    
C20   C40   S    
C33   H67   S    
C17   O17   S    
N19   N22   A    
C49   C55   S    
N11   Ni3   S    
H69   O18   S    
C11   N13   A    
C84   H44   S    
N20   Ni8   S    
C57   H36   S    
N11   N13   A    
C4    C89   A    
C17   N26   A    
C45   N31   A    
C70   C112  S    
C13   O16   S    
C6    C106  A    
C28   H63   S    
C86   H51   S    
C14   O10   S    
C37   C48   S    
C80   N20   A    
C81   H32   S    
C73   C77   S    
C106  N5    A    
C69   N19   A    
C5    C92   A    
C65   H26   S    
C50   C67   S    
Br1   C27   S    
C57   C68   S    
C85   H50   S    
C27   C31   S    
Br3   C51   S    
C33   H3    S    
C87   H52   S    
C32   H2    S    
C98   C100  S    
Br5   C75   S    
C36   C112  A    
C91   N21   A    
C47   H34   S    
C42   N28   A    
C54   H10   S    
Br26  C109  S    
C2    N24   A    
C9    N10   A    
C52   C70   S    
C26   C74   S    
C59   O2    S    
N16   N17   A    
C79   H29   S    
C71   C79   S    
C53   O22   S    
H71   O20   S    
Br29  C80   S    
C9    C18   A    
C42   H14   S    
C2    O15   S    
C51   H7    S    
C11   C19   A    
C12   C20   A    
C109  N8    A    
C43   H15   S    
Br11  C95   S    
N7    N8    A    
Br9   C93   S    
C23   C72   S    
C29   C39   S    
C87   C100  S    
C64   H20   S    
Br7   C77   S    
C47   N27   A    
C22   C58   A    
N19   Ni5   S    
C50   C56   S    
N29   Ni6   S    
Br2   C50   S    
C44   N30   A    
H83   O8    S    
N17   Ni8   S    
C9    H59   S    
C64   H25   S    
C45   H17   S    
H85   O10   S    
C31   C40   S    
C31   H45   S    
C79   H31   S    
C67   C110  S    
