data_mof_unit_28053.cif
_audit_creation_date              2012-10-26T18:26:11-0400
_audit_creation_method            fapswitch 2.2
_symmetry_space_group_name_H-M    P1
_symmetry_Int_Tables_number       1
_space_group_crystal_system       triclinic
_cell_length_a                    13.81731
_cell_length_b                    8.750863
_cell_length_c                    7.600343
_cell_angle_alpha                 103.139796
_cell_angle_beta                  90.242184
_cell_angle_gamma                 95.406653
_cell_volume                      890.629395963

loop_
_atom_site_label
_atom_site_type_symbol
_atom_type_description
_atom_site_fract_x
_atom_site_fract_y
_atom_site_fract_z
_atom_type_partial_charge
C1    C     C_R   0.494605 0.200050 0.454302 0.564978
C2    C     C_1   0.867728 0.474289 0.439875 0.087385
C3    C     C_2   0.478664 0.031208 0.435291 0.246602
C4    C     C_2   0.521136 0.967132 0.558785 0.268711
C5    C     C_3   0.419290 0.916974 0.145224 0.020731
C6    C     C_3   0.324991 0.854613 0.038251 -0.278382
C7    C     C_3   0.683293 0.030959 0.617768 -0.016387
C8    C     C_3   0.758354 0.140231 0.744828 -0.290246
C9    C     C_R   0.503997 0.799523 0.544981 0.559235
C10   C     C_R   0.319361 0.504425 0.529694 0.559012
C11   C     C_R   0.680643 0.495663 0.470433 0.529035
C12   C     C_1   0.782121 0.484788 0.452026 0.068469
C13   C     C_1   0.217981 0.516203 0.548868 0.080573
C14   C     C_2   0.970386 0.462882 0.431164 0.242163
C15   C     C_2   0.029898 0.539947 0.571269 0.195557
C16   C     C_1   0.132496 0.527649 0.562107 0.059546
Cu1   Cu    Cu3+1 0.510540 0.517220 0.682700 1.185255
Cu2   Cu    Cu3+1 0.489460 0.482780 0.317300 1.194790
H1    H     H_    0.109424 0.664942 0.948891 0.372779
H2    H     H_    0.752387 0.117777 0.882629 0.211713
H3    H     H_    0.832532 0.119363 0.695238 0.143654
H4    H     H_    0.746473 0.264892 0.750328 0.206126
H5    H     H_    0.248418 0.231696 0.088120 0.389225
H6    H     H_    0.749724 0.786677 0.932838 0.384185
H7    H     H_    0.951480 0.204931 0.978953 0.385353
H8    H     H_    0.470861 0.825800 0.113524 0.183784
H9    H     H_    0.450611 0.021061 0.097476 0.197017
H10   H     H_    0.276905 0.950113 0.046040 0.207636
H11   H     H_    0.340355 0.805704 0.894300 0.135073
H12   H     H_    0.285719 0.762220 0.096378 0.215101
H13   H     H_    0.690619 0.058328 0.481788 0.128184
H14   H     H_    0.699460 0.907165 0.608792 0.188550
N1    N     N_2   0.473570 0.456830 0.042740 0.034965
N2    N     N_2   0.526430 0.543170 0.957260 0.009532
O1    O     O_R   0.506850 0.286020 0.618680 -0.449551
O2    O     O_2   0.921096 0.559489 0.865358 -0.231325
O3    O     O_3   0.079920 0.750657 0.909062 -0.471935
O4    O     O_2   0.087122 0.440292 0.148158 -0.264348
O5    O     O_2   0.061561 0.210284 0.281840 -0.262095
O6    O     O_3   0.921111 0.268536 0.085269 -0.494762
O7    O     O_3   0.398817 0.949819 0.331475 -0.571948
O8    O     O_3   0.589475 0.054560 0.685647 -0.563245
O9    O     O_2   0.287811 0.481434 0.970018 -0.310744
O10   O     O_2   0.358088 0.254806 0.781802 -0.254398
O11   O     O_3   0.320080 0.246884 0.105349 -0.496756
O12   O     O_R   0.493150 0.713980 0.381320 -0.500809
O13   O     O_2   0.644494 0.738113 0.219100 -0.328455
O14   O     O_2   0.711451 0.511099 0.022203 -0.241238
O15   O     O_3   0.680532 0.753510 0.897204 -0.497619
O16   O     O_R   0.489050 0.256940 0.310110 -0.506139
O17   O     O_R   0.510950 0.743060 0.689890 -0.497032
O18   O     O_R   0.372320 0.516630 0.676100 -0.477434
O19   O     O_R   0.627680 0.483370 0.323900 -0.447739
O20   O     O_R   0.354510 0.487550 0.367530 -0.448099
O21   O     O_R   0.645490 0.512450 0.632470 -0.464192
O22   O     O_2   0.929531 0.782450 0.719949 -0.269802
S1    S     S_3+6 0.986530 0.659761 0.769887 0.042313
S2    S     S_3+6 0.013859 0.343012 0.232992 0.040318
S3    S     S_3+6 0.359357 0.361948 0.965848 0.155146
S4    S     S_3+6 0.641556 0.634352 0.032800 0.141984

loop_
_geom_bond_atom_site_label_1
_geom_bond_atom_site_label_2
_ccdc_geom_bond_type
C8    H4    S    
C11   C12   S    
O14   S4    D    
H5    O11   S    
Cu1   O1    S    
C1    O16   A    
Cu1   O21   S    
C9    O17   A    
O9    S3    D    
C11   O21   A    
C2    C12   T    
Cu1   O17   S    
Cu1   Cu2   S    
C4    C9    S    
C10   O18   A    
C7    C8    S    
N1    S3    S    
O4    S2    D    
N2    S4    S    
C15   S1    S    
Cu2   O16   S    
C8    H2    S    
O15   S4    S    
C4    O8    S    
C2    C14   S    
C15   C16   S    
Cu2   O12   S    
Cu1   O18   S    
C6    H12   S    
N1    N2    D    
H7    O6    S    
C3    O7    S    
C5    C6    S    
C10   O20   A    
Cu2   N1    S    
O3    S1    S    
C7    O8    S    
C7    H13   S    
Cu1   N2    S    
Cu2   O20   S    
O10   S3    D    
C5    H8    S    
C9    O12   A    
C6    H11   S    
O6    S2    S    
O22   S1    D    
C1    O1    A    
O2    S1    D    
C13   C16   T    
H6    O15   S    
C8    H3    S    
C5    O7    S    
C14   C15   D    
O11   S3    S    
C7    H14   S    
H1    O3    S    
Cu2   O19   S    
O13   S4    D    
C5    H9    S    
O5    S2    D    
C6    H10   S    
C3    C4    D    
C14   S2    S    
C1    C3    S    
C10   C13   S    
C11   O19   A    
