data_mof_unit_18525.cif
_audit_creation_date              2013-03-05T15:44:18-0500
_audit_creation_method            fapswitch 2.2
_symmetry_space_group_name_H-M    P1
_symmetry_Int_Tables_number       1
_space_group_crystal_system       triclinic
_cell_length_a                    20.912026
_cell_length_b                    7.096604
_cell_length_c                    16.355351
_cell_angle_alpha                 88.693937
_cell_angle_beta                  92.612465
_cell_angle_gamma                 88.440166
_cell_volume                      2423.08228526

loop_
_atom_site_label
_atom_site_type_symbol
_atom_site_description
_atom_site_fract_x
_atom_site_fract_y
_atom_site_fract_z
_atom_type_partial_charge
O1    O     O_R   0.564840 0.505290 0.579830 -0.553716
O2    O     O_R   0.435160 0.005290 0.420170 -0.562875
O3    O     O_R   0.556720 0.179930 0.409350 -0.557766
O4    O     O_R   0.443280 0.679930 0.590650 -0.544135
C1    C     C_R   0.570485 0.344699 0.381031 0.900428
C2    C     C_R   0.429746 0.844958 0.619024 0.900602
O5    O     O_R   0.572280 0.175810 0.578530 -0.565691
O6    O     O_R   0.427720 0.675810 0.421470 -0.554593
O7    O     O_R   0.450830 0.001920 0.590540 -0.558565
O8    O     O_R   0.549170 0.501920 0.409460 -0.543715
C3    C     C_R   0.590530 0.340242 0.604808 0.869069
C4    C     C_R   0.410251 0.848464 0.394755 0.870400
O9    O     O_3   0.460130 0.338030 0.503750 -0.277327
O10   O     O_3   0.539870 0.838030 0.496250 -0.274048
V1    V     V_3+5 0.507400 0.064560 0.499310 1.186850
V2    V     V_3+5 0.492600 0.564560 0.500690 1.204582
C5    C     C_R   0.143715 0.888738 0.167135 -0.101605
C6    C     C_R   0.853352 0.433055 0.835222 -0.099186
C7    C     C_R   0.356695 0.876680 0.332147 -0.095569
C8    C     C_R   0.646154 0.332801 0.665637 -0.091152
C9    C     C_R   0.301932 0.083778 0.227974 -0.025172
C10   C     C_R   0.715860 0.146302 0.763030 -0.037556
C11   C     C_R   0.354693 0.040113 0.281186 -0.085984
C12   C     C_R   0.661405 0.163555 0.710167 -0.086528
C13   C     C_R   0.304939 0.754754 0.327233 -0.075080
C14   C     C_R   0.686657 0.486332 0.676410 -0.071307
C15   C     C_R   0.251190 0.799218 0.274265 0.077688
C16   C     C_R   0.742133 0.468933 0.728994 0.084233
C17   C     C_R   0.249443 0.965709 0.224534 0.102962
C18   C     C_R   0.757087 0.297230 0.772412 0.105102
C19   C     C_R   0.195596 0.010335 0.171707 -0.074723
C20   C     C_R   0.812702 0.279696 0.824783 -0.073541
C21   C     C_R   0.145875 0.724997 0.217902 -0.082942
C22   C     C_R   0.837884 0.602543 0.790985 -0.081848
C23   C     C_R   0.198765 0.680984 0.270788 -0.070556
C24   C     C_R   0.783273 0.619993 0.738456 -0.066446
H1    H     H_    0.195074 0.135454 0.132362 0.094394
H2    H     H_    0.823347 0.148831 0.858787 0.089281
H3    H     H_    0.106571 0.628599 0.216081 0.084986
H4    H     H_    0.868091 0.723463 0.797148 0.085814
H5    H     H_    0.301944 0.211209 0.190169 0.100628
H6    H     H_    0.725937 0.014085 0.796164 0.087655
H7    H     H_    0.198838 0.553317 0.308448 0.075426
H8    H     H_    0.773092 0.752359 0.705481 0.066307
H9    H     H_    0.393986 0.136545 0.283165 0.086605
H10   H     H_    0.631201 0.042659 0.703874 0.090432
H11   H     H_    0.305447 0.629534 0.366518 0.112039
H12   H     H_    0.676056 0.617198 0.642383 0.104454
C25   C     C_R   0.380395 0.892732 0.835183 -0.014398
C26   C     C_R   0.622125 0.315226 0.165072 -0.014104
H13   H     H_    0.468393 0.896782 0.773709 0.088248
H14   H     H_    0.535317 0.276114 0.226655 0.085480
H15   H     H_    0.405806 0.902855 0.893879 0.153546
H16   H     H_    0.597730 0.293519 0.106511 0.153055
C27   C     C_R   0.388108 0.856850 0.689400 -0.140463
C28   C     C_R   0.612286 0.350714 0.310582 -0.139529
C29   C     C_R   0.077922 0.934433 0.732013 -0.092220
C30   C     C_R   0.922221 0.399014 0.268031 -0.092224
C31   C     C_R   0.112695 0.949040 0.661944 -0.061586
C32   C     C_R   0.888345 0.372030 0.338223 -0.064283
C33   C     C_R   0.179307 0.934096 0.667122 0.017320
C34   C     C_R   0.821925 0.359814 0.333055 0.013206
C35   C     C_R   0.213264 0.895126 0.742710 0.061262
C36   C     C_R   0.786844 0.382807 0.257271 0.061865
C37   C     C_R   0.177437 0.894293 0.815016 -0.044387
C38   C     C_R   0.822429 0.396298 0.184930 -0.044812
C39   C     C_R   0.281853 0.873107 0.749268 -0.054740
C40   C     C_R   0.718128 0.376772 0.250672 -0.053571
C41   C     C_R   0.313113 0.887551 0.828250 -0.056715
C42   C     C_R   0.688251 0.347778 0.171876 -0.056736
C43   C     C_R   0.276739 0.892588 0.899106 0.363013
C44   C     C_R   0.724650 0.355552 0.101039 0.362582
C45   C     C_R   0.210119 0.886433 0.891794 -0.114352
C46   C     C_R   0.790075 0.388896 0.108197 -0.112416
C47   C     C_R   0.320892 0.838866 0.680698 0.317640
C48   C     C_R   0.677727 0.396476 0.319036 0.317159
C49   C     C_R   0.416839 0.886432 0.766361 -0.166430
C50   C     C_R   0.585636 0.307977 0.233866 -0.163269
C51   C     C_R   0.109386 0.910931 0.808907 -0.071566
C52   C     C_R   0.890354 0.407674 0.191036 -0.072365
H17   H     H_    0.026168 0.949207 0.726586 0.056138
H18   H     H_    0.973951 0.405898 0.273511 0.054701
H19   H     H_    0.203191 0.963653 0.611513 0.131988
H20   H     H_    0.799545 0.322338 0.388914 0.130403
H21   H     H_    0.087885 0.976841 0.603177 0.079184
H22   H     H_    0.913925 0.356055 0.397138 0.078780
H23   H     H_    0.183858 0.887753 0.947372 0.085290
H24   H     H_    0.816262 0.396661 0.052631 0.085382
O11   O     O_R   0.950790 0.256670 0.090520 -0.554244
O12   O     O_R   0.049210 0.756670 0.909480 -0.551008
O13   O     O_R   0.927720 0.590370 0.921470 -0.560356
O14   O     O_R   0.072280 0.090370 0.078530 -0.559869
C53   C     C_R   0.909356 0.425458 0.895453 0.812165
C54   C     C_R   0.089843 0.917242 0.105018 0.813759
O15   O     O_R   0.943270 0.586180 0.090640 -0.555061
O16   O     O_R   0.056730 0.086180 0.909360 -0.556681
O17   O     O_R   0.064850 0.759970 0.079840 -0.556704
O18   O     O_R   0.935150 0.259970 0.920160 -0.558500
C55   C     C_R   0.930165 0.417532 0.118817 0.806628
C56   C     C_R   0.069627 0.917839 0.881140 0.806279
O19   O     O_3   0.039850 0.428050 0.996240 -0.271591
O20   O     O_3   0.960150 0.928050 0.003760 -0.275330
V3    V     V_3+5 0.992610 0.701540 0.000700 1.148379
V4    V     V_3+5 0.007390 0.201540 0.999300 1.142146
N1    N     N_R   0.294442 0.762527 0.606329 0.057427
O21   O     O_R   0.306200 0.838244 0.535573 -0.414175
O22   O     O_R   0.260137 0.612445 0.609198 -0.366232
N2    N     N_R   0.699935 0.485113 0.392740 0.058622
O23   O     O_R   0.726735 0.648220 0.388643 -0.362468
O24   O     O_R   0.691578 0.407056 0.464076 -0.412431
N3    N     N_R   0.306539 0.904447 0.979620 0.074800
O25   O     O_R   0.289070 0.792844 0.038250 -0.372275
O26   O     O_R   0.340819 0.049091 0.998085 -0.370387
N4    N     N_R   0.696132 0.329044 0.020713 0.076032
O27   O     O_R   0.708611 0.444662 0.961003 -0.368323
O28   O     O_R   0.669034 0.170868 0.003690 -0.364987

loop_
_geom_bond_atom_site_label_1
_geom_bond_atom_site_label_2
_geom_bond_distance
_ccdc_geom_bond_type
C35   C37   1.428486 A    
C28   C48   1.416462 A    
C15   C17   1.417755 A    
C29   C51   1.396932 A    
C1    C28   1.478232 S    
N3    O25   1.301272 A    
O1    C3    1.323373 A    
C2    C27   1.477146 S    
O2    C4    1.309828 A    
C2    O7    1.293826 A    
H13   C49   1.083993 S    
N4    O27   1.301299 A    
C37   C45   1.401275 A    
C37   C51   1.423533 A    
O5    C3    1.313085 A    
N1    O22   1.301386 A    
C26   H16   1.080647 S    
O11   C55   1.311064 A    
C11   H9    1.083397 S    
C36   C40   1.437993 A    
C30   H18   1.083932 S    
C27   C49   1.392638 A    
O15   C55   1.313049 A    
C29   C31   1.388352 A    
C30   C32   1.388509 A    
C38   C46   1.401081 A    
C44   N4    1.436295 S    
C28   C50   1.392730 A    
N2    O23   1.301383 A    
C32   C34   1.392880 A    
C41   C43   1.415501 A    
C45   H23   1.083328 S    
C34   C36   1.415095 A    
C8    C12   1.411675 A    
N2    O24   1.301170 A    
C43   N3    1.436168 S    
C48   N2    1.436632 S    
C20   H2    1.084092 S    
C23   H7    1.083806 S    
C13   H11   1.084184 S    
C22   C24   1.398442 A    
C14   H12   1.084137 S    
C27   C47   1.415866 A    
O5    V1    2.021779 S    
O6    V2    1.969186 S    
C25   C41   1.407948 A    
C17   C19   1.412153 A    
C5    C21   1.411192 A    
H14   C50   1.084052 S    
C26   C50   1.388757 A    
O12   C56   1.313684 A    
O15   V3    2.007015 S    
C35   C39   1.437443 A    
C3    C8    1.494790 S    
C31   C33   1.392711 A    
C51   C56   1.476260 S    
C44   C46   1.394962 A    
C33   H19   1.076598 S    
C43   C45   1.394796 A    
C32   H22   1.082697 S    
C54   O17   1.312057 A    
C15   C23   1.398483 A    
C9    C17   1.398814 A    
C19   H1    1.084152 S    
C39   C41   1.428017 A    
C36   C38   1.428907 A    
O4    V2    2.011507 S    
C7    C11   1.411296 A    
C31   H21   1.082712 S    
O13   C53   1.315465 A    
O6    C4    1.327516 A    
O14   C54   1.329945 A    
N3    O26   1.301232 A    
O1    V2    1.974031 S    
C21   H3    1.083410 S    
C40   C48   1.438868 A    
O20   V4    2.202870 S    
O2    V1    2.003900 S    
C6    C22   1.411603 A    
O17   V3    2.002449 S    
C9    H5    1.083808 S    
C40   C42   1.428016 A    
C47   N1    1.436634 S    
O19   V4    1.762390 S    
C9    C11   1.397263 A    
O11   V4    1.985515 S    
C5    C19   1.404935 A    
C22   H4    1.083150 S    
C24   H8    1.083569 S    
O4    C2    1.298355 A    
C6    C20   1.407788 A    
O3    V1    2.007054 S    
C34   H20   1.076616 S    
C10   C18   1.399907 A    
C33   C35   1.415195 A    
O13   V3    2.021776 S    
O3    C1    1.292451 A    
N4    O28   1.301222 A    
C30   C52   1.396916 A    
C13   C15   1.411694 A    
C38   C52   1.424041 A    
N1    O21   1.301224 A    
C14   C16   1.413212 A    
C12   H10   1.083157 S    
O16   V4    2.011450 S    
C26   C42   1.408012 A    
C1    O8    1.294303 A    
C52   C55   1.477223 S    
O8    V2    1.996484 S    
C18   C20   1.413583 A    
C10   H6    1.083570 S    
C8    C14   1.407466 A    
C25   H15   1.080683 S    
O16   C56   1.316017 A    
C4    C7    1.488897 S    
C16   C18   1.416467 A    
C21   C23   1.396658 A    
C25   C49   1.388694 A    
C10   C12   1.398956 A    
O7    V1    1.995683 S    
O20   V3    1.730475 S    
C7    C13   1.404562 A    
C29   H17   1.083900 S    
O12   V3    1.984811 S    
O14   V4    1.969214 S    
C39   C47   1.438173 A    
C16   C24   1.399631 A    
O19   V3    2.157956 S    
O9    V2    1.762607 S    
C6    C53   1.494629 S    
O10   V1    1.730683 S    
C42   C44   1.415784 A    
C5    C54   1.488670 S    
C46   H24   1.083314 S    
C53   O18   1.325693 A    
O18   V4    1.972983 S    
