data_mof_unit_43967.cif
_audit_creation_date              2013-03-05T16:15:19-0500
_audit_creation_method            fapswitch 2.2
_symmetry_space_group_name_H-M    P1
_symmetry_Int_Tables_number       1
_space_group_crystal_system       triclinic
_cell_length_a                    27.709597
_cell_length_b                    10.623752
_cell_length_c                    9.441271
_cell_angle_alpha                 90.672896
_cell_angle_beta                  90.058261
_cell_angle_gamma                 91.011491
_cell_volume                      2778.69347475

loop_
_atom_site_label
_atom_site_type_symbol
_atom_site_description
_atom_site_fract_x
_atom_site_fract_y
_atom_site_fract_z
_atom_type_partial_charge
O1    O     O_R   0.500020 0.316850 0.620870 -0.582249
O2    O     O_R   0.499980 0.683150 0.379130 -0.582467
O3    O     O_R   0.500000 0.316860 0.379090 -0.574613
O4    O     O_R   0.500000 0.683140 0.620910 -0.574924
C1    C     C_R   0.499652 0.259442 0.499252 0.792844
C2    C     C_R   0.500348 0.740558 0.500747 0.792088
O5    O     O_R   0.430270 0.500020 0.620880 -0.547325
O6    O     O_R   0.569730 0.499980 0.379120 -0.549177
O7    O     O_R   0.430250 0.500030 0.379090 -0.594310
O8    O     O_R   0.569750 0.499970 0.620910 -0.592972
C3    C     C_R   0.407449 0.498466 0.499804 0.804055
C4    C     C_R   0.592548 0.502033 0.499960 0.803517
Cu1   Cu    Cu3+1 0.500010 0.499990 0.643150 0.967965
Cu2   Cu    Cu3+1 0.499990 0.500010 0.356850 0.967002
C5    C     C_R   0.174682 0.380939 0.501183 0.550178
C6    C     C_R   0.825137 0.624582 0.500322 0.549890
O9    O     O_2   0.196962 0.271540 0.526703 -0.511200
O10   O     O_2   0.802867 0.734501 0.525840 -0.509509
N1    N     N_R   0.201304 0.489299 0.487653 -0.465214
N2    N     N_R   0.798535 0.515880 0.487662 -0.466479
C7    C     C_R   0.180157 0.602156 0.462544 0.533824
C8    C     C_R   0.819566 0.402462 0.462368 0.535694
C9    C     C_R   0.277403 0.475352 0.621081 -0.100616
C10   C     C_R   0.722698 0.509694 0.622599 -0.089778
C11   C     C_R   0.327835 0.479842 0.624398 -0.193008
C12   C     C_R   0.672293 0.503993 0.625527 -0.217765
C13   C     C_R   0.329350 0.501605 0.368883 -0.211033
C14   C     C_R   0.670472 0.521171 0.369493 -0.183580
C15   C     C_R   0.279136 0.497321 0.365951 -0.108531
C16   C     C_R   0.720696 0.526833 0.366963 -0.123122
C17   C     C_R   0.252981 0.484753 0.491796 0.359180
C18   C     C_R   0.746932 0.520543 0.493166 0.362693
C19   C     C_R   0.101566 0.497363 0.456814 -0.044109
C20   C     C_R   0.898189 0.507036 0.456439 -0.044159
C21   C     C_R   0.124352 0.382898 0.487404 -0.032800
C22   C     C_R   0.875436 0.622296 0.486337 -0.033464
C23   C     C_R   0.096486 0.272924 0.504300 -0.100810
C24   C     C_R   0.903313 0.732663 0.502792 -0.101316
C25   C     C_R   0.129553 0.608975 0.441249 -0.098301
C26   C     C_R   0.870175 0.395038 0.441373 -0.098304
C27   C     C_R   0.354256 0.493708 0.498170 -0.041814
C28   C     C_R   0.645727 0.508652 0.498686 -0.042433
H1    H     H_    0.348568 0.512228 0.269854 0.154890
H2    H     H_    0.651114 0.526050 0.270074 0.185641
H3    H     H_    0.260387 0.505362 0.265848 0.136316
H4    H     H_    0.739368 0.534219 0.266613 0.137302
H5    H     H_    0.113004 0.184888 0.531990 0.227955
H6    H     H_    0.886817 0.821376 0.530046 0.228635
C29   C     C_R   0.972407 0.388299 0.426389 -0.023451
C30   C     C_R   0.027333 0.615321 0.425921 -0.023734
C31   C     C_R   0.976599 0.618274 0.448885 0.067313
C32   C     C_R   0.023157 0.385913 0.449525 0.067389
C33   C     C_R   0.949062 0.504393 0.443495 0.070495
C34   C     C_R   0.050688 0.499661 0.443682 0.070220
C35   C     C_R   0.944324 0.279784 0.387938 -0.076648
C36   C     C_R   0.055385 0.722880 0.386963 -0.076194
C37   C     C_R   0.893345 0.281523 0.401718 -0.093734
C38   C     C_R   0.106375 0.721476 0.400817 -0.093548
O11   O     O_2   0.791225 0.297920 0.459017 -0.527940
O12   O     O_2   0.208367 0.706898 0.460213 -0.528438
C39   C     C_R   0.046732 0.274583 0.486826 -0.139263
C40   C     C_R   0.953054 0.730529 0.485575 -0.139632
H7    H     H_    0.654230 0.494676 0.726589 0.153966
H8    H     H_    0.346053 0.472787 0.725443 0.183026
H9    H     H_    0.742931 0.503582 0.720372 0.139771
H10   H     H_    0.257314 0.466543 0.718871 0.143681
H11   H     H_    0.026831 0.188472 0.508097 0.175615
H12   H     H_    0.972973 0.817133 0.506586 0.176191
C41   C     C_3   0.543251 0.045615 0.542026 -0.180101
C42   C     C_3   0.456748 0.954382 0.457972 -0.180207
C43   C     C_3   0.534416 0.958889 0.411548 -0.144141
C44   C     C_3   0.465584 0.041108 0.588449 -0.143993
H13   H     H_    0.562610 0.922309 0.339268 0.148859
H14   H     H_    0.437389 0.077687 0.660730 0.149192
H15   H     H_    0.578642 0.086160 0.576218 0.151045
H16   H     H_    0.421358 0.913833 0.423778 0.150933
C45   C     C_3   0.500455 0.877599 0.501856 -0.007631
C46   C     C_3   0.499545 0.122399 0.498142 -0.007999
C47   C     C_3   0.509334 0.962078 0.632372 -0.099428
C48   C     C_3   0.490666 0.037919 0.367626 -0.099659
H17   H     H_    0.517670 0.929115 0.740521 0.194313
H18   H     H_    0.482328 0.070881 0.259479 0.194294
C49   C     C_3   0.520525 0.601665 0.052504 -0.077636
C50   C     C_3   0.479476 0.398341 0.947489 -0.076356
C51   C     C_3   0.477076 0.594276 0.952318 0.116643
C52   C     C_3   0.522924 0.405715 0.047674 0.116094
H19   H     H_    0.537591 0.687170 0.100985 0.149501
H20   H     H_    0.462405 0.312843 0.899005 0.149688
N3    N     N_3   0.500040 0.499970 0.858290 -0.192600
N4    N     N_3   0.499960 0.500030 0.141710 -0.192656
C53   C     C_3   0.543721 0.506302 0.949470 -0.120871
C54   C     C_3   0.456284 0.493688 0.050518 -0.119933
H21   H     H_    0.580531 0.510732 0.903429 0.135822
H22   H     H_    0.419475 0.489194 0.096495 0.134809
C55   C     C_2   0.449599 0.704010 0.898494 0.849025
O13   O     O_2   0.463548 0.811102 0.926832 -0.628423
O14   O     O_R   0.407420 0.683572 0.819973 -0.758135
H23   H     H_    0.392210 0.764959 0.789257 0.329691
C56   C     C_2   0.550311 0.295797 0.101439 0.849086
O15   O     O_2   0.536316 0.188794 0.072846 -0.628395
O16   O     O_R   0.592450 0.315939 0.180212 -0.758921
H24   H     H_    0.607592 0.234442 0.210854 0.330017
C57   C     C_2   0.864407 0.167743 0.362048 0.546239
H25   H     H_    0.840305 0.169923 0.271415 0.070423
O17   O     O_2   0.865976 0.073098 0.433948 -0.485285
C58   C     C_2   0.135338 0.834035 0.360043 0.545618
H26   H     H_    0.159667 0.828864 0.270237 0.069318
O18   O     O_2   0.133594 0.931070 0.430259 -0.483949
C59   C     C_2   0.967174 0.175738 0.306150 0.840776
O19   O     O_2   0.956533 0.065892 0.329729 -0.557230
O20   O     O_R   0.001282 0.204730 0.201832 -0.734704
H27   H     H_    0.014139 0.127032 0.152446 0.354475
C60   C     C_2   0.032462 0.824905 0.304697 0.840891
O21   O     O_2   0.043043 0.935329 0.327993 -0.556166
O22   O     O_R   0.998300 0.793372 0.200415 -0.735347
H28   H     H_    0.985310 0.869905 0.150974 0.353643

loop_
_geom_bond_atom_site_label_1
_geom_bond_atom_site_label_2
_geom_bond_distance
_ccdc_geom_bond_type
C49   H19   1.110372 S    
O16   H24   1.013818 S    
C13   C15   1.391576 A    
O20   H27   1.013593 S    
C12   H7    1.082679 S    
N1    C17   1.434127 S    
O14   H23   1.013817 S    
C5    N1    1.363592 A    
C19   C25   1.414518 A    
O1    C1    1.293754 A    
C9    H10   1.082722 S    
N1    C7    1.366847 A    
C50   C52   1.530640 S    
C44   C47   1.545845 S    
C52   C53   1.528491 S    
C59   O20   1.398886 S    
C46   C48   1.532986 S    
C58   H26   1.085248 S    
O22   H28   1.013634 S    
C14   C28   1.406384 A    
O4    Cu1   1.959492 S    
C41   C43   1.546325 S    
C13   C27   1.405705 A    
Cu2   N4    2.031198 S    
C4    C28   1.474056 S    
C55   O13   1.221670 D    
C44   C46   1.532505 S    
C36   C60   1.491518 S    
C41   H15   1.110232 S    
C24   C40   1.388573 A    
C23   H5    1.083140 S    
C24   H6    1.083112 S    
C6    N2    1.363012 A    
Cu1   N3    2.031198 S    
Cu1   Cu2   2.703037 S    
C35   C59   1.491517 S    
C42   C45   1.531543 S    
C41   C46   1.531545 S    
O2    C2    1.293749 A    
C31   C40   1.409291 A    
C5    C21   1.401092 A    
C43   C48   1.545848 S    
C51   C54   1.528416 S    
C32   C34   1.419303 A    
C45   C47   1.532981 S    
C37   C57   1.482870 S    
C42   C48   1.545458 S    
C7    O12   1.348930 S    
C48   H18   1.108749 S    
C52   N4    1.483186 S    
C11   C27   1.407133 A    
C8    O11   1.348903 S    
C43   H13   1.110244 S    
C51   N3    1.483094 S    
C2    C45   1.455758 S    
C29   C35   1.422761 A    
C25   C38   1.422674 A    
C14   H2    1.082852 S    
C30   C36   1.422787 A    
C15   H3    1.083001 S    
C31   C33   1.419311 A    
C11   H8    1.082864 S    
C9    C17   1.400494 A    
O5    C3    1.305590 A    
O7    Cu2   1.944057 S    
C10   C18   1.399915 A    
C53   H21   1.109627 S    
C39   H11   1.080778 S    
N4    C54   1.484624 S    
C56   O15   1.221680 D    
C7    C25   1.419587 A    
O6    C4    1.303589 A    
C29   C32   1.423622 A    
C8    C26   1.419930 A    
C54   H22   1.109383 S    
C30   C31   1.423477 A    
C57   O17   1.221150 D    
C30   C34   1.410464 A    
C52   C56   1.497208 S    
O7    C3    1.303799 A    
O3    Cu2   1.959491 S    
O8    C4    1.305801 A    
C10   H9    1.082738 S    
C44   H14   1.110242 S    
C49   C51   1.530690 S    
N2    C8    1.366299 A    
C35   C37   1.419152 A    
C42   H16   1.110235 S    
C20   C26   1.414829 A    
C41   C47   1.545459 S    
O4    C2    1.294341 A    
N3    C53   1.484672 S    
C50   N3    1.483325 S    
C43   C45   1.532502 S    
C12   C28   1.406889 A    
C47   H17   1.108760 S    
C60   O21   1.221558 D    
N2    C18   1.432610 S    
C19   C34   1.415804 A    
C5    O9    1.349661 S    
C49   N4    1.483420 S    
O6    Cu2   1.943665 S    
C26   C37   1.422650 A    
C21   C23   1.399820 A    
C16   H4    1.082951 S    
C50   H20   1.110375 S    
C10   C12   1.397245 A    
O3    C1    1.294340 A    
O8    Cu1   1.944057 S    
C23   C39   1.388770 A    
C55   O14   1.395799 S    
C49   C53   1.544967 S    
C40   H12   1.080772 S    
C32   C39   1.409346 A    
C22   C24   1.399690 A    
C15   C17   1.398861 A    
C59   O19   1.221648 D    
C6    C22   1.400741 A    
C16   C18   1.398044 A    
C51   C55   1.497138 S    
C58   O18   1.220776 D    
C29   C33   1.410462 A    
C14   C16   1.392161 A    
C19   C21   1.412736 A    
C36   C38   1.419164 A    
C3    C27   1.474006 S    
C20   C22   1.412819 A    
C9    C11   1.397732 A    
O2    Cu2   1.954519 S    
C13   H1    1.082512 S    
O5    Cu1   1.943665 S    
O1    Cu1   1.954520 S    
C20   C33   1.415833 A    
C6    O10   1.349678 S    
C57   H25   1.085651 S    
C42   C44   1.546326 S    
C50   C54   1.544778 S    
C38   C58   1.483176 S    
C1    C46   1.455775 S    
C56   O16   1.395701 S    
C60   O22   1.398864 S    
