data_mof_unit_42777.cif
_audit_creation_date              2012-10-26T19:04:45-0400
_audit_creation_method            fapswitch 2.2
_symmetry_space_group_name_H-M    P1
_symmetry_Int_Tables_number       1
_space_group_crystal_system       triclinic
_cell_length_a                    9.646105
_cell_length_b                    10.765634
_cell_length_c                    13.428976
_cell_angle_alpha                 92.234839
_cell_angle_beta                  73.693365
_cell_angle_gamma                 90.181991
_cell_volume                      1337.39041311

loop_
_atom_site_label
_atom_site_type_symbol
_atom_type_description
_atom_site_fract_x
_atom_site_fract_y
_atom_site_fract_z
_atom_type_partial_charge
C1    C     C_R   0.499438 0.737164 0.502225 0.541825
C2    C     C_R   0.387304 0.441945 0.807013 -0.001365
C3    C     C_R   0.316067 0.878228 0.680097 -0.117883
C4    C     C_R   0.424743 0.482847 0.697778 0.555029
C5    C     C_R   0.225481 0.946756 0.764320 0.057199
C6    C     C_R   0.219740 0.076136 0.760042 -0.099421
C7    C     C_R   0.305860 0.136769 0.675111 -0.080281
C8    C     C_R   0.400220 0.069333 0.591220 0.047623
C9    C     C_R   0.403175 0.938321 0.592789 -0.000908
C10   C     C_R   0.497941 0.871242 0.508524 0.011189
C11   C     C_R   0.594337 0.932490 0.428423 -0.137947
C12   C     C_R   0.448201 0.433238 0.971416 -0.004547
C13   C     C_R   0.594016 0.060740 0.428233 -0.146809
C14   C     C_R   0.496018 0.129134 0.507412 0.038473
C15   C     C_R   0.907125 0.327145 0.369692 -0.058758
C16   C     C_R   0.499079 0.262857 0.501618 0.538088
C17   C     C_R   0.001764 0.237868 0.310610 -0.111051
C18   C     C_R   0.145016 0.238752 0.309598 -0.160669
C19   C     C_R   0.193750 0.327235 0.369485 -0.093022
C20   C     C_R   0.099018 0.414071 0.436930 0.165453
C21   C     C_R   0.949838 0.414291 0.436781 0.145629
C22   C     C_R   0.904118 0.584342 0.557399 0.013464
C23   C     C_R   0.492980 0.430030 0.861946 0.029871
C24   C     C_R   0.052138 0.585435 0.556064 0.040464
C25   C     C_R   0.576601 0.501715 0.300560 0.533482
C26   C     C_R   0.796674 0.526527 0.022892 -0.073849
C27   C     C_R   0.617992 0.502043 0.186933 -0.001781
C28   C     C_R   0.244416 0.412427 0.857922 -0.138819
C29   C     C_R   0.203442 0.384916 0.962926 0.054017
C30   C     C_R   0.302410 0.404286 0.020859 -0.111419
C31   C     C_2   0.139361 0.884123 0.857950 0.593637
C32   C     C_2   0.894820 0.477115 0.798838 0.529744
C33   C     C_2   0.057863 0.335175 0.011653 0.553898
C34   C     C_R   0.552246 0.461877 0.025681 0.004312
C35   C     C_2   0.686392 0.319670 0.721918 0.307977
C36   C     C_R   0.697736 0.485900 0.968649 0.026439
C37   C     C_R   0.743209 0.457853 0.860404 0.042211
C38   C     C_R   0.641414 0.410743 0.811815 -0.000456
C39   C     C_R   0.515312 0.471149 0.134649 -0.127148
C40   C     C_R   0.757513 0.533069 0.130673 -0.114129
Cu1   Cu    Cu3+1 0.359340 0.500010 0.500010 0.940808
Cu2   Cu    Cu3+1 0.640660 0.499990 0.499990 0.940592
H1    H     H_    0.837414 0.560396 0.169962 0.157718
H2    H     H_    0.307137 0.324936 0.357948 0.178941
H3    H     H_    0.089595 0.656994 0.600700 0.128234
H4    H     H_    0.907512 0.547568 0.983623 0.189300
H5    H     H_    0.407213 0.453538 0.181062 0.122332
H6    H     H_    0.166318 0.406793 0.814777 0.200840
H7    H     H_    0.264552 0.389352 0.102829 0.138846
H8    H     H_    0.668557 0.880518 0.364924 0.126665
H9    H     H_    0.983999 0.898387 0.994675 0.343575
H10   H     H_    0.064421 0.593292 0.765811 0.354475
H11   H     H_    0.878800 0.252392 0.992023 0.352324
H12   H     H_    0.320449 0.778221 0.684404 0.153767
H13   H     H_    0.787885 0.327997 0.662533 0.165946
H14   H     H_    0.151141 0.131234 0.823764 0.208097
H15   H     H_    0.300000 0.236922 0.677337 0.158482
H16   H     H_    0.668450 0.106911 0.364828 0.105200
H17   H     H_    0.831109 0.653290 0.605080 0.141226
H18   H     H_    0.803024 0.325519 0.357619 0.183087
H19   H     H_    0.964697 0.170597 0.261894 0.154423
H20   H     H_    0.219990 0.172470 0.259882 0.130624
N1    N     N_R   0.852480 0.498790 0.499000 -0.270003
N2    N     N_R   0.148360 0.498710 0.498970 -0.236186
O1    O     O_R   0.381190 0.680360 0.500010 -0.505696
O2    O     O_R   0.035055 0.951204 0.934568 -0.681828
O3    O     O_2   0.964499 0.392429 0.744425 -0.542493
O4    O     O_R   0.957722 0.593465 0.803638 -0.703175
O5    O     O_2   0.010063 0.336448 0.106089 -0.558640
O6    O     O_R   0.975263 0.284932 0.949696 -0.690630
O7    O     O_2   0.608205 0.232745 0.713753 -0.514637
O8    O     O_R   0.618760 0.680340 0.500000 -0.495991
O9    O     O_R   0.323240 0.499990 0.650990 -0.509672
O10   O     O_R   0.560820 0.499960 0.650980 -0.505321
O11   O     O_R   0.381240 0.319660 0.500000 -0.530712
O12   O     O_R   0.618810 0.319640 0.499990 -0.508760
O13   O     O_R   0.439180 0.500040 0.349020 -0.525504
O14   O     O_R   0.676760 0.500010 0.349010 -0.517623
O15   O     O_2   0.160323 0.774222 0.869174 -0.528393

loop_
_geom_bond_atom_site_label_1
_geom_bond_atom_site_label_2
_ccdc_geom_bond_type
C31   O2    S    
C16   O11   A    
C15   H18   S    
C19   C20   A    
C7    C8    A    
C12   C23   A    
C37   C38   A    
C25   O13   A    
C24   H3    S    
C22   C24   A    
C28   C29   A    
Cu1   O13   S    
C5    C6    A    
C3    H12   S    
C29   C33   S    
C18   C19   A    
Cu1   Cu2   S    
C17   H19   S    
C22   N1    A    
C40   H1    S    
C28   H6    S    
C27   C39   A    
C8    C9    A    
C1    O1    A    
C9    C10   A    
C4    O10   A    
H10   O4    S    
C33   O5    D    
C32   O4    S    
C35   O7    D    
C24   N2    A    
C13   C14   A    
H11   O6    S    
Cu2   O10   S    
C1    O8    A    
C35   H13   S    
C34   C39   A    
C35   C38   S    
C22   H17   S    
C18   H20   S    
Cu1   O1    S    
C13   H16   S    
C25   O14   A    
H9    O2    S    
C20   N2    A    
C2    C4    S    
C29   C30   A    
C3    C9    A    
Cu1   O11   S    
C27   C40   A    
Cu2   O8    S    
C17   C18   A    
C32   C37   S    
C4    O9    A    
C33   O6    S    
C32   O3    D    
C26   C36   A    
C30   H7    S    
Cu2   O14   S    
C14   C16   S    
C12   C34   A    
C19   H2    S    
C39   H5    S    
C15   C17   A    
C36   C37   A    
C8    C14   A    
C12   C30   A    
C16   O12   A    
C1    C10   S    
C6    H14   S    
C3    C5    A    
C31   O15   D    
C6    C7    A    
C25   C27   S    
C23   C38   A    
Cu2   O12   S    
C11   H8    S    
C11   C13   A    
C26   C40   A    
C34   C36   A    
C21   N1    A    
C10   C11   A    
C26   H4    S    
Cu1   O9    S    
C15   C21   A    
C20   C21   A    
C2    C23   A    
C2    C28   A    
Cu1   N2    S    
Cu2   N1    S    
C7    H15   S    
C5    C31   S    
