data_mof_unit_56963.cif
_audit_creation_date              2013-03-05T15:49:44-0500
_audit_creation_method            fapswitch 2.2
_symmetry_space_group_name_H-M    P1
_symmetry_Int_Tables_number       1
_space_group_crystal_system       triclinic
_cell_length_a                    13.466738
_cell_length_b                    13.469809
_cell_length_c                    27.57171
_cell_angle_alpha                 90.796947
_cell_angle_beta                  90.106774
_cell_angle_gamma                 60.448342
_cell_volume                      4350.24163703

loop_
_atom_site_label
_atom_site_type_symbol
_atom_site_description
_atom_site_fract_x
_atom_site_fract_y
_atom_site_fract_z
_atom_type_partial_charge
O1    O     O_R   0.301780 0.195490 0.553940 -0.471477
O2    O     O_R   0.522450 0.158840 0.550250 -0.469422
C1    C     C_R   0.620337 0.101140 0.569959 0.553889
O3    O     O_R   0.694460 0.003360 0.553820 -0.508957
O4    O     O_R   0.657750 0.819520 0.549120 -0.499108
C2    C     C_R   0.598599 0.780970 0.568777 0.558202
O5    O     O_R   0.501990 0.803120 0.552700 -0.479230
O6    O     O_R   0.318230 0.023430 0.549370 -0.499439
C3    C     C_R   0.277627 0.121625 0.569159 0.561265
O7    O     O_R   0.302950 0.194150 0.446980 -0.477614
O8    O     O_R   0.523540 0.157600 0.451100 -0.457711
C4    C     C_R   0.622800 0.100755 0.431807 0.576719
O9    O     O_R   0.695630 0.002030 0.446860 -0.528898
O10   O     O_R   0.658840 0.818280 0.449970 -0.505271
C5    C     C_R   0.602211 0.776124 0.430662 0.556211
O11   O     O_R   0.503160 0.801780 0.445740 -0.507064
O12   O     O_R   0.319320 0.022190 0.450230 -0.528835
C6    C     C_R   0.276944 0.120150 0.431266 0.572946
Cr1   Cr    Cr6+3 0.417550 0.169090 0.500530 1.127544
Cr2   Cr    Cr6+3 0.669180 0.913420 0.499920 1.049911
Cr3   Cr    Cr6+3 0.413260 0.917540 0.499520 1.062803
O13   O     O_3   0.499990 0.000010 0.499990 -0.279190
C7    C     C_3   0.732356 0.592750 0.735153 0.209829
C8    C     C_3   0.767508 0.656988 0.772114 -0.083708
H1    H     H_    0.856157 0.631519 0.783101 0.144064
H2    H     H_    0.698506 0.841761 0.739385 0.115427
C9    C     C_1   0.696064 0.611170 0.899432 0.016475
C10   C     C_1   0.624137 0.742972 0.617486 0.060851
C11   C     C_3   0.638067 0.602219 0.769840 -0.070786
C12   C     C_3   0.671726 0.668318 0.806287 0.007659
C13   C     C_3   0.553571 0.716429 0.746744 0.007887
C14   C     C_3   0.647483 0.705949 0.712319 0.068055
C15   C     C_3   0.585434 0.782884 0.783884 -0.151353
C16   C     C_3   0.680983 0.772002 0.748801 -0.155191
C17   C     C_1   0.684638 0.641699 0.857970 -0.018024
C18   C     C_1   0.636858 0.723554 0.660061 0.057807
H3    H     H_    0.524624 0.860985 0.804371 0.127865
H4    H     H_    0.617864 0.534592 0.779343 0.152107
C19   C     C_3   0.049895 0.193688 0.729386 -0.090299
C20   C     C_3   0.105638 0.098633 0.767339 0.020531
H5    H     H_    0.974472 0.210587 0.707197 0.188823
H6    H     H_    0.293689 0.972967 0.738246 0.139723
C21   C     C_1   0.048737 0.227326 0.894308 0.071903
C22   C     C_1   0.228510 0.137941 0.616343 0.045146
C23   C     C_3   0.061606 0.277899 0.765041 -0.054586
C24   C     C_3   0.116679 0.181883 0.802522 0.056863
C25   C     C_3   0.181532 0.241023 0.744290 0.165944
C26   C     C_3   0.169461 0.157959 0.709276 0.014712
C27   C     C_3   0.235574 0.145975 0.781970 0.016829
C28   C     C_3   0.225730 0.061239 0.746430 -0.189512
C29   C     C_1   0.081662 0.203675 0.853209 0.091751
C30   C     C_1   0.198262 0.147531 0.657874 0.026578
H7    H     H_    0.995810 0.367026 0.774030 0.185873
C31   C     C_3   0.599113 0.274829 0.743146 0.048003
C32   C     C_3   0.548129 0.225090 0.779280 -0.138224
H8    H     H_    0.460449 0.269803 0.794744 0.164296
H9    H     H_    0.557990 0.064145 0.737008 0.113827
C33   C     C_1   0.688629 0.202136 0.902739 0.045761
C34   C     C_1   0.635874 0.132839 0.618098 0.035933
C35   C     C_3   0.709364 0.226478 0.773043 0.174410
C36   C     C_3   0.659352 0.175886 0.808700 0.038422
C37   C     C_3   0.762461 0.114523 0.742660 -0.076357
C38   C     C_3   0.651333 0.163664 0.713089 0.038500
C39   C     C_3   0.712319 0.063651 0.778975 -0.120684
C40   C     C_3   0.601117 0.112424 0.748712 -0.137865
C41   C     C_1   0.670475 0.187750 0.861120 0.023130
C42   C     C_1   0.644721 0.150584 0.660438 0.024059
H10   H     H_    0.758013 0.976601 0.794261 0.135695
H11   H     H_    0.849958 0.070605 0.727058 0.126128
C43   C     C_R   0.642564 0.718143 0.383945 0.038755
C44   C     C_R   0.723933 0.733775 0.358488 -0.086748
C45   C     C_R   0.739441 0.710578 0.309299 -0.042477
C46   C     C_R   0.676826 0.667646 0.285151 0.085155
C47   C     C_R   0.605122 0.639687 0.311603 -0.052755
C48   C     C_R   0.587152 0.665936 0.360873 -0.054733
C49   C     C_R   0.582111 0.687642 0.205678 -0.088432
C50   C     C_R   0.588336 0.671215 0.155765 -0.122787
C51   C     C_R   0.791062 0.608277 0.157995 -0.119920
C52   C     C_R   0.785165 0.622936 0.207862 -0.104138
C53   C     C_R   0.681501 0.658863 0.232215 0.057021
C54   C     C_R   0.694021 0.626084 0.132025 0.024549
H12   H     H_    0.768454 0.773556 0.375427 0.128851
H13   H     H_    0.500337 0.719235 0.223594 0.147230
H14   H     H_    0.512226 0.686487 0.136314 0.135081
H15   H     H_    0.794916 0.733323 0.289815 0.122675
H16   H     H_    0.863034 0.600326 0.227468 0.111588
H17   H     H_    0.873879 0.573283 0.140584 0.136608
H18   H     H_    0.558971 0.602716 0.293786 0.101301
H19   H     H_    0.525342 0.651722 0.380139 0.156351
C55   C     C_R   0.217019 0.138497 0.384291 -0.044917
C56   C     C_R   0.255955 0.044801 0.351372 0.000492
C57   C     C_R   0.256009 0.065810 0.301648 0.027733
C58   C     C_R   0.181010 0.175834 0.284566 -0.066201
C59   C     C_R   0.118366 0.267592 0.317475 -0.014237
C60   C     C_R   0.142980 0.250466 0.367654 0.004835
C61   C     C_R   0.093881 0.138446 0.213202 -0.129898
C62   C     C_R   0.067234 0.148962 0.164328 -0.128679
C63   C     C_R   0.163435 0.259614 0.153684 -0.115567
C64   C     C_R   0.192658 0.246484 0.202655 -0.120257
C65   C     C_R   0.155045 0.188484 0.232613 -0.001576
C66   C     C_R   0.098976 0.212296 0.134461 0.025471
H20   H     H_    0.065577 0.092516 0.236205 0.122731
H21   H     H_    0.015925 0.113203 0.150648 0.138039
H22   H     H_    0.241466 0.283897 0.217494 0.123279
H23   H     H_    0.187969 0.309420 0.131239 0.137482
C67   C     C_R   0.644550 0.138398 0.384955 0.044786
C68   C     C_R   0.568847 0.247284 0.365613 0.006981
C69   C     C_R   0.569657 0.262843 0.315579 -0.136646
C70   C     C_R   0.649233 0.175221 0.285385 0.061506
C71   C     C_R   0.733487 0.074157 0.305735 -0.082744
C72   C     C_R   0.730382 0.055208 0.354860 -0.132453
C73   C     C_R   0.655406 0.111691 0.198379 0.118746
C74   C     C_R   0.673160 0.124403 0.148814 0.014476
C75   C     C_R   0.666703 0.304610 0.169398 -0.161297
C76   C     C_R   0.652937 0.289971 0.217863 -0.157546
C77   C     C_R   0.650563 0.192680 0.232983 0.036362
C78   C     C_R   0.681248 0.221049 0.134994 0.018286
H24   H     H_    0.508598 0.343803 0.300037 0.092192
H25   H     H_    0.649077 0.352749 0.243951 0.124801
H26   H     H_    0.673585 0.378444 0.159123 0.134502
H27   H     H_    0.799547 0.008130 0.283222 0.140600
H28   H     H_    0.791633 0.972246 0.368557 0.133851
O14   O     O_R   0.819250 0.149410 0.965240 -0.484796
O15   O     O_R   0.006940 0.180310 0.968270 -0.476776
C79   C     C_R   0.004886 0.260610 0.942250 0.556558
O16   O     O_R   0.028420 0.332670 0.963010 -0.492906
O17   O     O_R   0.810130 0.520390 0.966030 -0.506357
C80   C     C_R   0.712076 0.562055 0.946510 0.551233
O18   O     O_R   0.636050 0.541380 0.962520 -0.496746
O19   O     O_R   0.666480 0.323610 0.968170 -0.492564
C81   C     C_R   0.722117 0.223257 0.949476 0.569450
O20   O     O_R   0.817280 0.156800 0.072180 -0.494741
O21   O     O_R   0.005110 0.187160 0.067410 -0.502395
C82   C     C_R   0.047198 0.244578 0.086533 0.551528
O22   O     O_R   0.026450 0.340060 0.069950 -0.513601
O23   O     O_R   0.808300 0.527240 0.065170 -0.505022
C83   C     C_R   0.709569 0.572038 0.084435 0.540907
O24   O     O_R   0.634070 0.548770 0.069460 -0.517741
O25   O     O_R   0.664650 0.330470 0.067300 -0.499064
C84   C     C_R   0.719178 0.233140 0.087026 0.599111
Cr4   Cr    Cr6+3 0.909770 0.175810 0.018240 1.071951
Cr5   Cr    Cr6+3 0.913300 0.427650 0.016090 1.040697
Cr6   Cr    Cr6+3 0.657770 0.431010 0.016900 1.049185
O26   O     O_3   0.826940 0.344820 0.017080 -0.284759
C85   C     C_2   0.340251 0.117341 0.810892 0.238593
H29   H     H_    0.421463 0.085229 0.792618 0.095911
O27   O     O_2   0.335112 0.128766 0.854939 -0.485857
Br1   Br    Br    0.236366 0.344691 0.727126 -0.487382
C86   C     C_2   0.535551 0.393917 0.724374 0.307140
H30   H     H_    0.494942 0.465312 0.749679 0.099218
O28   O     O_2   0.528230 0.411299 0.680867 -0.429146
Br2   Br    Br    0.790859 0.304003 0.794022 -0.576824
Br3   Br    Br    0.831609 0.462355 0.694900 -0.473741
C87   C     C_2   0.279586 0.929892 0.368209 0.271648
H31   H     H_    0.255360 0.919556 0.404406 0.134415
O29   O     O_2   0.317724 0.846699 0.341085 -0.506315
C88   C     C_2   0.337930 0.975647 0.267703 0.312418
H32   H     H_    0.316091 0.972086 0.230093 0.107450
O30   O     O_2   0.434156 0.907762 0.281084 -0.454068
C89   C     C_2   0.027015 0.379138 0.298896 0.194081
H33   H     H_    0.032800 0.406401 0.262731 0.108909
O31   O     O_2   0.941653 0.439701 0.322982 -0.524123
C90   C     C_2   0.090782 0.348970 0.402335 0.309811
H34   H     H_    0.072098 0.433180 0.390915 0.131998
O32   O     O_2   0.065856 0.337457 0.443643 -0.469508
C91   C     C_2   0.489524 0.347415 0.395666 0.242226
H35   H     H_    0.413419 0.415966 0.379466 0.093368
O33   O     O_2   0.511313 0.357800 0.437812 -0.467849
Br4   Br    Br    0.628957 0.989557 0.218613 -0.555726
C92   C     C_2   0.682314 0.037540 0.112412 0.258422
H36   H     H_    0.705074 0.952071 0.123534 0.155564
O34   O     O_2   0.662584 0.060655 0.069563 -0.489773
C93   C     C_2   0.434468 0.745400 0.733711 0.213071
H37   H     H_    0.375857 0.751066 0.761950 0.107154
O35   O     O_2   0.402782 0.762340 0.691650 -0.475934
C94   C     C_2   0.064371 0.016865 0.779011 0.251025
H38   H     H_    0.063807 0.960087 0.750881 0.103887
O36   O     O_2   0.031432 0.013473 0.819823 -0.473068

loop_
_geom_bond_atom_site_label_1
_geom_bond_atom_site_label_2
_geom_bond_distance
_ccdc_geom_bond_type
C51   H17   1.083335 S    
C32   H8    1.109938 S    
C38   C40   1.542773 S    
C58   C59   1.416240 A    
C61   H20   1.083837 S    
C46   C47   1.405385 A    
C90   H34   1.084977 S    
C73   C77   1.416220 A    
C80   O18   1.267671 A    
C21   C79   1.422044 S    
C45   H15   1.082784 S    
C55   C60   1.418949 A    
C19   H5    1.109608 S    
O4    Cr2   1.924624 S    
C31   C35   1.537716 S    
C93   H37   1.084539 S    
C20   C24   1.534360 S    
C24   C27   1.533125 S    
O8    Cr1   1.924098 S    
O11   Cr3   2.043526 S    
C63   H23   1.083132 S    
C12   C17   1.463292 S    
C7    C11   1.544223 S    
C90   O32   1.221307 D    
C26   C28   1.543144 S    
C60   C90   1.488675 S    
O24   Cr6   2.038723 S    
C86   O28   1.219865 D    
C71   H27   1.083475 S    
O12   C6    1.271011 A    
O4    C2    1.270959 A    
C67   C68   1.421154 A    
Cr6   O26   1.982192 S    
C32   C36   1.540096 S    
C69   C70   1.401003 A    
C35   C37   1.546139 S    
C35   Br2   1.934107 S    
C71   C72   1.386309 A    
C37   C39   1.551158 S    
C70   C77   1.468623 S    
C34   C42   1.205763 T    
C31   C32   1.545230 S    
O25   Cr6   1.923986 S    
C36   C41   1.467391 S    
C33   C41   1.205657 T    
O22   Cr5   2.045981 S    
C2    C10   1.423943 S    
C92   H36   1.083860 S    
C25   C26   1.535896 S    
O6    C3    1.270342 A    
C11   H4    1.106255 S    
O23   Cr5   1.927613 S    
C7    C8    1.545629 S    
C13   C15   1.544582 S    
C43   C44   1.404387 A    
C76   C77   1.395982 A    
C33   C81   1.434940 S    
C87   O29   1.220332 D    
O9    Cr2   2.039992 S    
C83   O24   1.269484 A    
C19   C23   1.556537 S    
C44   H12   1.083330 S    
C22   C30   1.199818 T    
C93   O35   1.220043 D    
C64   H22   1.083235 S    
C68   C91   1.482514 S    
C23   H7    1.109522 S    
C88   O30   1.220758 D    
Cr3   O13   1.969184 S    
C72   H28   1.083100 S    
C91   O33   1.220948 D    
C49   H13   1.082453 S    
C73   C74   1.414973 A    
C32   C40   1.555978 S    
H2    C16   1.109844 S    
C85   H29   1.080010 S    
C31   C86   1.496898 S    
C67   C72   1.407231 A    
C23   C25   1.544862 S    
C38   C42   1.467731 S    
O1    Cr1   2.042732 S    
C47   C48   1.390142 A    
C85   O27   1.219828 D    
C6    C55   1.482596 S    
O10   Cr2   1.919529 S    
Cr1   O13   1.981077 S    
O1    C3    1.266156 A    
C8    H1    1.110054 S    
C56   C87   1.498684 S    
C25   C27   1.537272 S    
Cr4   O26   1.981130 S    
C19   C20   1.544055 S    
C20   C94   1.496578 S    
C51   C52   1.383150 A    
C45   C46   1.398898 A    
C50   H14   1.083281 S    
C9    C17   1.204005 T    
C66   C82   1.461162 S    
C24   C29   1.454686 S    
O16   Cr5   2.044983 S    
C8    C16   1.554098 S    
C37   H11   1.109339 S    
C35   C36   1.535713 S    
O17   Cr5   1.929944 S    
C89   O31   1.220931 D    
C36   C39   1.539474 S    
C54   C83   1.455880 S    
C11   C12   1.542549 S    
C69   H24   1.084509 S    
O21   C82   1.271759 A    
C9    C80   1.432186 S    
C73   Br4   1.936180 S    
C50   C54   1.400909 A    
O7    Cr1   2.041357 S    
C68   C69   1.399081 A    
C62   C66   1.403280 A    
C61   C62   1.384957 A    
O14   Cr4   2.038217 S    
C37   C38   1.541378 S    
C15   C16   1.558042 S    
C27   C85   1.496616 S    
C49   C50   1.386901 A    
O19   Cr6   1.921172 S    
C58   C65   1.466075 S    
C87   H31   1.082461 S    
C62   H21   1.083484 S    
H6    C28   1.105502 S    
C74   C78   1.416185 A    
C94   H38   1.084311 S    
Cr2   O13   1.982487 S    
C63   C64   1.394722 A    
C76   H25   1.083985 S    
C7    Br3   1.933597 S    
C79   O16   1.287439 A    
Cr5   O26   1.969510 S    
O15   Cr4   1.923930 S    
C78   C84   1.458480 S    
O17   C80   1.273971 A    
C39   H10   1.110041 S    
C14   C18   1.458758 S    
C56   C57   1.403784 A    
C15   H3    1.109850 S    
C13   C93   1.496112 S    
O20   Cr4   2.039816 S    
C5    C43   1.456160 S    
C1    C34   1.434955 S    
C25   Br1   1.938025 S    
C3    C22   1.424819 S    
C59   C89   1.493023 S    
C12   C15   1.538910 S    
O14   C81   1.271146 A    
O2    Cr1   1.923436 S    
C13   C14   1.531316 S    
C49   C53   1.403405 A    
H9    C40   1.109209 S    
O23   C83   1.271377 A    
O6    Cr3   1.926845 S    
C74   C92   1.488959 S    
O25   C84   1.273774 A    
C75   C76   1.379542 A    
C2    O5    1.263634 A    
O18   Cr6   2.043333 S    
O20   C84   1.273012 A    
C63   C66   1.405439 A    
C88   H32   1.084198 S    
C82   O22   1.265955 A    
O21   Cr4   1.921230 S    
C64   C65   1.399646 A    
C7    C14   1.527288 S    
O2    C1    1.278875 A    
C44   C45   1.380376 A    
C11   C13   1.537773 S    
O5    Cr3   2.047639 S    
C86   H30   1.083829 S    
C89   H33   1.083473 S    
C4    C67   1.475717 S    
C51   C54   1.403602 A    
C21   C29   1.197796 T    
C55   C56   1.417278 A    
C91   H35   1.085710 S    
C92   O34   1.220975 D    
O7    C6    1.278930 A    
C20   C28   1.547067 S    
C5    O11   1.270781 A    
C61   C65   1.398248 A    
C39   C40   1.552601 S    
C94   O36   1.219987 D    
C57   C58   1.406911 A    
C46   C53   1.461645 S    
O19   C81   1.279552 A    
C59   C60   1.417364 A    
C8    C12   1.543095 S    
C75   C78   1.399486 A    
C48   H19   1.083209 S    
C52   C53   1.400703 A    
O3    Cr2   2.036410 S    
C23   C24   1.542331 S    
C26   C30   1.456536 S    
O15   C79   1.295137 A    
C4    O9    1.276663 A    
C10   C18   1.199721 T    
C27   C28   1.548608 S    
C31   C38   1.533763 S    
C43   C48   1.399794 A    
O10   C5    1.266737 A    
C57   C88   1.489508 S    
C47   H18   1.083022 S    
C70   C71   1.396648 A    
C52   H16   1.082625 S    
C75   H26   1.084791 S    
C1    O3    1.271854 A    
O8    C4    1.279742 A    
C14   C16   1.541522 S    
C19   C26   1.537275 S    
O12   Cr3   1.929290 S    
