data_mof_unit_40306.cif
_audit_creation_date              2013-03-05T16:10:40-0500
_audit_creation_method            fapswitch 2.2
_symmetry_space_group_name_H-M    P1
_symmetry_Int_Tables_number       1
_space_group_crystal_system       triclinic
_cell_length_a                    9.934903
_cell_length_b                    10.660152
_cell_length_c                    15.6355
_cell_angle_alpha                 91.02268
_cell_angle_beta                  65.91721
_cell_angle_gamma                 89.121133
_cell_volume                      1511.07643862

loop_
_atom_site_label
_atom_site_type_symbol
_atom_site_description
_atom_site_fract_x
_atom_site_fract_y
_atom_site_fract_z
_atom_type_partial_charge
O1    O     O_R   0.385370 0.683250 0.500010 -0.614088
O2    O     O_R   0.614630 0.316750 0.499990 -0.617540
O3    O     O_R   0.614700 0.683220 0.500000 -0.583938
O4    O     O_R   0.385300 0.316780 0.500000 -0.581229
C1    C     C_R   0.498818 0.739463 0.501211 0.988112
C2    C     C_R   0.501014 0.260815 0.499492 0.907401
O5    O     O_R   0.319830 0.500020 0.632250 -0.560226
O6    O     O_R   0.680170 0.499980 0.367750 -0.551337
O7    O     O_R   0.549160 0.499990 0.632240 -0.544180
O8    O     O_R   0.450840 0.500010 0.367760 -0.551319
C3    C     C_R   0.406753 0.491070 0.676146 0.948157
C4    C     C_R   0.593239 0.506724 0.323496 1.023187
Zn1   Zn    Zn3+2 0.346870 0.500020 0.500000 1.124921
Zn2   Zn    Zn3+2 0.653130 0.499980 0.500000 1.123728
C5    C     C_R   0.346481 0.478408 0.779095 -0.260400
C6    C     C_R   0.652997 0.515063 0.220019 -0.209754
C7    C     C_R   0.180140 0.574833 0.925282 -0.169982
C8    C     C_R   0.824141 0.420158 0.074051 -0.261842
C9    C     C_R   0.203248 0.523083 0.837643 0.272458
C10   C     C_R   0.797760 0.472558 0.162187 0.310971
C11   C     C_R   0.445468 0.444942 0.819847 0.238890
C12   C     C_R   0.554083 0.544560 0.178090 0.256535
C13   C     C_R   0.415578 0.487759 0.912388 -0.031518
C14   C     C_R   0.589787 0.505149 0.084195 -0.007541
C15   C     C_R   0.293607 0.572350 0.956881 0.067884
C16   C     C_R   0.713615 0.422998 0.039819 -0.004576
C17   C     C_R   0.508843 0.459038 0.958989 0.068280
C18   C     C_R   0.498976 0.534741 0.036383 0.120046
C19   C     C_R   0.401833 0.639870 0.062110 -0.168626
C20   C     C_R   0.608091 0.355082 0.932941 -0.064437
C21   C     C_R   0.291318 0.653643 0.029650 0.010041
C22   C     C_R   0.719838 0.343513 0.965145 -0.015497
H1    H     H_    0.073747 0.617398 0.968149 0.219083
H2    H     H_    0.931293 0.377864 0.032627 0.173021
H3    H     H_    0.411212 0.713163 0.107834 0.179532
H4    H     H_    0.599100 0.280791 0.887979 0.214670
C23   C     C_R   0.595153 0.931759 0.419920 -0.148510
C24   C     C_R   0.414972 0.069723 0.584866 -0.161548
C25   C     C_R   0.591394 0.061882 0.418452 0.263489
C26   C     C_R   0.411902 0.939093 0.584278 0.292327
C27   C     C_R   0.500985 0.128451 0.500756 -0.198590
C28   C     C_R   0.499845 0.872338 0.501289 -0.198365
C29   C     C_R   0.956705 0.402647 0.459194 -0.121106
C30   C     C_R   0.043193 0.597246 0.540900 -0.129723
C31   C     C_R   0.099152 0.401771 0.460484 0.346660
C32   C     C_R   0.900444 0.597850 0.540044 0.337114
N1    N     N_R   0.142780 0.500030 0.500020 -0.143202
N2    N     N_R   0.857220 0.499970 0.499980 -0.143463
C33   C     C_2   0.185559 0.761398 0.068833 0.504295
H5    H     H_    0.163593 0.798597 0.138495 0.105448
O9    O     O_2   0.128115 0.813891 0.023024 -0.499677
C34   C     C_2   0.831770 0.239704 0.926107 0.539462
H6    H     H_    0.898172 0.208780 0.962461 0.085679
O10   O     O_2   0.850473 0.186063 0.852277 -0.460840
N3    N     N_R   0.409487 0.596745 0.234911 0.198373
O11   O     O_R   0.394919 0.703702 0.279596 -0.346092
O12   O     O_R   0.292144 0.534849 0.245161 -0.328824
N4    N     N_R   0.584495 0.384480 0.762055 0.202930
O13   O     O_R   0.707534 0.441146 0.745440 -0.302751
O14   O     O_R   0.587414 0.279462 0.717529 -0.375488
N5    N     N_R   0.917074 0.480442 0.191540 0.249833
O15   O     O_R   0.928662 0.580250 0.236982 -0.370229
O16   O     O_R   0.029475 0.402421 0.156516 -0.321361
N6    N     N_R   0.082704 0.518824 0.809232 0.249165
O17   O     O_R   0.971584 0.597853 0.845891 -0.300793
O18   O     O_R   0.069331 0.421677 0.761974 -0.349094
C35   C     C_2   0.695319 0.858781 0.335736 0.557431
H7    H     H_    0.813121 0.873561 0.306812 0.126149
O19   O     O_2   0.646507 0.782939 0.297343 -0.557898
C36   C     C_2   0.334373 0.145570 0.672912 0.597661
H8    H     H_    0.291372 0.238730 0.670269 0.058049
O20   O     O_2   0.320099 0.106767 0.749107 -0.457032
N7    N     N_R   0.669544 0.126414 0.332414 0.213345
O21   O     O_R   0.808067 0.100723 0.281087 -0.364116
O22   O     O_R   0.599653 0.206353 0.302338 -0.344997
N8    N     N_R   0.321445 0.874135 0.667321 0.239529
O23   O     O_R   0.182917 0.906126 0.712837 -0.274263
O24   O     O_R   0.379546 0.788716 0.701148 -0.330187
C37   C     C_2   0.920877 0.299340 0.409307 0.623298
H9    H     H_    0.939903 0.202597 0.422573 0.088383
O25   O     O_2   0.877510 0.321452 0.348695 -0.451015
C38   C     C_2   0.078811 0.700057 0.591173 0.626555
H10   H     H_    0.060822 0.796951 0.577702 0.095349
O26   O     O_2   0.120719 0.677305 0.652349 -0.445454
N9    N     N_R   0.198107 0.297526 0.418742 0.213308
O27   O     O_R   0.172794 0.190127 0.460025 -0.386481
O28   O     O_R   0.293312 0.302143 0.332139 -0.286447
N10   N     N_R   0.800062 0.700578 0.583814 0.214030
O29   O     O_R   0.823560 0.809432 0.544632 -0.401287
O30   O     O_R   0.705539 0.692919 0.670396 -0.277913

loop_
_geom_bond_atom_site_label_1
_geom_bond_atom_site_label_2
_geom_bond_distance
_ccdc_geom_bond_type
C15   C21   1.410364 A    
C20   C22   1.398394 A    
C1    C28   1.416643 S    
C24   C36   1.493612 S    
C16   C22   1.410374 A    
N7    O21   1.300865 A    
C8    C16   1.404411 A    
N3    O11   1.301187 A    
C25   C27   1.403883 A    
N9    O27   1.301302 A    
O5    C3    1.307446 A    
O4    Zn1   1.984573 S    
O1    C1    1.291275 A    
C18   C19   1.408221 A    
N8    O24   1.300896 A    
C30   C38   1.467107 S    
N4    O14   1.301350 A    
C10   N5    1.438215 S    
C23   C28   1.407289 A    
N5    O16   1.301852 A    
C22   C34   1.489290 S    
C5    C9    1.410776 A    
C3    C5    1.480348 S    
C4    C6    1.483537 S    
C30   C32   1.423629 A    
C33   O9    1.220618 D    
C2    C27   1.411522 S    
O6    Zn2   1.973475 S    
C36   H8    1.083203 S    
C13   C17   1.425982 A    
C29   N2    1.374934 A    
C30   N1    1.374856 A    
C6    C10   1.412595 A    
O7    C3    1.302224 A    
C26   C28   1.405775 A    
C17   C20   1.410259 A    
N7    O22   1.300807 A    
O2    C2    1.287381 A    
C7    H1    1.081029 S    
C21   C33   1.487049 S    
C34   O10   1.221558 D    
C32   N10   1.430004 S    
C31   N1    1.369901 A    
C32   N2    1.369485 A    
N9    O28   1.299677 A    
C35   H7    1.084111 S    
N8    O23   1.301719 A    
C24   C27   1.407237 A    
O4    C2    1.284107 A    
Zn1   N1    2.027486 S    
Zn2   N2    2.027485 S    
N4    O13   1.302194 A    
C26   N8    1.439418 S    
C35   O19   1.217159 D    
N6    O18   1.301206 A    
C31   N9    1.429797 S    
O7    Zn2   1.897120 S    
C29   C31   1.423449 A    
C5    C11   1.417432 A    
C9    N6    1.438309 S    
O6    C4    1.310491 A    
C8    H2    1.080818 S    
O3    Zn2   1.984573 S    
O8    C4    1.300523 A    
N10   O30   1.299993 A    
C38   H10   1.084445 S    
C38   O26   1.215437 D    
N3    O12   1.301923 A    
C12   C14   1.416345 A    
O1    Zn1   1.996117 S    
C34   H6    1.083060 S    
C37   O25   1.215482 D    
C6    C12   1.420573 A    
C14   C18   1.422126 A    
C14   C16   1.417890 A    
O3    C1    1.282922 A    
O8    Zn1   1.897123 S    
C12   N3    1.441768 S    
C19   H3    1.080220 S    
C20   H4    1.078388 S    
C7    C15   1.403449 A    
N6    O17   1.301857 A    
C11   C13   1.418349 A    
C11   N4    1.439796 S    
C23   C25   1.387910 A    
C24   C26   1.393278 A    
C23   C35   1.482814 S    
C7    C9    1.395391 A    
C8    C10   1.397502 A    
C25   N7    1.443181 S    
N5    O15   1.301395 A    
O2    Zn2   1.996117 S    
C37   H9    1.084429 S    
O5    Zn1   1.973474 S    
C13   C15   1.421833 A    
N10   O29   1.301270 A    
C19   C21   1.391809 A    
C33   H5    1.085902 S    
C17   C18   1.411074 A    
C36   O20   1.221481 D    
C29   C37   1.468282 S    
