data_mof_unit_67945.cif
_audit_creation_date              2012-12-10T19:24:08-0500
_audit_creation_method            fapswitch 2.2
_symmetry_space_group_name_H-M    P1
_symmetry_Int_Tables_number       1
_space_group_crystal_system       triclinic
_cell_length_a                    10.778076
_cell_length_b                    10.757071
_cell_length_c                    9.88035
_cell_angle_alpha                 91.414857
_cell_angle_beta                  91.907553
_cell_angle_gamma                 93.588223
_cell_volume                      1142.24203274

loop_
_atom_site_label
_atom_site_type_symbol
_atom_type_description
_atom_site_fract_x
_atom_site_fract_y
_atom_site_fract_z
_atom_type_partial_charge
C1    C     C_R   0.501250 0.257891 0.498334 0.901610
C2    C     C_3   0.578739 0.581220 0.051799 0.346957
C3    C     C_R   0.257380 0.492166 0.497427 0.853043
C4    C     C_R   0.742620 0.507836 0.502573 0.853040
C5    C     C_3   0.034709 0.413989 0.584554 0.208729
C6    C     C_3   0.965290 0.586017 0.415443 0.208735
C7    C     C_3   0.940481 0.389580 0.464915 0.106727
C8    C     C_3   0.059518 0.610427 0.535083 0.106724
C9    C     C_3   0.878547 0.509371 0.507285 -0.288103
C10   C     C_3   0.121452 0.490635 0.492712 -0.288105
C11   C     C_3   0.973650 0.532711 0.628449 0.153744
C12   C     C_R   0.498750 0.742109 0.501666 0.901603
C13   C     C_3   0.026349 0.467296 0.371547 0.153739
C14   C     C_3   0.543622 0.049449 0.618473 0.199254
C15   C     C_3   0.456378 0.950550 0.381525 0.199256
C16   C     C_3   0.617622 0.966954 0.525169 0.089826
C17   C     C_3   0.382379 0.033047 0.474829 0.089819
C18   C     C_3   0.499539 0.877431 0.505234 -0.242362
C19   C     C_3   0.500462 0.122569 0.494765 -0.242365
C20   C     C_3   0.861877 0.267853 0.433438 -0.326730
C21   C     C_3   0.940056 0.164099 0.385260 -0.903766
C22   C     C_3   0.138125 0.732152 0.566560 -0.326741
C23   C     C_3   0.426592 0.961063 0.598966 0.146872
C24   C     C_3   0.059949 0.835909 0.614738 -0.903749
C25   C     C_3   0.979530 0.247671 0.744039 -0.831391
C26   C     C_3   0.020472 0.752336 0.255962 -0.831407
C27   C     C_3   0.945481 0.568079 0.774233 -0.356350
C28   C     C_3   0.061619 0.581845 0.867922 -0.888029
C29   C     C_3   0.054505 0.431928 0.225759 -0.356326
C30   C     C_3   0.938359 0.418175 0.132078 -0.887992
C31   C     C_3   0.748802 0.933016 0.563493 -0.403965
C32   C     C_3   0.750727 0.834026 0.670959 -0.872596
C33   C     C_3   0.251200 0.066991 0.436506 -0.403969
C34   C     C_3   0.573409 0.038937 0.401031 0.146875
C35   C     C_3   0.249278 0.165973 0.329030 -0.872573
C36   C     C_3   0.622700 0.046128 0.859230 -0.831547
C37   C     C_3   0.377305 0.953860 0.140766 -0.831561
C38   C     C_3   0.299710 0.004048 0.794879 -0.801519
C39   C     C_3   0.700295 0.995952 0.205121 -0.801545
C40   C     C_3   0.261077 0.257320 0.982819 -0.903112
C41   C     C_3   0.738965 0.742650 0.017198 -0.903040
C42   C     C_3   0.527646 0.392387 0.046813 -0.128371
C43   C     C_3   0.472355 0.607613 0.953187 -0.128385
C44   C     C_3   0.608348 0.475520 0.954464 -0.168865
C45   C     C_3   0.391653 0.524481 0.045536 -0.168902
C46   C     C_3   0.421262 0.418780 0.948202 0.346955
H1    H     H_    0.698817 0.453296 0.913588 0.128228
H2    H     H_    0.978048 0.841224 0.546333 0.273997
H3    H     H_    0.032395 0.821255 0.720158 0.265216
H4    H     H_    0.113221 0.926381 0.613355 0.266749
H5    H     H_    0.210754 0.715760 0.644470 0.225005
H6    H     H_    0.187665 0.761374 0.475027 0.184987
H7    H     H_    0.145958 0.270373 0.641701 0.211548
H8    H     H_    0.008813 0.235215 0.850813 0.244604
H9    H     H_    0.964679 0.154349 0.693914 0.235151
H10   H     H_    0.890152 0.293409 0.744163 0.239270
H11   H     H_    0.854058 0.729645 0.358317 0.211539
H12   H     H_    0.301183 0.546702 0.086412 0.128232
H13   H     H_    0.991183 0.764805 0.149196 0.244612
H14   H     H_    0.109845 0.706592 0.255826 0.239277
H15   H     H_    0.035334 0.845653 0.306093 0.235148
H16   H     H_    0.034802 0.610473 0.970713 0.251109
H17   H     H_    0.107341 0.492700 0.874232 0.285947
H18   H     H_    0.129485 0.654745 0.834534 0.262263
H19   H     H_    0.900336 0.656853 0.773787 0.201592
H20   H     H_    0.879716 0.496458 0.814201 0.204752
H21   H     H_    0.870502 0.345264 0.165456 0.262248
H22   H     H_    0.892628 0.507316 0.125793 0.285960
H23   H     H_    0.548889 0.301265 0.088569 0.115104
H24   H     H_    0.965170 0.389567 0.029280 0.251108
H25   H     H_    0.120275 0.503543 0.185787 0.204749
H26   H     H_    0.099640 0.343147 0.226199 0.201567
H27   H     H_    0.663821 0.827553 0.726749 0.283868
H28   H     H_    0.762586 0.742093 0.622226 0.255833
H29   H     H_    0.828035 0.856977 0.745735 0.240544
H30   H     H_    0.792792 0.897582 0.472932 0.186558
H31   H     H_    0.803117 0.018315 0.601436 0.212893
H32   H     H_    0.237426 0.257912 0.377754 0.255839
H33   H     H_    0.336181 0.172435 0.273233 0.283876
H34   H     H_    0.451114 0.698736 0.911432 0.115104
H35   H     H_    0.171964 0.143023 0.254260 0.240541
H36   H     H_    0.196880 0.981692 0.398571 0.212891
H37   H     H_    0.207216 0.102434 0.527066 0.186559
H38   H     H_    0.660063 0.184838 0.723081 0.226687
H39   H     H_    0.610650 0.105341 0.950730 0.242411
H40   H     H_    0.721361 0.022530 0.858627 0.247615
H41   H     H_    0.561336 0.960327 0.865919 0.243621
H42   H     H_    0.339931 0.815162 0.276925 0.226689
H43   H     H_    0.389349 0.894638 0.049271 0.242416
H44   H     H_    0.438678 0.039654 0.134071 0.243614
H45   H     H_    0.886789 0.073626 0.386647 0.266748
H46   H     H_    0.278647 0.977468 0.141367 0.247620
H47   H     H_    0.389197 0.842726 0.758276 0.229240
H48   H     H_    0.227347 0.957214 0.856649 0.233332
H49   H     H_    0.256844 0.077511 0.736931 0.254403
H50   H     H_    0.372929 0.048752 0.863892 0.286965
H51   H     H_    0.610799 0.157270 0.241718 0.229239
H52   H     H_    0.772652 0.042789 0.143346 0.233331
H53   H     H_    0.627080 0.951235 0.136113 0.286969
H54   H     H_    0.743170 0.922498 0.263074 0.254387
H55   H     H_    0.279132 0.362943 0.812181 0.264477
H56   H     H_    0.967604 0.178750 0.279838 0.265209
H57   H     H_    0.196395 0.187224 0.930088 0.258338
H58   H     H_    0.205780 0.321187 0.041303 0.247860
H59   H     H_    0.323557 0.208060 0.050864 0.256756
H60   H     H_    0.720814 0.637099 0.187884 0.264506
H61   H     H_    0.803599 0.812784 0.069938 0.258337
H62   H     H_    0.676511 0.791872 0.949071 0.256746
H63   H     H_    0.794321 0.678758 0.958801 0.247855
H64   H     H_    0.021960 0.158789 0.453658 0.274004
H65   H     H_    0.812338 0.238630 0.524972 0.184985
H66   H     H_    0.789246 0.284242 0.355528 0.225010
N1    N     N_3   0.499910 0.500030 0.863290 -0.118239
N2    N     N_2   0.666748 0.673675 0.113462 -0.278653
N3    N     N_3   0.500090 0.499970 0.136710 -0.118244
N4    N     N_2   0.075301 0.321004 0.676759 -0.294788
N5    N     N_2   0.924698 0.679007 0.323243 -0.294786
N6    N     N_2   0.592275 0.115876 0.741076 -0.253428
N7    N     N_2   0.407723 0.884118 0.258926 -0.253425
N8    N     N_2   0.350520 0.913087 0.706184 -0.310372
N9    N     N_2   0.649479 0.086913 0.293812 -0.310364
N10   N     N_2   0.333244 0.326332 0.886544 -0.278618
O1    O     O_R   0.500010 0.313960 0.616610 -0.600852
O2    O     O_R   0.499990 0.686040 0.383390 -0.600867
O3    O     O_R   0.500060 0.313950 0.383350 -0.640710
O4    O     O_R   0.499940 0.686050 0.616650 -0.640718
O5    O     O_R   0.313930 0.499970 0.616610 -0.628965
O6    O     O_R   0.686070 0.500030 0.383390 -0.628981
O7    O     O_R   0.313980 0.499960 0.383350 -0.630877
O8    O     O_R   0.686020 0.500040 0.616650 -0.630875
Zn1   Zn    Zn3+2 0.499970 0.500010 0.655740 0.929897
Zn2   Zn    Zn3+2 0.500030 0.499990 0.344260 0.929884

loop_
_geom_bond_atom_site_label_1
_geom_bond_atom_site_label_2
_ccdc_geom_bond_type
C15   C18   S    
C15   C34   S    
C41   H62   S    
C26   N5    S    
C41   N2    S    
C32   H29   S    
C21   H64   S    
C35   H35   S    
C45   C46   S    
C16   C31   S    
C17   C23   S    
C17   C33   S    
C37   H44   S    
H60   N2    S    
C13   C29   S    
C26   H15   S    
C1    O3    A    
C5    C11   S    
C32   H28   S    
C33   C35   S    
C3    O5    A    
C22   H5    S    
C12   O4    A    
O2    Zn2   S    
C7    C9    S    
C42   C46   S    
C39   H54   S    
H51   N9    S    
C16   C34   S    
C20   H66   S    
C2    C44   S    
C14   N6    S    
C12   O2    A    
C38   H49   S    
C8    C22   S    
C25   H10   S    
H47   N8    S    
C36   N6    S    
C26   H13   S    
C6    N5    S    
C30   H21   S    
C37   H46   S    
C44   H1    S    
O7    Zn2   S    
C38   N8    S    
C41   H63   S    
C42   C44   S    
C6    C9    S    
O6    Zn2   S    
C30   H24   S    
C31   H31   S    
N3    Zn2   S    
C36   H41   S    
C24   H4    S    
C45   H12   S    
C1    C19   S    
C4    O6    A    
C18   C23   S    
C24   H2    S    
C25   H8    S    
C25   N4    S    
C32   H27   S    
C5    C7    S    
C39   H52   S    
C6    C8    S    
C36   H40   S    
C43   H34   S    
C19   C34   S    
C42   H23   S    
H38   N6    S    
C14   C23   S    
C1    O1    A    
C29   C30   S    
C27   H19   S    
C40   H58   S    
C20   H65   S    
C33   H37   S    
C2    N3    S    
C45   N3    S    
C39   H53   S    
C31   C32   S    
C37   N7    S    
C11   C27   S    
C2    C43   S    
C38   H48   S    
C40   H57   S    
H42   N7    S    
C9    C11   S    
C21   H56   S    
C28   H18   S    
C8    C10   S    
C44   N1    S    
C34   N9    S    
C5    N4    S    
C14   C16   S    
C38   H50   S    
C23   N8    S    
H11   N5    S    
C21   H45   S    
C24   H3    S    
C15   C17   S    
N1    Zn1   S    
C46   N1    S    
O1    Zn1   S    
C3    O7    A    
C14   C19   S    
C25   H9    S    
C10   C13   S    
C4    O8    A    
H7    N4    S    
C36   H39   S    
C40   N10   S    
C35   H32   S    
H55   N10   S    
C39   N9    S    
C37   H43   S    
C29   H26   S    
O8    Zn1   S    
C5    C10   S    
C43   C45   S    
C3    C10   S    
C43   N1    S    
C6    C13   S    
C2    N2    S    
O3    Zn2   S    
C31   H30   S    
O4    Zn1   S    
C8    C11   S    
C35   H33   S    
C17   C19   S    
C15   N7    S    
C22   H6    S    
C22   C24   S    
C33   H36   S    
O5    Zn1   S    
C28   H17   S    
C41   H61   S    
C42   N3    S    
C7    C13   S    
C20   C21   S    
C16   C18   S    
C7    C20   S    
C12   C18   S    
C27   C28   S    
C27   H20   S    
C46   N10   S    
C4    C9    S    
C26   H14   S    
C30   H22   S    
C40   H59   S    
C29   H25   S    
C28   H16   S    
