data_mof_unit_10517.cif
_audit_creation_date              2012-12-10T20:12:30-0500
_audit_creation_method            fapswitch 2.2
_symmetry_space_group_name_H-M    P1
_symmetry_Int_Tables_number       1
_space_group_crystal_system       triclinic
_cell_length_a                    15.934619
_cell_length_b                    15.934279
_cell_length_c                    60.02294
_cell_angle_alpha                 89.935439
_cell_angle_beta                  89.992817
_cell_angle_gamma                 89.999696
_cell_volume                      15240.2147181

loop_
_atom_site_label
_atom_site_type_symbol
_atom_type_description
_atom_site_fract_x
_atom_site_fract_y
_atom_site_fract_z
_atom_type_partial_charge
C1    C     C_R   0.499951 0.999930 0.810398 0.816515
C2    C     C_R   0.583994 0.870302 0.453135 0.407413
C3    C     C_1   0.223412 0.723426 0.749995 -0.149724
C4    C     C_1   0.276586 0.223424 0.249996 -0.150243
C5    C     C_1   0.723406 0.776567 0.750002 -0.150189
C6    C     C_1   0.223423 0.723410 0.249995 -0.150135
C7    C     C_1   0.776568 0.276598 0.750003 -0.149960
C8    C     C_R   0.438379 0.043510 0.583063 0.546264
C9    C     C_R   0.532194 0.931861 0.417439 0.547079
C10   C     C_R   0.958645 0.436509 0.583215 0.560095
C11   C     C_R   0.067443 0.530440 0.417330 0.547233
C12   C     C_R   0.559154 0.955694 0.583182 0.559510
C13   C     C_R   0.897025 0.384308 0.547577 0.498369
C14   C     C_R   0.467723 0.066631 0.417356 0.547273
C15   C     C_R   0.045895 0.557686 0.583037 0.545789
C16   C     C_R   0.932777 0.465763 0.417484 0.547480
C17   C     C_R   0.938373 0.543486 0.083063 0.546260
C18   C     C_R   0.032239 0.431879 0.917440 0.547374
C19   C     C_R   0.458641 0.936506 0.083214 0.560092
C20   C     C_R   0.567426 0.030464 0.917330 0.547232
C21   C     C_R   0.059169 0.455699 0.083184 0.559509
C22   C     C_R   0.967712 0.566620 0.917356 0.547292
C23   C     C_R   0.545888 0.057687 0.083038 0.545787
C24   C     C_R   0.129911 0.581701 0.452919 0.409484
C25   C     C_R   0.432777 0.965754 0.917484 0.547464
C26   C     C_R   0.479828 0.925376 0.630417 0.054287
C27   C     C_R   0.423303 0.994745 0.370279 0.045643
C28   C     C_R   0.075673 0.480206 0.630475 0.058486
C29   C     C_R   0.003984 0.422300 0.370217 0.045163
C30   C     C_R   0.517942 0.074618 0.630250 0.054000
C31   C     C_R   0.576736 0.003793 0.370279 0.045612
C32   C     C_R   0.926241 0.517532 0.630194 0.049818
C33   C     C_R   0.994848 0.575730 0.370351 0.046161
C34   C     C_R   0.979839 0.425367 0.130417 0.054287
C35   C     C_R   0.610688 0.893486 0.547561 0.501645
C36   C     C_R   0.923312 0.494715 0.870280 0.045712
C37   C     C_R   0.575669 0.980201 0.130475 0.058489
C38   C     C_R   0.504005 0.922306 0.870217 0.045167
C39   C     C_R   0.017933 0.574615 0.130250 0.054000
C40   C     C_R   0.076742 0.503813 0.870278 0.045607
C41   C     C_R   0.426237 0.017529 0.130195 0.049815
C42   C     C_R   0.494822 0.075732 0.870350 0.046165
C43   C     C_R   0.480280 0.926665 0.653789 -0.255566
C44   C     C_R   0.424234 0.995828 0.346906 -0.251825
C45   C     C_R   0.074121 0.480819 0.653844 -0.255396
C46   C     C_R   0.415546 0.128371 0.452944 0.408723
C47   C     C_R   0.003340 0.423650 0.346847 -0.251876
C48   C     C_R   0.518840 0.073396 0.653639 -0.257857
C49   C     C_R   0.575794 0.003261 0.346904 -0.252166
C50   C     C_R   0.927183 0.518562 0.653586 -0.257793
C51   C     C_R   0.995822 0.575205 0.346972 -0.252067
C52   C     C_R   0.980290 0.426658 0.153789 -0.255563
C53   C     C_R   0.924240 0.495800 0.846906 -0.251817
C54   C     C_R   0.574118 0.980816 0.153843 -0.255393
C55   C     C_R   0.503363 0.923654 0.846847 -0.251884
C56   C     C_R   0.018829 0.573396 0.153639 -0.257856
C57   C     C_R   0.108950 0.607445 0.547358 0.432910
C58   C     C_R   0.075796 0.503282 0.846903 -0.252138
C59   C     C_R   0.427182 0.018561 0.153586 -0.257792
C60   C     C_R   0.495798 0.075206 0.846971 -0.252071
C61   C     C_R   0.498673 0.999894 0.618398 0.209260
C62   C     C_R   0.500018 0.999174 0.382176 0.217777
C63   C     C_R   0.001206 0.498481 0.618399 0.209094
C64   C     C_R   0.999391 0.498802 0.382183 0.217601
C65   C     C_R   0.998674 0.499887 0.118398 0.209267
C66   C     C_R   0.000027 0.499168 0.882176 0.217656
C67   C     C_R   0.501202 0.998477 0.118399 0.209100
C68   C     C_R   0.872213 0.412694 0.453177 0.408702
C69   C     C_R   0.499387 0.998807 0.882182 0.217601
C70   C     C_R   0.499136 0.999510 0.547743 -0.153912
C71   C     C_R   0.499764 0.999329 0.452759 -0.142646
C72   C     C_R   0.002491 0.496386 0.547748 -0.153951
C73   C     C_R   0.000997 0.497279 0.452768 -0.142966
C74   C     C_R   0.999147 0.499502 0.047743 -0.153910
C75   C     C_R   0.999798 0.499343 0.952760 -0.142978
C76   C     C_R   0.502483 0.996390 0.047748 -0.153950
C77   C     C_R   0.500985 0.997292 0.952767 -0.142973
C78   C     C_R   0.441400 0.051041 0.559562 -0.124373
C79   C     C_R   0.888323 0.606217 0.047362 0.429037
C80   C     C_R   0.539864 0.933052 0.440937 -0.125102
C81   C     C_R   0.951382 0.438520 0.559689 -0.136803
C82   C     C_R   0.066874 0.537703 0.440831 -0.124547
C83   C     C_R   0.556797 0.948159 0.559673 -0.137487
C84   C     C_R   0.459796 0.065546 0.440845 -0.124539
C85   C     C_R   0.053790 0.554329 0.559555 -0.124662
C86   C     C_R   0.934541 0.457378 0.440968 -0.125015
C87   C     C_R   0.941395 0.551017 0.059562 -0.124362
C88   C     C_R   0.039942 0.433096 0.940937 -0.125031
C89   C     C_R   0.451378 0.938519 0.059688 -0.136801
C90   C     C_R   0.084146 0.370397 0.953132 0.409156
C91   C     C_R   0.566853 0.037728 0.940831 -0.124538
C92   C     C_R   0.056818 0.448165 0.059674 -0.137482
C93   C     C_R   0.959790 0.565535 0.940845 -0.124471
C94   C     C_R   0.553780 0.054334 0.059556 -0.124660
C95   C     C_R   0.434538 0.957377 0.940968 -0.125033
C96   C     C_R   0.535657 0.155035 0.618609 0.121185
C97   C     C_R   0.595514 0.159294 0.601439 -0.165595
C98   C     C_R   0.608428 0.234262 0.589863 -0.085986
C99   C     C_R   0.564120 0.306498 0.595797 -0.085611
C100  C     C_R   0.506279 0.303651 0.613265 -0.125292
C101  C     C_R   0.397024 0.884305 0.047576 0.498362
C102  C     C_R   0.491638 0.228235 0.624551 -0.062326
C103  C     C_R   0.658783 0.008582 0.381912 0.101681
C104  C     C_R   0.674654 0.071593 0.397749 -0.151645
C105  C     C_R   0.751607 0.074325 0.408925 -0.084463
C106  C     C_R   0.813621 0.014931 0.404212 -0.131408
C107  C     C_R   0.798995 0.953084 0.388200 -0.099480
C108  C     C_R   0.721965 0.949756 0.377100 -0.058921
C109  C     C_R   0.845912 0.535201 0.618520 0.136521
C110  C     C_R   0.841852 0.594850 0.601282 -0.161709
C111  C     C_R   0.766750 0.608357 0.589835 -0.082373
C112  C     C_R   0.499982 0.000038 0.189750 0.792675
C113  C     C_R   0.629879 0.081741 0.952919 0.409508
C114  C     C_R   0.694263 0.564676 0.595921 -0.064774
C115  C     C_R   0.696945 0.506963 0.613434 -0.140258
C116  C     C_R   0.772433 0.491875 0.624627 -0.101653
C117  C     C_R   0.989753 0.657562 0.382064 0.101381
C118  C     C_R   0.926675 0.672906 0.397936 -0.151954
C119  C     C_R   0.923619 0.749659 0.409184 -0.084467
C120  C     C_R   0.982770 0.811989 0.404515 -0.132273
C121  C     C_R   0.044690 0.797884 0.388474 -0.100022
C122  C     C_R   0.048333 0.721062 0.377298 -0.058201
C123  C     C_R   0.459916 0.845317 0.618954 0.132315
C124  C     C_R   0.110727 0.393508 0.047563 0.501624
C125  C     C_R   0.397408 0.841915 0.602472 -0.182280
C126  C     C_R   0.381176 0.766961 0.591246 -0.020098
C127  C     C_R   0.425509 0.694165 0.596711 -0.040180
C128  C     C_R   0.486228 0.696265 0.613482 -0.154941
C129  C     C_R   0.503646 0.771510 0.624532 -0.099015
C130  C     C_R   0.341262 0.989596 0.381914 0.101364
C131  C     C_R   0.325541 0.926307 0.397722 -0.151365
C132  C     C_R   0.248567 0.923177 0.408888 -0.086082
C133  C     C_R   0.186393 0.982463 0.404196 -0.132359
C134  C     C_R   0.200876 0.044587 0.388213 -0.099095
C135  C     C_R   0.915508 0.628337 0.952944 0.409240
C136  C     C_R   0.277920 0.048308 0.377122 -0.058234
C137  C     C_R   0.155970 0.460909 0.619047 0.114918
C138  C     C_R   0.160127 0.397993 0.602703 -0.182778
C139  C     C_R   0.235126 0.382737 0.591385 -0.021886
C140  C     C_R   0.307276 0.428372 0.596651 -0.068687
C141  C     C_R   0.304447 0.489490 0.613300 -0.139462
C142  C     C_R   0.229103 0.506032 0.624412 -0.059619
C143  C     C_R   0.008926 0.340042 0.381770 0.101668
C144  C     C_R   0.072108 0.323900 0.397562 -0.150980
C145  C     C_R   0.074971 0.246748 0.408665 -0.086160
C146  C     C_R   0.608935 0.107456 0.047359 0.432894
C147  C     C_R   0.015547 0.184802 0.403921 -0.131232
C148  C     C_R   0.953551 0.199690 0.387945 -0.098149
C149  C     C_R   0.950084 0.276923 0.376921 -0.058880
C150  C     C_R   0.035639 0.655033 0.118608 0.121175
C151  C     C_R   0.095498 0.659298 0.101439 -0.165587
C152  C     C_R   0.108405 0.734267 0.089863 -0.086004
C153  C     C_R   0.064088 0.806498 0.095796 -0.085643
C154  C     C_R   0.006244 0.803645 0.113264 -0.125296
C155  C     C_R   0.991609 0.728228 0.124550 -0.062326
C156  C     C_R   0.158792 0.508633 0.881909 0.101669
C157  C     C_R   0.372215 0.912687 0.953176 0.408764
C158  C     C_R   0.174631 0.571630 0.897753 -0.151694
C159  C     C_R   0.251583 0.574388 0.908928 -0.084311
C160  C     C_R   0.313632 0.515039 0.904207 -0.131269
C161  C     C_R   0.299041 0.453213 0.888187 -0.099402
C162  C     C_R   0.222009 0.449855 0.877089 -0.058917
C163  C     C_R   0.345908 0.035196 0.118521 0.136516
C164  C     C_R   0.341846 0.094844 0.101282 -0.161702
C165  C     C_R   0.266744 0.108346 0.089835 -0.082395
C166  C     C_R   0.194258 0.064663 0.095921 -0.064784
C167  C     C_R   0.196941 0.006952 0.113434 -0.140250
C168  C     C_R   0.499927 0.000027 0.665348 0.009817
C169  C     C_R   0.272430 0.991868 0.124628 -0.101647
C170  C     C_R   0.489698 0.157562 0.882063 0.101390
C171  C     C_R   0.426614 0.172885 0.897935 -0.152060
C172  C     C_R   0.423535 0.249633 0.909184 -0.084236
C173  C     C_R   0.482669 0.311981 0.904517 -0.132239
C174  C     C_R   0.544593 0.297898 0.888475 -0.100107
C175  C     C_R   0.548260 0.221080 0.877298 -0.058187
C176  C     C_R   0.959938 0.345305 0.118955 0.132297
C177  C     C_R   0.897427 0.341894 0.102473 -0.182247
C178  C     C_R   0.881203 0.266937 0.091248 -0.020119
C179  C     C_R   0.500008 0.999718 0.335072 -0.031089
C180  C     C_R   0.925547 0.194148 0.096712 -0.040269
C181  C     C_R   0.986268 0.196257 0.113483 -0.154912
C182  C     C_R   0.003679 0.271504 0.124532 -0.099011
C183  C     C_R   0.841275 0.489541 0.881915 0.101303
C184  C     C_R   0.825582 0.426255 0.897727 -0.151337
C185  C     C_R   0.748615 0.423106 0.908895 -0.085886
C186  C     C_R   0.686419 0.482368 0.904202 -0.132358
C187  C     C_R   0.700873 0.544487 0.888216 -0.099118
C188  C     C_R   0.777911 0.548228 0.877123 -0.058218
C189  C     C_R   0.655964 0.960901 0.119046 0.114901
C190  C     C_R   0.000469 0.500031 0.665348 0.009859
C191  C     C_R   0.660117 0.897983 0.102702 -0.182762
C192  C     C_R   0.735113 0.882725 0.091383 -0.021912
C193  C     C_R   0.807265 0.928361 0.096648 -0.068731
C194  C     C_R   0.804439 0.989481 0.113296 -0.139440
C195  C     C_R   0.729098 0.006023 0.124410 -0.059615
C196  C     C_R   0.508968 0.840051 0.881771 0.101684
C197  C     C_R   0.572149 0.823929 0.897564 -0.151015
C198  C     C_R   0.575030 0.746780 0.908668 -0.086025
C199  C     C_R   0.515626 0.684816 0.903923 -0.131225
C200  C     C_R   0.453633 0.699683 0.887945 -0.098233
C201  C     C_R   0.999729 0.499632 0.335076 -0.031107
C202  C     C_R   0.450147 0.776913 0.876920 -0.058881
C203  C     C_R   0.999928 0.500024 0.165348 0.009823
C204  C     C_R   0.999999 0.499962 0.810397 0.816542
C205  C     C_R   0.000010 0.499716 0.835072 -0.031096
C206  C     C_R   0.500468 0.000030 0.165348 0.009859
C207  C     C_R   0.499729 0.999633 0.835075 -0.031109
C208  C     C_R   0.953549 0.560683 0.988348 0.025718
C209  C     C_R   0.051550 0.443329 0.012141 0.012586
C210  C     C_R   0.440737 0.950338 0.988464 0.029052
C211  C     C_R   0.558346 0.048505 0.012044 0.027364
C212  C     C_R   0.045697 0.438230 0.988445 0.029393
C213  C     C_R   0.947421 0.555721 0.012042 0.027193
C214  C     C_R   0.562972 0.042766 0.988344 0.025984
C215  C     C_R   0.000000 0.500116 0.189750 0.792697
C216  C     C_R   0.446246 0.944066 0.012151 0.012549
C217  C     C_R   0.453550 0.060699 0.488348 0.025673
C218  C     C_R   0.551503 0.943309 0.512140 0.012510
C219  C     C_R   0.940742 0.450335 0.488464 0.029050
C220  C     C_R   0.058363 0.548490 0.512043 0.027362
C221  C     C_R   0.545631 0.938200 0.488446 0.029381
C222  C     C_R   0.447422 0.055742 0.512042 0.027176
C223  C     C_R   0.062991 0.542745 0.488344 0.025964
C224  C     C_R   0.946250 0.444063 0.512151 0.012549
C225  C     C_R   0.999669 0.499408 0.976533 0.093761
C226  C     C_R   0.999951 0.499930 0.310398 0.816515
C227  C     C_R   0.999361 0.499502 0.023958 0.094046
C228  C     C_R   0.501558 0.996799 0.976540 0.093775
C229  C     C_R   0.502377 0.996295 0.023963 0.094107
C230  C     C_R   0.499636 0.999399 0.476533 0.093742
C231  C     C_R   0.499343 0.999506 0.523958 0.094073
C232  C     C_R   0.001570 0.496787 0.476540 0.093767
C233  C     C_R   0.002386 0.496288 0.523963 0.094111
C234  C     C_R   0.915240 0.625748 0.976173 -0.279411
C235  C     C_R   0.108619 0.394011 0.024328 -0.272183
C236  C     C_R   0.375516 0.911931 0.976405 -0.277441
C237  C     C_R   0.999982 0.500038 0.689750 0.792675
C238  C     C_R   0.608077 0.105373 0.024139 -0.280652
C239  C     C_R   0.084208 0.373140 0.976363 -0.277109
C240  C     C_R   0.890506 0.605423 0.024139 -0.282114
C241  C     C_R   0.627772 0.081408 0.976149 -0.279110
C242  C     C_R   0.397327 0.886622 0.024337 -0.274125
C243  C     C_R   0.415273 0.125782 0.476173 -0.279281
C244  C     C_R   0.608564 0.893979 0.524326 -0.272182
C245  C     C_R   0.875515 0.411936 0.476405 -0.277350
C246  C     C_R   0.108096 0.605357 0.524138 -0.280649
C247  C     C_R   0.584078 0.873069 0.476365 -0.276686
C248  C     C_R   0.499999 0.999962 0.310397 0.816545
C249  C     C_R   0.390527 0.105465 0.524139 -0.282109
C250  C     C_R   0.127801 0.581373 0.476149 -0.279059
C251  C     C_R   0.897326 0.386624 0.524337 -0.274104
C252  C     C_R   0.660315 0.839666 0.750002 0.851599
C253  C     C_R   0.339681 0.160330 0.249997 0.850974
C254  C     C_R   0.160316 0.660331 0.749997 0.851585
C255  C     C_R   0.839689 0.339664 0.250002 0.851026
C256  C     C_R   0.339682 0.160308 0.749997 0.850804
C257  C     C_R   0.660323 0.839697 0.250001 0.850589
C258  C     C_R   0.839675 0.339697 0.750002 0.850797
C259  C     C_R   0.500000 0.000116 0.689750 0.792696
C260  C     C_R   0.160321 0.660308 0.249996 0.850516
C261  C     C_R   0.660316 0.160331 0.249997 0.851586
C262  C     C_R   0.339689 0.839664 0.750002 0.851025
C263  C     C_R   0.160315 0.339666 0.250002 0.851599
C264  C     C_R   0.839681 0.660330 0.749997 0.850974
C265  C     C_R   0.339675 0.839697 0.250002 0.850798
C266  C     C_R   0.660321 0.160308 0.749996 0.850516
C267  C     C_R   0.839682 0.660308 0.249997 0.850805
C268  C     C_R   0.160323 0.339697 0.750001 0.850589
C269  C     C_1   0.723423 0.223410 0.749995 -0.150137
C270  C     C_R   0.388343 0.106256 0.547362 0.429058
C271  C     C_1   0.276568 0.776598 0.250003 -0.149959
C272  C     C_1   0.776586 0.723424 0.749996 -0.150244
C273  C     C_1   0.223406 0.276567 0.250002 -0.150188
C274  C     C_1   0.276597 0.776565 0.750003 -0.149862
C275  C     C_1   0.723412 0.223426 0.249995 -0.149721
C276  C     C_1   0.223430 0.276597 0.750002 -0.149711
C277  C     C_1   0.776579 0.723412 0.249996 -0.149460
C278  C     C_1   0.723430 0.776597 0.250002 -0.149709
C279  C     C_1   0.276579 0.223412 0.749996 -0.149462
C280  C     C_1   0.776597 0.276565 0.250003 -0.149859
H1    H     H_    0.534055 0.129994 0.662803 0.130231
H2    H     H_    0.134711 0.506883 0.837926 0.165483
H3    H     H_    0.626810 0.479769 0.912827 0.128225
H4    H     H_    0.652557 0.590002 0.884453 0.138077
H5    H     H_    0.788528 0.597464 0.864991 0.142009
H6    H     H_    0.605461 0.860705 0.098685 0.177344
H7    H     H_    0.736992 0.835472 0.078521 0.230962
H8    H     H_    0.865314 0.916297 0.087852 0.158898
H9    H     H_    0.860413 0.024599 0.117449 0.119383
H10   H     H_    0.727508 0.054774 0.136962 0.135888
H11   H     H_    0.619367 0.870745 0.901206 0.177118
H12   H     H_    0.623534 0.734909 0.920893 0.199935
H13   H     H_    0.370430 0.033614 0.162716 0.131747
H14   H     H_    0.518021 0.625067 0.912498 0.127931
H15   H     H_    0.408007 0.651544 0.884142 0.138165
H16   H     H_    0.401002 0.787861 0.864796 0.141688
H17   H     H_    0.212705 0.106218 0.560218 0.355959
H18   H     H_    0.543287 0.701290 0.440008 0.358550
H19   H     H_    0.761600 0.334492 0.592373 0.382668
H20   H     H_    0.299816 0.542622 0.439517 0.359347
H21   H     H_    0.660087 0.757491 0.592354 0.381328
H22   H     H_    0.455394 0.298255 0.439801 0.358894
H23   H     H_    0.109232 0.783474 0.559898 0.355942
H24   H     H_    0.492296 0.134258 0.838040 0.165194
H25   H     H_    0.701803 0.452395 0.440487 0.358716
H26   H     H_    0.712685 0.606139 0.060217 0.355964
H27   H     H_    0.044829 0.200110 0.940159 0.358907
H28   H     H_    0.261597 0.834478 0.092372 0.382672
H29   H     H_    0.799846 0.042762 0.939523 0.359254
H30   H     H_    0.160129 0.257513 0.092356 0.381336
H31   H     H_    0.954984 0.798568 0.939834 0.358938
H32   H     H_    0.609210 0.283481 0.059902 0.355950
H33   H     H_    0.201769 0.952343 0.940486 0.358516
H34   H     H_    0.965204 0.370184 0.163059 0.133044
H35   H     H_    0.865325 0.492360 0.837931 0.165433
H36   H     H_    0.630593 0.966157 0.163146 0.131430
H37   H     H_    0.506966 0.864878 0.837826 0.165675
H38   H     H_    0.886191 0.677756 0.984566 0.200948
H39   H     H_    0.154688 0.356178 0.015942 0.202431
H40   H     H_    0.323918 0.882482 0.984908 0.200549
H41   H     H_    0.634713 0.006839 0.337928 0.165493
H42   H     H_    0.646067 0.151259 0.015712 0.199317
H43   H     H_    0.113247 0.321242 0.984839 0.200327
H44   H     H_    0.844736 0.643517 0.015705 0.199791
H45   H     H_    0.679928 0.110280 0.984524 0.200810
H46   H     H_    0.359630 0.840481 0.015939 0.202734
H47   H     H_    0.386250 0.177803 0.484566 0.200977
H48   H     H_    0.654617 0.856131 0.515938 0.202419
H49   H     H_    0.823912 0.382494 0.484908 0.200558
H50   H     H_    0.146092 0.651237 0.515710 0.199314
H51   H     H_    0.613067 0.821152 0.484846 0.200429
H52   H     H_    0.870431 0.533615 0.662716 0.131747
H53   H     H_    0.344770 0.143575 0.515705 0.199792
H54   H     H_    0.179962 0.610235 0.484525 0.200833
H55   H     H_    0.859625 0.340486 0.515940 0.202730
H56   H     H_    0.632126 0.104742 0.596941 0.173149
H57   H     H_    0.653013 0.236202 0.576311 0.216983
H58   H     H_    0.574705 0.364647 0.586891 0.159030
H59   H     H_    0.472136 0.359663 0.617919 0.117258
H60   H     H_    0.445156 0.226681 0.637711 0.132380
H61   H     H_    0.627797 0.118800 0.401369 0.177282
H62   H     H_    0.763284 0.122700 0.421181 0.201081
H63   H     H_    0.992337 0.634259 0.338041 0.165193
H64   H     H_    0.873221 0.017217 0.412841 0.128598
H65   H     H_    0.847170 0.907457 0.384425 0.138424
H66   H     H_    0.711203 0.900729 0.364947 0.141856
H67   H     H_    0.896593 0.631032 0.596675 0.166971
H68   H     H_    0.764882 0.652978 0.576278 0.213744
H69   H     H_    0.636045 0.575633 0.587096 0.158075
H70   H     H_    0.640784 0.473129 0.618160 0.118347
H71   H     H_    0.773817 0.445535 0.637835 0.129503
H72   H     H_    0.879657 0.625796 0.401525 0.177398
H73   H     H_    0.875181 0.760934 0.421462 0.200559
H74   H     H_    0.465185 0.870192 0.663058 0.133046
H75   H     H_    0.980242 0.871431 0.413201 0.128875
H76   H     H_    0.090128 0.846303 0.384734 0.138204
H77   H     H_    0.097421 0.710709 0.365124 0.142074
H78   H     H_    0.361069 0.897073 0.598307 0.171051
H79   H     H_    0.334142 0.765604 0.578308 0.227322
H80   H     H_    0.412795 0.636185 0.587965 0.159086
H81   H     H_    0.520532 0.639846 0.617736 0.120087
H82   H     H_    0.552087 0.772494 0.637184 0.131735
H83   H     H_    0.372523 0.879177 0.401323 0.177180
H84   H     H_    0.236995 0.874571 0.421117 0.199620
H85   H     H_    0.365318 0.992407 0.337930 0.165440
H86   H     H_    0.126779 0.979878 0.412818 0.128186
H87   H     H_    0.152577 0.090121 0.384450 0.138098
H88   H     H_    0.288559 0.097547 0.364992 0.142020
H89   H     H_    0.105472 0.360716 0.598685 0.177335
H90   H     H_    0.237007 0.335485 0.578523 0.230974
H91   H     H_    0.365328 0.416308 0.587856 0.158921
H92   H     H_    0.360419 0.524608 0.617453 0.119379
H93   H     H_    0.227510 0.554781 0.636964 0.135885
H94   H     H_    0.119342 0.370702 0.401203 0.177129
H95   H     H_    0.123478 0.234860 0.420887 0.199867
H96   H     H_    0.130594 0.466161 0.663146 0.131430
H97   H     H_    0.017928 0.125051 0.412495 0.127907
H98   H     H_    0.907907 0.151565 0.384143 0.138186
H99   H     H_    0.900937 0.287887 0.364799 0.141695
H100  H     H_    0.132118 0.604751 0.096942 0.173155
H101  H     H_    0.152993 0.736212 0.076311 0.216971
H102  H     H_    0.074668 0.864648 0.086890 0.158999
H103  H     H_    0.972094 0.859653 0.117917 0.117264
H104  H     H_    0.945126 0.726669 0.137709 0.132386
H105  H     H_    0.127750 0.618807 0.901378 0.177295
H106  H     H_    0.263233 0.622748 0.921190 0.201108
H107  H     H_    0.006925 0.364873 0.337825 0.165675
H108  H     H_    0.373231 0.517344 0.912836 0.128591
H109  H     H_    0.347244 0.407622 0.884405 0.138366
H110  H     H_    0.211275 0.400840 0.864931 0.141806
H111  H     H_    0.396586 0.131026 0.096674 0.166973
H112  H     H_    0.264875 0.152964 0.076277 0.213742
H113  H     H_    0.136040 0.075617 0.087096 0.158042
H114  H     H_    0.140782 0.973116 0.118160 0.118350
H115  H     H_    0.273815 0.945529 0.137836 0.129504
H116  H     H_    0.379609 0.125760 0.901523 0.177376
H117  H     H_    0.375095 0.260890 0.921463 0.200747
H118  H     H_    0.034037 0.629996 0.162803 0.130229
H119  H     H_    0.480124 0.371419 0.913205 0.128928
H120  H     H_    0.590017 0.346332 0.884736 0.138191
H121  H     H_    0.597352 0.210745 0.865125 0.142078
H122  H     H_    0.861079 0.397046 0.098309 0.171063
H123  H     H_    0.834166 0.265572 0.078311 0.227320
H124  H     H_    0.912838 0.136165 0.087968 0.159040
H125  H     H_    0.020580 0.139842 0.117737 0.120090
H126  H     H_    0.052121 0.272496 0.137184 0.131738
H127  H     H_    0.872581 0.379143 0.901328 0.177322
H128  H     H_    0.737066 0.374505 0.921127 0.199719
N1    N     N_R   0.498588 0.999547 0.594256 -0.374516
N2    N     N_R   0.499983 0.999210 0.406292 -0.374404
N3    N     N_R   0.001815 0.497606 0.594259 -0.374495
N4    N     N_R   0.999824 0.498393 0.406300 -0.374552
N5    N     N_R   0.998592 0.499537 0.094257 -0.374515
N6    N     N_R   0.999996 0.499209 0.906292 -0.374551
N7    N     N_R   0.501810 0.997604 0.094259 -0.374494
N8    N     N_R   0.499817 0.998399 0.906300 -0.374550
O1    O     O_3   0.500000 1.000000 0.750000 -0.485233
O2    O     O_R   0.500000 0.069020 0.200420 -0.633386
O3    O     O_2   0.364285 0.744185 0.070900 -0.246015
O4    O     O_3   0.266494 0.872112 0.079295 -0.548076
O5    O     O_2   0.671690 0.202276 0.923468 -0.249715
O6    O     O_2   0.754947 0.196578 0.957483 -0.307636
O7    O     O_3   0.780577 0.081884 0.927751 -0.442663
O8    O     O_2   0.208996 0.255625 0.043039 -0.304191
O9    O     O_2   0.250818 0.359681 0.070746 -0.249489
O10   O     O_3   0.122164 0.263080 0.079378 -0.550444
O11   O     O_2   0.795830 0.670891 0.923352 -0.249951
O12   O     O_2   0.800629 0.753386 0.957484 -0.306907
O13   O     O_R   0.069020 0.500000 0.799580 -0.644622
O14   O     O_3   0.916169 0.779597 0.927974 -0.442930
O15   O     O_2   0.734184 0.122913 0.076989 -0.268597
O16   O     O_2   0.748476 0.203407 0.042631 -0.326065
O17   O     O_3   0.641418 0.255786 0.071958 -0.475983
O18   O     O_2   0.329004 0.793525 0.923558 -0.249827
O19   O     O_2   0.247469 0.797558 0.957885 -0.305165
O20   O     O_3   0.220267 0.913610 0.928559 -0.443452
O21   O     O_R   0.930980 0.500000 0.200420 -0.632764
O22   O     O_R   1.000000 0.569020 0.299580 -0.644266
O23   O     O_R   1.000000 0.430980 0.700420 -0.633348
O24   O     O_R   0.430980 1.000000 0.299580 -0.644576
O25   O     O_R   0.569020 1.000000 0.700420 -0.634003
O26   O     O_R   1.000000 0.430980 0.299580 -0.644896
O27   O     O_R   1.000000 0.569020 0.700420 -0.633387
O28   O     O_R   0.569020 1.000000 0.299580 -0.644619
O29   O     O_3   0.500000 1.000000 0.250000 -0.485240
O30   O     O_R   0.430980 1.000000 0.700420 -0.632764
O31   O     O_R   0.597490 0.833170 0.762730 -0.639235
O32   O     O_R   0.402510 0.166830 0.237270 -0.632109
O33   O     O_R   0.166830 0.597490 0.762730 -0.639228
O34   O     O_R   0.833170 0.402510 0.237270 -0.631580
O35   O     O_R   0.402510 0.166830 0.762730 -0.639258
O36   O     O_R   0.597490 0.833170 0.237270 -0.631595
O37   O     O_R   0.833170 0.402510 0.762730 -0.639237
O38   O     O_R   0.166830 0.597490 0.237270 -0.632166
O39   O     O_R   0.597490 0.166830 0.237270 -0.631250
O40   O     O_3   1.000000 0.500000 0.750000 -0.485239
O41   O     O_R   0.402510 0.833170 0.762730 -0.639471
O42   O     O_R   0.166830 0.402510 0.237270 -0.631469
O43   O     O_R   0.833170 0.597490 0.762730 -0.639158
O44   O     O_R   0.402510 0.833170 0.237270 -0.631472
O45   O     O_R   0.597490 0.166830 0.762730 -0.639013
O46   O     O_R   0.833170 0.597490 0.237270 -0.631202
O47   O     O_R   0.166830 0.402510 0.762730 -0.639341
O48   O     O_R   0.097490 0.333170 0.262730 -0.639234
O49   O     O_R   0.902510 0.666830 0.737270 -0.632110
O50   O     O_R   0.666830 0.097490 0.262730 -0.639227
O51   O     O_3   1.000000 0.500000 0.250000 -0.485234
O52   O     O_R   0.333170 0.902510 0.737270 -0.631582
O53   O     O_R   0.902510 0.666830 0.262730 -0.639257
O54   O     O_R   0.097490 0.333170 0.737270 -0.631595
O55   O     O_R   0.333170 0.902510 0.262730 -0.639236
O56   O     O_R   0.666830 0.097490 0.737270 -0.632167
O57   O     O_R   0.097490 0.666830 0.737270 -0.631251
O58   O     O_R   0.902510 0.333170 0.262730 -0.639471
O59   O     O_R   0.666830 0.902510 0.737270 -0.631469
O60   O     O_R   0.333170 0.097490 0.262730 -0.639159
O61   O     O_R   0.902510 0.333170 0.737270 -0.631472
O62   O     O_R   0.500000 0.069020 0.799580 -0.644267
O63   O     O_R   0.097490 0.666830 0.262730 -0.639014
O64   O     O_R   0.333170 0.097490 0.737270 -0.631202
O65   O     O_R   0.666830 0.902510 0.262730 -0.639341
O66   O     O_2   0.375227 0.077636 0.594865 -0.456723
O67   O     O_2   0.554549 0.863850 0.405574 -0.457806
O68   O     O_2   0.925251 0.373406 0.595193 -0.493822
O69   O     O_2   0.135156 0.552986 0.405341 -0.457203
O70   O     O_2   0.622256 0.922077 0.595108 -0.492881
O71   O     O_2   0.445583 0.134632 0.405418 -0.457350
O72   O     O_2   0.079576 0.621209 0.594779 -0.456556
O73   O     O_R   0.500000 0.930980 0.200420 -0.633348
O74   O     O_2   0.864519 0.443658 0.405676 -0.457282
O75   O     O_2   0.875212 0.577597 0.094864 -0.456722
O76   O     O_2   0.054581 0.363854 0.905578 -0.457287
O77   O     O_2   0.425250 0.873402 0.095192 -0.493818
O78   O     O_2   0.635135 0.053027 0.905341 -0.457199
O79   O     O_2   0.122276 0.422095 0.095109 -0.492881
O80   O     O_2   0.945543 0.634610 0.905417 -0.457190
O81   O     O_2   0.579568 0.121208 0.094780 -0.456554
O82   O     O_2   0.364530 0.943625 0.905675 -0.457287
O83   O     O_2   0.373276 0.231897 0.576845 -0.265092
O84   O     O_R   0.930980 0.500000 0.799580 -0.644573
O85   O     O_2   0.292057 0.245601 0.542611 -0.323105
O86   O     O_3   0.240404 0.138908 0.572162 -0.471443
O87   O     O_2   0.703966 0.827415 0.423688 -0.249336
O88   O     O_2   0.698509 0.745013 0.457880 -0.304806
O89   O     O_3   0.583356 0.718959 0.428283 -0.442544
O90   O     O_2   0.760057 0.284707 0.543064 -0.301038
O91   O     O_2   0.864280 0.244191 0.570901 -0.246042
O92   O     O_3   0.766495 0.372123 0.579295 -0.548069
O93   O     O_2   0.171758 0.702227 0.423469 -0.249715
O94   O     O_2   0.255018 0.696502 0.457483 -0.307726
O95   O     O_R   0.069020 0.500000 0.200420 -0.634003
O96   O     O_3   0.280612 0.581800 0.427751 -0.442655
O97   O     O_2   0.708940 0.755591 0.543036 -0.304139
O98   O     O_2   0.750782 0.859646 0.570742 -0.249529
O99   O     O_3   0.622120 0.763061 0.579376 -0.550431
O100  O     O_2   0.295891 0.170988 0.423353 -0.249913
O101  O     O_2   0.300742 0.253482 0.457484 -0.306611
O102  O     O_3   0.416280 0.279634 0.427973 -0.442726
O103  O     O_2   0.234194 0.622904 0.576989 -0.268600
O104  O     O_2   0.248496 0.703388 0.542631 -0.326057
O105  O     O_3   0.141435 0.755780 0.571955 -0.476017
O106  O     O_R   0.500000 0.930980 0.799580 -0.644895
O107  O     O_2   0.828993 0.293543 0.423555 -0.249865
O108  O     O_2   0.747466 0.297556 0.457884 -0.305131
O109  O     O_3   0.720251 0.413628 0.428563 -0.443296
O110  O     O_2   0.873226 0.731855 0.076844 -0.265094
O111  O     O_2   0.792006 0.745540 0.042610 -0.323117
O112  O     O_3   0.740375 0.638837 0.072162 -0.471395
O113  O     O_2   0.204124 0.327738 0.923658 -0.249458
O114  O     O_2   0.199011 0.245414 0.957867 -0.305855
O115  O     O_3   0.083774 0.219014 0.928308 -0.443179
O116  O     O_2   0.260060 0.784698 0.043063 -0.301055
S1    S     S_3+6 0.323476 0.184312 0.559762 0.042025
S2    S     S_3+6 0.146389 0.289883 0.940731 0.073390
S3    S     S_3+6 0.320825 0.817528 0.060121 0.050090
S4    S     S_3+6 0.710027 0.144245 0.940396 0.072767
S5    S     S_3+6 0.176950 0.316800 0.060093 0.047122
S6    S     S_3+6 0.853410 0.708810 0.940425 0.072723
S7    S     S_3+6 0.686903 0.172416 0.059759 0.038745
S8    S     S_3+6 0.291486 0.850720 0.940779 0.073211
S9    S     S_3+6 0.646076 0.789654 0.440737 0.073931
S10   S     S_3+6 0.820823 0.317535 0.560121 0.050091
S11   S     S_3+6 0.210080 0.644182 0.440396 0.072722
S12   S     S_3+6 0.676906 0.816772 0.560090 0.047127
S13   S     S_3+6 0.353492 0.208878 0.440424 0.072882
S14   S     S_3+6 0.186919 0.672405 0.559758 0.038735
S15   S     S_3+6 0.791477 0.350731 0.440779 0.073272
S16   S     S_3+6 0.823438 0.684259 0.059761 0.042042
Zn1   Zn    Zn3+2 0.599000 1.000000 0.730930 0.989179
Zn2   Zn    Zn3+2 0.901000 0.500000 0.769070 0.978303
Zn3   Zn    Zn3+2 0.500000 0.099000 0.230930 0.989998
Zn4   Zn    Zn3+2 0.500000 0.901000 0.769070 0.978328
Zn5   Zn    Zn3+2 0.901000 0.500000 0.230930 0.990463
Zn6   Zn    Zn3+2 0.099000 0.500000 0.769070 0.978361
Zn7   Zn    Zn3+2 0.500000 0.901000 0.230930 0.989668
Zn8   Zn    Zn3+2 0.500000 0.099000 0.769070 0.978346
Zn9   Zn    Zn3+2 0.401000 1.000000 0.269070 0.978303
Zn10  Zn    Zn3+2 0.000000 0.599000 0.730930 0.989995
Zn11  Zn    Zn3+2 1.000000 0.401000 0.269070 0.978330
Zn12  Zn    Zn3+2 0.401000 1.000000 0.730930 0.990461
Zn13  Zn    Zn3+2 0.599000 1.000000 0.269070 0.978365
Zn14  Zn    Zn3+2 1.000000 0.401000 0.730930 0.989667
Zn15  Zn    Zn3+2 1.000000 0.599000 0.269070 0.978348
Zn16  Zn    Zn3+2 0.099000 0.500000 0.230930 0.989181

loop_
_geom_bond_atom_site_label_1
_geom_bond_atom_site_label_2
_ccdc_geom_bond_type
C126  C127  A    
C18   N6    A    
C96   C102  A    
C258  O37   A    
C106  H64   S    
C250  H54   S    
C100  H59   S    
C5    C252  S    
C16   O74   S    
C219  C232  A    
C108  H66   S    
C237  O23   A    
C25   N8    A    
C79   C87   A    
C114  C115  A    
C167  H114  S    
C9    O67   S    
O94   S11   D    
C176  C182  A    
C39   C150  S    
C151  H100  S    
C79   C240  A    
O47   Zn6   S    
C203  C215  S    
C21   O79   S    
O16   S7    D    
C263  O42   A    
C114  H69   S    
O88   S9    D    
H17   O86   S    
C36   C66   A    
C262  O52   A    
C106  C107  A    
C143  C144  A    
C259  O25   A    
O106  Zn4   S    
C74   C92   A    
C110  C111  A    
C30   C96   S    
C36   C53   A    
C42   C170  S    
C224  C251  A    
C76   C94   A    
C38   C55   A    
O18   S8    D    
C199  H14   S    
C238  H42   S    
O40   Zn14  S    
C193  C194  A    
O24   Zn9   S    
C15   C85   A    
O12   S6    D    
C29   C64   A    
C199  C200  A    
O89   S9    S    
C39   C65   A    
C31   C62   A    
O38   Zn16  S    
C190  C237  S    
C46   C243  A    
O45   Zn8   S    
C245  H49   S    
C55   H37   S    
C192  H7    S    
C104  C105  A    
C161  C162  A    
H32   O17   S    
C262  C274  S    
C40   C58   A    
C133  H86   S    
C191  C192  A    
C140  C141  A    
C119  H73   S    
C41   C67   A    
C259  O30   A    
C196  C197  A    
C221  C247  A    
C58   C205  A    
C43   C168  A    
C239  H43   S    
C2    C247  A    
C209  C235  A    
O51   Zn11  S    
C220  C233  A    
C148  H98   S    
C39   C56   A    
C113  S4    S    
C43   H74   S    
C139  C140  A    
C53   H35   S    
C154  C155  A    
H28   O4    S    
C46   C84   A    
C212  C225  A    
C270  S1    S    
H26   O112  S    
C25   C95   A    
O32   Zn3   S    
C224  C233  A    
C158  C159  A    
C68   C245  A    
O103  S14   D    
C26   C123  S    
C223  C232  A    
C75   C93   A    
C3    C274  T    
C257  O65   A    
C173  H119  S    
C77   C91   A    
C10   C81   A    
C89   C101  A    
C17   C87   A    
C210  C228  A    
C249  C270  A    
C26   C61   A    
C264  O43   A    
O1    Zn1   S    
C28   C137  S    
C263  O48   A    
C153  H102  S    
C175  H121  S    
C60   C207  A    
C144  H94   S    
O35   Zn8   S    
O102  S13   S    
H27   O115  S    
C144  C145  A    
C52   C203  A    
C56   H118  S    
C156  C158  A    
C275  C280  T    
C183  C188  A    
C10   O68   S    
C193  H8    S    
C204  O84   A    
C57   C85   A    
C130  C131  A    
O9    S5    D    
C17   O75   S    
C112  O73   A    
C212  C239  A    
C186  H3    S    
C28   C63   A    
C143  C149  A    
C247  H51   S    
C77   C228  A    
C65   N5    S    
C98   C99   A    
C30   C61   A    
C51   H63   S    
C122  H77   S    
C147  H97   S    
C105  H62   S    
C22   N6    A    
C186  C187  A    
C243  H47   S    
C14   C84   A    
C49   C179  A    
C21   C92   A    
C137  C142  A    
C208  C213  A    
C147  C148  A    
C254  O57   A    
C268  O54   A    
O87   S9    D    
C128  C129  A    
C72   C85   A    
C252  O59   A    
C167  C169  A    
C261  O50   A    
C14   O71   S    
C11   N4    A    
C29   C47   A    
C4    C273  T    
O63   Zn15  S    
C168  C259  S    
C9    N2    A    
O109  S15   S    
C97   H56   S    
C170  C171  A    
C115  C116  A    
O22   Zn15  S    
C255  O34   A    
C189  C191  A    
O1    Zn12  S    
C70   C231  A    
C219  C224  A    
H19   O92   S    
O59   Zn1   S    
C146  C238  A    
C61   N1    S    
C221  C230  A    
C226  O22   A    
C107  C108  A    
O4    S3    S    
C12   O70   S    
O40   Zn10  S    
C74   C87   A    
O20   S8    S    
C134  H87   S    
C22   O80   S    
C76   C89   A    
C90   S2    S    
H23   O105  S    
C277  C278  T    
C132  H84   S    
C120  H75   S    
O15   S7    D    
O57   Zn10  S    
C50   C190  A    
O17   S7    S    
C104  H61   S    
C11   C82   A    
C216  C242  A    
C13   C251  A    
C13   S10   S    
C75   C225  A    
C257  O36   A    
O42   Zn16  S    
C235  H39   S    
C236  H40   S    
O104  S14   D    
C54   C206  A    
C25   O82   S    
C18   C88   A    
C57   S14   S    
O96   S11   S    
O86   S1    S    
C117  C122  A    
O29   Zn13  S    
C27   C62   A    
C217  C230  A    
C158  H105  S    
O34   Zn5   S    
O65   Zn13  S    
O116  S3    D    
C12   N1    A    
C102  H60   S    
O13   Zn6   S    
C268  C276  S    
C202  H16   S    
C216  C229  A    
C135  C234  A    
O29   Zn9   S    
C226  O26   A    
C36   C183  S    
C54   H36   S    
C124  S5    S    
C60   H24   S    
C101  C242  A    
C49   H41   S    
O51   Zn16  S    
O95   Zn16  S    
C223  C250  A    
C200  C202  A    
O56   Zn1   S    
C150  C155  A    
O23   Zn14  S    
C18   O76   S    
C169  H115  S    
O25   Zn1   S    
C234  H38   S    
O2    Zn3   S    
C161  H109  S    
O111  S16   D    
O54   Zn14  S    
C69   N8    S    
C120  C121  A    
C77   C95   A    
C218  C221  A    
C125  H78   S    
O100  S13   D    
C5    C272  T    
O73   Zn7   S    
C6    C271  T    
C95   C157  A    
C1    O106  A    
C57   C246  A    
C93   C135  A    
C266  C269  S    
O92   S10   S    
C178  H123  S    
C222  C231  A    
H33   O20   S    
C48   H1    S    
H22   O102  S    
C55   C207  A    
O21   Zn5   S    
C142  H93   S    
C256  O64   A    
C24   C250  A    
C19   N7    A    
C182  H126  S    
C117  C118  A    
C195  H10   S    
O3    S3    D    
C37   C67   A    
C204  O13   A    
C22   C93   A    
C38   C196  S    
C197  C198  A    
C38   C69   A    
C45   C190  A    
C211  C214  A    
C152  C153  A    
C119  C120  A    
C242  H46   S    
C27   C130  S    
C8    O66   S    
C150  C151  A    
C40   C66   A    
C76   C229  A    
C48   C168  A    
C220  C223  A    
C62   N2    S    
C46   S13   S    
C94   C146  A    
C50   H52   S    
C255  C280  S    
C256  C279  S    
C249  H53   S    
C213  C240  A    
C179  C248  S    
C56   C203  A    
C181  C182  A    
C52   H34   S    
C90   C239  A    
C157  S8    S    
C248  O28   A    
C45   H96   S    
C164  C165  A    
C266  O45   A    
C154  H103  S    
C92   C124  A    
O36   Zn7   S    
C123  C125  A    
C141  H92   S    
C29   C143  S    
C13   C81   A    
C66   N6    S    
C209  C212  A    
C72   C233  A    
C44   C179  A    
C6    C260  S    
C240  H44   S    
C174  H120  S    
C32   C109  S    
C109  C116  A    
C159  H106  S    
C21   N5    A    
C101  S3    S    
C197  H11   S    
C263  C273  S    
C198  H12   S    
C151  C152  A    
H21   O99   S    
C267  O46   A    
C210  C236  A    
O11   S6    D    
C112  O2    A    
C64   N4    S    
C72   C81   A    
O33   Zn6   S    
C260  O38   A    
C194  C195  A    
C63   N3    S    
C264  C272  S    
O39   Zn3   S    
C16   C86   A    
O26   Zn11  S    
C246  H50   S    
C121  H76   S    
C31   C49   A    
O51   Zn5   S    
O50   Zn13  S    
O6    S4    D    
C145  C147  A    
C97   C98   A    
C170  C175  A    
C136  H88   S    
C201  C226  S    
C20   C91   A    
O19   S8    D    
C164  H111  S    
C160  H108  S    
O10   S5    S    
C262  O41   A    
C180  H124  S    
C111  H68   S    
C68   S15   S    
C128  H81   S    
C139  H90   S    
C35   C83   A    
C35   S12   S    
H20   O96   S    
C67   N7    S    
C99   H58   S    
C258  O61   A    
C265  O55   A    
C146  S7    S    
C12   C83   A    
O40   Zn6   S    
C215  O21   A    
O44   Zn7   S    
C268  O47   A    
C16   N4    A    
C213  C227  A    
C15   O72   S    
C133  C134  A    
C189  C195  A    
C159  C160  A    
C276  C279  T    
C116  H71   S    
C211  C238  A    
C70   C83   A    
C254  O33   A    
C121  C122  A    
C171  H116  S    
C127  H80   S    
C88   C90   A    
C41   C163  S    
C125  C126  A    
C244  H48   S    
C23   O81   S    
O5    S4    D    
C118  H72   S    
C127  C128  A    
C73   C82   A    
C180  C181  A    
C137  C138  A    
C30   C48   A    
C217  C222  A    
C211  C229  A    
C131  H83   S    
C15   N3    A    
C255  O58   A    
C178  C180  A    
C187  H4    S    
C256  O35   A    
C157  C236  A    
O29   Zn7   S    
O60   Zn9   S    
C33   C51   A    
C260  O63   A    
C17   N5    A    
C105  C106  A    
C115  H70   S    
C34   C52   A    
O113  S2    D    
O49   Zn10  S    
O107  S15   D    
C265  C271  S    
C3    C254  S    
C112  C206  S    
C187  C188  A    
C11   O69   S    
O97   S12   D    
C109  C110  A    
C237  O27   A    
C185  C186  A    
C210  C216  A    
C111  C114  A    
C78   C270  A    
O99   S12   S    
C163  C169  A    
C138  C139  A    
C162  H110  S    
C185  H128  S    
C177  C178  A    
C103  C104  A    
C7    C258  S    
C209  C227  A    
C107  H65   S    
O7    S4    S    
O46   Zn5   S    
C14   N2    A    
C51   C201  A    
C47   H107  S    
C172  H117  S    
C37   C189  S    
C171  C172  A    
C33   C117  S    
C165  C166  A    
O14   S6    S    
C2    S9    S    
C70   C78   A    
C68   C86   A    
H30   O10   S    
C163  C164  A    
O53   Zn15  S    
O27   Zn10  S    
O84   Zn2   S    
O83   S1    D    
C215  O95   A    
C126  H79   S    
C251  H55   S    
C261  O39   A    
C173  C174  A    
C184  C185  A    
C181  H125  S    
C8    N1    A    
C135  S6    S    
C214  C241  A    
C33   C64   A    
O110  S16   D    
C98   H57   S    
O8    S5    D    
C145  H95   S    
C47   C201  A    
O98   S12   D    
C24   C82   A    
C118  C119  A    
C174  C175  A    
C124  C235  A    
H18   O89   S    
C132  C133  A    
O48   Zn11  S    
O101  S13   D    
C10   N3    A    
C53   C205  A    
C219  C245  A    
C103  C108  A    
O91   S10   D    
C214  C228  A    
O51   Zn15  S    
C165  H112  S    
C156  C162  A    
C257  C278  S    
C123  C129  A    
C184  H127  S    
C8    C78   A    
C248  O24   A    
C4    C253  S    
C20   O78   S    
C27   C44   A    
C34   C65   A    
C71   C80   A    
H29   O7    S    
C26   C43   A    
O55   Zn9   S    
C28   C45   A    
C192  C193  A    
C7    C269  T    
O115  S2    S    
C34   C176  S    
C148  C149  A    
C41   C59   A    
C20   N8    A    
C42   C60   A    
C134  C136  A    
C267  C277  S    
C42   C69   A    
C91   C113  A    
C9    C80   A    
C31   C103  S    
C217  C243  A    
H31   O14   S    
C74   C227  A    
C19   C89   A    
C265  O44   A    
C208  C225  A    
C99   C100  A    
C59   H13   S    
C129  H82   S    
C140  H91   S    
O30   Zn12  S    
C96   C97   A    
C100  C102  A    
O90   S10   D    
C204  C205  S    
O108  S15   D    
C32   C50   A    
C198  C199  A    
C37   C54   A    
C176  C177  A    
C166  H113  S    
C267  O53   A    
C177  H122  S    
C113  C241  A    
C19   O77   S    
C166  C167  A    
C200  H15   S    
O1    Zn4   S    
O61   Zn14  S    
C196  C202  A    
C253  O60   A    
C208  C234  A    
C172  C173  A    
C59   C206  A    
C71   C84   A    
C220  C246  A    
O37   Zn2   S    
O31   Zn4   S    
O64   Zn12  S    
O62   Zn8   S    
O114  S2    D    
O40   Zn2   S    
C252  O31   A    
C130  C136  A    
C264  O49   A    
C32   C63   A    
C23   N7    A    
C149  H99   S    
O93   S11   D    
C261  C275  S    
C253  O32   A    
C155  H104  S    
C58   H2    S    
C23   C94   A    
C79   S16   S    
C44   H85   S    
O28   Zn13  S    
C24   S11   S    
C141  C142  A    
O112  S16   S    
C110  H67   S    
C266  O56   A    
C183  C184  A    
O105  S14   S    
C138  H89   S    
O41   Zn4   S    
C71   C230  A    
O43   Zn2   S    
C152  H101  S    
C1    C207  S    
C160  C161  A    
C73   C86   A    
C2    C80   A    
C222  C249  A    
C75   C88   A    
C35   C244  A    
C188  H5    S    
C218  C244  A    
C241  H45   S    
C40   C156  S    
O85   S1    D    
C218  C231  A    
C191  H6    S    
C153  C154  A    
O52   Zn12  S    
O1    Zn8   S    
O58   Zn11  S    
C73   C232  A    
C131  C132  A    
C194  H9    S    
C1    O62   A    
O29   Zn3   S    
H25   O109  S    
