data_mof_unit_66301.cif
_audit_creation_date              2012-10-26T18:47:06-0400
_audit_creation_method            fapswitch 2.2
_symmetry_space_group_name_H-M    P1
_symmetry_Int_Tables_number       1
_space_group_crystal_system       triclinic
_cell_length_a                    11.093533
_cell_length_b                    15.814856
_cell_length_c                    17.113574
_cell_angle_alpha                 96.012622
_cell_angle_beta                  91.046512
_cell_angle_gamma                 79.291538
_cell_volume                      2933.93227997

loop_
_atom_site_label
_atom_site_type_symbol
_atom_type_description
_atom_site_fract_x
_atom_site_fract_y
_atom_site_fract_z
_atom_type_partial_charge
C1    C     C_R   0.501805 0.489648 0.348699 0.578238
C2    C     C_R   0.471479 0.114351 0.491084 0.226757
C3    C     C_R   0.602726 0.832680 0.558729 -0.122653
C4    C     C_R   0.397274 0.167320 0.441271 -0.122653
C5    C     C_R   0.594435 0.745178 0.558478 0.026437
C6    C     C_R   0.405565 0.254822 0.441522 0.026437
C7    C     C_R   0.264889 0.535461 0.501551 0.577755
C8    C     C_R   0.735111 0.464539 0.498449 0.577755
C9    C     C_2   0.130970 0.556895 0.502438 0.209940
C10   C     C_2   0.869030 0.443105 0.497561 0.209940
C11   C     C_2   0.067006 0.492372 0.499717 -0.087129
C12   C     C_R   0.498195 0.510352 0.651301 0.578239
C13   C     C_2   0.932994 0.507628 0.500283 -0.087128
C14   C     C_R   0.502652 0.484582 0.262762 0.021066
C15   C     C_R   0.497350 0.515417 0.737238 0.021066
C16   C     C_R   0.563074 0.538372 0.222724 0.210773
C17   C     C_R   0.436934 0.461625 0.777277 0.210773
C18   C     C_R   0.556421 0.534452 0.141157 -0.031448
C19   C     C_R   0.443591 0.465543 0.858843 -0.031449
C20   C     C_R   0.490257 0.477055 0.098312 0.192865
C21   C     C_R   0.509755 0.522940 0.901688 0.192866
C22   C     C_R   0.433921 0.422258 0.138188 -0.099395
C23   C     C_R   0.440009 0.425773 0.219702 -0.172352
C24   C     C_R   0.566087 0.577739 0.861812 -0.099395
C25   C     C_R   0.559994 0.574227 0.780297 -0.172353
C26   C     C_R   0.442045 0.759186 0.459923 0.110193
C27   C     C_R   0.557954 0.240814 0.540077 0.110194
C28   C     C_R   0.447182 0.847065 0.457654 0.243854
C29   C     C_R   0.552817 0.152935 0.542346 0.243855
C30   C     C_R   0.528521 0.885649 0.508916 0.226757
Cl1   Cl    Cl    0.940274 0.332863 0.493014 -0.530345
Cl2   Cl    Cl    0.059726 0.667137 0.506986 -0.530345
Cl3   Cl    Cl    0.347295 0.390982 0.728806 -0.515234
Cl4   Cl    Cl    0.652712 0.609014 0.271195 -0.515235
Cl5   Cl    Cl    0.643087 0.098112 0.613847 -0.485571
Cl6   Cl    Cl    0.356912 0.901888 0.386153 -0.485571
Cu1   Cu    Cu3+1 0.494060 0.416090 0.496220 1.043530
Cu2   Cu    Cu3+1 0.505940 0.583910 0.503780 1.043530
H1    H     H_    0.884414 0.574070 0.503033 0.190980
H2    H     H_    0.606613 0.616305 0.750745 0.144896
H3    H     H_    0.618911 0.270628 0.579539 0.183695
H4    H     H_    0.381088 0.729372 0.420461 0.183695
H5    H     H_    0.667471 0.859240 0.597692 0.174927
H6    H     H_    0.332529 0.140759 0.402308 0.174927
H7    H     H_    0.115586 0.425930 0.496966 0.190979
H8    H     H_    0.652742 0.705185 0.596904 0.143430
H9    H     H_    0.347259 0.294815 0.403096 0.143430
H10   H     H_    0.396543 0.423746 0.888374 0.183023
H11   H     H_    0.603472 0.576248 0.111627 0.183023
H12   H     H_    0.383686 0.377383 0.105888 0.155958
H13   H     H_    0.616321 0.622615 0.894111 0.155958
H14   H     H_    0.393386 0.383696 0.249254 0.144896
N1    N     N_2   0.478334 0.472089 0.015433 -0.226562
N2    N     N_2   0.521680 0.527906 0.984567 -0.226561
N3    N     N_R   0.514860 0.709950 0.509460 -0.257977
N4    N     N_R   0.485140 0.290050 0.490540 -0.257977
N5    N     N_2   0.545519 0.973687 0.509959 -0.127768
N6    N     N_2   0.454481 0.026313 0.490041 -0.127767
O1    O     O_R   0.494450 0.421340 0.382530 -0.518759
O2    O     O_R   0.505550 0.578660 0.617470 -0.518758
O3    O     O_R   0.504470 0.563060 0.388920 -0.456437
O4    O     O_R   0.495530 0.436940 0.611080 -0.456437
O5    O     O_R   0.317520 0.455180 0.497990 -0.524171
O6    O     O_R   0.682480 0.544820 0.502010 -0.524170
O7    O     O_R   0.327540 0.596900 0.504370 -0.462518
O8    O     O_R   0.672460 0.403100 0.495630 -0.462519

loop_
_geom_bond_atom_site_label_1
_geom_bond_atom_site_label_2
_ccdc_geom_bond_type
C14   C23   A    
C3    C30   A    
C2    C4    A    
C2    N6    S    
C8    O8    A    
Cu1   Cu2   S    
C7    O7    A    
C11   C13   S    
C5    H8    S    
C29   Cl5   S    
Cu2   O6    S    
C12   C15   S    
C22   H12   S    
Cu2   O3    S    
C3    H5    S    
Cu1   O8    S    
C27   N4    A    
C24   H13   S    
C28   C30   A    
Cu1   O4    S    
N5    N6    D    
Cu1   N4    S    
N1    N2    D    
C26   N3    A    
C9    C11   D    
C7    O5    A    
C23   H14   S    
Cu1   O1    S    
C17   Cl3   S    
C8    O6    A    
C2    C29   A    
Cu2   O2    S    
C4    C6    A    
C19   C21   A    
C20   C22   A    
C18   C20   A    
C11   H7    S    
C1    O1    A    
C25   H2    S    
C21   N2    S    
C14   C16   A    
C13   H1    S    
C26   H4    S    
C27   C29   A    
C6    H9    S    
Cu2   N3    S    
C12   O2    A    
C30   N5    S    
C7    C9    S    
C12   O4    A    
C24   C25   A    
C28   Cl6   S    
C15   C25   A    
C16   C18   A    
C21   C24   A    
C15   C17   A    
C27   H3    S    
C19   H10   S    
C17   C19   A    
C1    C14   S    
C4    H6    S    
C9    Cl2   S    
C16   Cl4   S    
Cu1   O5    S    
Cu2   O7    S    
C26   C28   A    
C10   Cl1   S    
C5    N3    A    
C8    C10   S    
C22   C23   A    
C18   H11   S    
C6    N4    A    
C20   N1    S    
C3    C5    A    
C10   C13   D    
C1    O3    A    
