data_mof_unit_61166.cif
_audit_creation_date              2013-03-05T15:44:07-0500
_audit_creation_method            fapswitch 2.2
_symmetry_space_group_name_H-M    P1
_symmetry_Int_Tables_number       1
_space_group_crystal_system       triclinic
_cell_length_a                    14.158636
_cell_length_b                    10.635166
_cell_length_c                    10.030421
_cell_angle_alpha                 91.353357
_cell_angle_beta                  90.089221
_cell_angle_gamma                 89.914142
_cell_volume                      1509.95045246

loop_
_atom_site_label
_atom_site_type_symbol
_atom_site_description
_atom_site_fract_x
_atom_site_fract_y
_atom_site_fract_z
_atom_type_partial_charge
O1    O     O_R   0.499990 0.319060 0.613040 -0.593763
O2    O     O_R   0.500010 0.319100 0.386900 -0.580012
C1    C     C_R   0.501043 0.261917 0.498132 0.906332
O3    O     O_R   0.373700 0.499980 0.613090 -0.578948
O4    O     O_R   0.373730 0.500020 0.386960 -0.534414
C2    C     C_R   0.329171 0.499844 0.499903 0.886997
Zn1   Zn    Zn3+2 0.499980 0.499970 0.650990 0.994794
Zn2   Zn    Zn3+2 0.500020 0.500030 0.349010 1.076026
O5    O     O_R   0.499990 0.680900 0.613100 -0.623560
O6    O     O_R   0.500010 0.680940 0.386960 -0.584957
O7    O     O_R   0.626270 0.499980 0.613040 -0.597010
O8    O     O_R   0.626300 0.500020 0.386910 -0.610041
C3    C     C_R   0.487396 0.736972 0.501531 0.811090
C4    C     C_R   0.670818 0.500093 0.500070 0.876587
C5    C     C_1   0.227714 0.499982 0.499668 -0.123849
C6    C     C_1   0.142487 0.500079 0.499638 0.036336
C7    C     C_1   0.042621 0.500147 0.499769 0.039295
C8    C     C_1   0.957394 0.500168 0.499948 0.032603
C9    C     C_1   0.857525 0.500158 0.500149 0.006398
C10   C     C_1   0.772292 0.500131 0.500219 -0.186040
C11   C     C_2   0.442466 0.932550 0.393813 0.270741
C12   C     C_2   0.454658 0.867268 0.506723 0.137096
C13   C     C_2   0.445673 0.069356 0.401411 -0.123716
C14   C     C_2   0.500301 0.128380 0.491918 -0.299291
H1    H     H_    0.405707 0.121790 0.328442 0.209015
H2    H     H_    0.544188 0.079262 0.562732 0.186485
C15   C     C_2   0.528177 0.594894 0.927007 -0.064482
N1    N     N_2   0.500930 0.501330 0.852150 -0.166381
H3    H     H_    0.546299 0.682775 0.880781 0.162059
H4    H     H_    0.498727 0.414194 0.894291 0.209584
C16   C     C_2   0.541052 0.585523 0.075309 -0.007100
N2    N     N_2   0.500950 0.501360 0.147810 -0.006091
H5    H     H_    0.587846 0.653030 0.123971 0.133222
N3    N     N_R   0.426355 0.873159 0.265286 0.197879
O9    O     O_R   0.461849 0.922419 0.158940 -0.375098
O10   O     O_R   0.360985 0.787825 0.251615 -0.338119
O11   O     O_3   0.433738 0.925947 0.628571 -0.751448
H6    H     H_    0.444224 0.867794 0.702672 0.372445
N4    N     N_R   0.417844 0.447657 0.098393 0.285789
O12   O     O_R   0.398138 0.332249 0.127885 -0.360754
O13   O     O_R   0.350232 0.518994 0.054492 -0.325699

loop_
_geom_bond_atom_site_label_1
_geom_bond_atom_site_label_2
_geom_bond_distance
_ccdc_geom_bond_type
O4    Zn2   1.828745 S    
C13   C14   1.337448 D    
C16   H5    1.084679 S    
O11   H6    0.988978 S    
C15   H3    1.084397 S    
C9    C10   1.206785 T    
Zn2   O8    1.827341 S    
N1    H4    1.028134 S    
O2    C1    1.283293 A    
N4    O13   1.303157 A    
C11   C12   1.353011 D    
Zn1   O7    1.828743 S    
C1    C14   1.420138 S    
O3    Zn1   1.827342 S    
O3    C2    1.297740 A    
O8    C4    1.297442 A    
C3    C12   1.460316 S    
C7    C8    1.206705 T    
N3    O10   1.302041 A    
C11   C13   1.455922 S    
O4    C2    1.297592 A    
N3    O9    1.301428 A    
O7    C4    1.297732 A    
C15   C16   1.503992 S    
C5    C6    1.206706 T    
Zn2   N2    2.018567 S    
C4    C10   1.436731 S    
N4    O12   1.300092 A    
C13   H1    1.088075 S    
Zn2   O6    1.952462 S    
C8    C9    1.414014 S    
N2    N4    1.394010 S    
C15   N1    1.291403 D    
Zn1   O5    1.970180 S    
O5    C3    1.292419 A    
C11   N3    1.440156 S    
C2    C5    1.436483 S    
O1    Zn1   1.952462 S    
C12   O11   1.391215 S    
O2    Zn2   1.970180 S    
Zn1   N1    2.017454 S    
C16   N2    1.298449 D    
C14   H2    1.085671 S    
C6    C7    1.413967 S    
O1    C1    1.290317 A    
O6    C3    1.294458 A    
