data_mof_unit_22185.cif
_audit_creation_date              2012-12-11T15:52:28-0500
_audit_creation_method            fapswitch 2.2
_symmetry_space_group_name_H-M    P1
_symmetry_Int_Tables_number       1
_space_group_crystal_system       triclinic
_cell_length_a                    6.929328
_cell_length_b                    14.551799
_cell_length_c                    16.029227
_cell_angle_alpha                 90.23759
_cell_angle_beta                  90.106124
_cell_angle_gamma                 90.001838
_cell_volume                      1616.27742289

loop_
_atom_site_label
_atom_site_type_symbol
_atom_type_description
_atom_site_fract_x
_atom_site_fract_y
_atom_site_fract_z
_atom_type_partial_charge
O1    O     O_R   0.494400 0.415640 0.412830 -0.545976
O2    O     O_R   0.823920 0.405510 0.586560 -0.545760
O3    O     O_R   0.994250 0.584360 0.587170 -0.549808
C1    C     C_R   0.654958 0.383241 0.615418 0.688483
O4    O     O_R   0.824110 0.404610 0.413450 -0.547378
O5    O     O_R   0.994440 0.583460 0.412820 -0.541185
C2    C     C_R   0.654963 0.382154 0.384360 0.673346
O6    O     O_R   0.494210 0.416540 0.587180 -0.540883
O7    O     O_3   0.660810 0.558680 0.500000 -0.353832
V1    V     V_3+5 0.935650 0.489110 0.500000 1.427895
O8    O     O_R   0.324150 0.594490 0.413440 -0.540664
C3    C     C_R   0.154984 0.616568 0.384431 0.712287
O9    O     O_R   0.323970 0.595390 0.586550 -0.516159
C4    C     C_R   0.155248 0.618785 0.614550 0.772257
V2    V     V_3+5 0.435660 0.510890 0.500000 1.478593
O10   O     O_3   0.160630 0.441320 0.500000 -0.379379
C5    C     C_3   0.062521 0.644119 0.765119 0.146310
H1    H     H_    0.914102 0.618352 0.751047 0.091233
C6    C     C_3   0.048959 0.715519 0.837692 -0.387805
H2    H     H_    0.136471 0.692116 0.891914 0.162742
H3    H     H_    0.897683 0.719713 0.860257 0.118422
H4    H     H_    0.860491 0.742287 0.649951 0.201274
C7    C     C_3   0.008010 0.769823 0.661029 -0.403187
C8    C     C_3   0.348607 0.730999 0.705760 0.254798
C9    C     C_3   0.145491 0.689530 0.684681 -0.027515
H5    H     H_    0.449345 0.674563 0.722933 0.126985
C10   C     C_3   0.121949 0.811360 0.809465 -0.051681
C11   C     C_3   0.004668 0.844187 0.731407 0.238026
C12   C     C_3   0.334729 0.798443 0.780578 -0.404695
H6    H     H_    0.423094 0.771288 0.833086 0.139513
H7    H     H_    0.397049 0.866395 0.763874 0.206598
H8    H     H_    0.053630 0.801711 0.601315 0.193438
H9    H     H_    0.076157 0.906987 0.706852 0.142441
C13   C     C_R   0.965216 0.760133 0.204122 -0.170760
H10   H     H_    0.834306 0.763839 0.167262 0.158785
C14   C     C_R   0.975045 0.695462 0.268448 -0.145514
H11   H     H_    0.850965 0.652014 0.279741 0.130278
C15   C     C_R   0.143874 0.685579 0.316331 -0.123713
C16   C     C_R   0.301087 0.743360 0.299585 -0.137682
H12   H     H_    0.431247 0.738589 0.336899 0.157486
C17   C     C_R   0.290221 0.811306 0.238000 0.356254
C18   C     C_R   0.122405 0.818254 0.186744 -0.147999
C19   C     C_R   0.812224 0.274141 0.716292 -0.152568
H13   H     H_    0.952942 0.292546 0.692321 0.119891
C20   C     C_R   0.801178 0.209402 0.780441 -0.136411
H14   H     H_    0.933948 0.179836 0.803852 0.118709
C21   C     C_R   0.621574 0.183207 0.813753 -0.042966
C22   C     C_R   0.453314 0.223485 0.781107 -0.152925
H15   H     H_    0.312599 0.205100 0.805093 0.115483
C23   C     C_R   0.464356 0.288220 0.716955 -0.132279
H16   H     H_    0.331585 0.317800 0.693555 0.123254
C24   C     C_R   0.643955 0.314374 0.683610 -0.046106
C25   C     C_R   0.812090 0.274334 0.281270 -0.151440
H17   H     H_    0.952926 0.293130 0.305216 0.116004
C26   C     C_R   0.801103 0.210452 0.215766 -0.143435
H18   H     H_    0.933995 0.181889 0.191477 0.116329
C27   C     C_R   0.621475 0.183796 0.182223 -0.045183
C28   C     C_R   0.453135 0.222787 0.216212 -0.155171
H19   H     H_    0.312305 0.203966 0.192275 0.114375
C29   C     C_R   0.464123 0.286680 0.281715 -0.146029
H20   H     H_    0.331237 0.315236 0.306014 0.116337
C30   C     C_R   0.643766 0.313395 0.315211 -0.043506
O11   O     O_R   0.771300 0.080930 0.910090 -0.538024
O12   O     O_R   0.441270 0.092800 0.083770 -0.549197
O13   O     O_R   0.271080 0.913920 0.084380 -0.532380
C31   C     C_R   0.610363 0.115182 0.112964 0.685877
O14   O     O_R   0.441580 0.091910 0.910670 -0.547788
O15   O     O_R   0.271390 0.913020 0.910040 -0.545832
C32   C     C_R   0.610555 0.114247 0.881868 0.705572
O16   O     O_R   0.770990 0.081830 0.084440 -0.541850
O17   O     O_3   0.604750 0.938760 0.997250 -0.359625
V3    V     V_3+5 0.329850 0.008280 0.997210 1.414885
O18   O     O_R   0.941680 0.901940 0.910610 -0.522058
C33   C     C_R   0.110570 0.880561 0.880906 0.725267
O19   O     O_R   0.941370 0.902830 0.083720 -0.536308
C34   C     C_R   0.110505 0.883270 0.114858 0.686054
V4    V     V_3+5 0.829860 0.986420 0.997150 1.456620
O20   O     O_3   0.104830 0.056030 0.997180 -0.379773
O21   O     O_3   0.444612 0.870542 0.231721 -0.641170
H21   H     H_    0.393026 0.932870 0.221026 0.288146
O22   O     O_3   0.179090 0.569554 0.788921 -0.660269
H22   H     H_    0.102207 0.532413 0.828663 0.286341
O23   O     O_3   0.814295 0.869352 0.751439 -0.620798
H23   H     H_    0.745530 0.813239 0.769536 0.304227
Cl1   Cl    Cl    0.454130 0.788379 0.617646 -0.686151

loop_
_geom_bond_atom_site_label_1
_geom_bond_atom_site_label_2
_ccdc_geom_bond_type
C26   H18   S    
C10   C12   S    
O18   C33   A    
C6    H2    S    
C13   C18   A    
C27   C31   S    
C1    O6    A    
O12   V3    S    
O22   H22   S    
C16   C17   A    
C25   H17   S    
O13   C34   A    
C1    C24   S    
O23   H23   S    
C14   H11   S    
C6    H3    S    
C8    H5    S    
C13   H10   S    
O5    C3    A    
C15   C16   A    
C19   C24   A    
O15   C33   A    
V2    O10   S    
C29   C30   A    
O14   V3    S    
C17   C18   A    
C8    C12   S    
C21   C32   S    
V3    O20   S    
O8    V2    S    
O11   C32   A    
C23   C24   A    
O1    V2    S    
C10   C33   S    
C6    C10   S    
O7    V1    S    
C13   C14   A    
C20   C21   A    
O9    C4    A    
O16   V4    S    
C23   H16   S    
C25   C26   A    
C8    C9    S    
C16   H12   S    
O4    C2    A    
C8    Cl1   S    
C28   H19   S    
V4    O20   S    
C29   H20   S    
O14   C32   A    
O12   C31   A    
O2    C1    A    
O19   C34   A    
C2    C30   S    
O5    V1    S    
C12   H6    S    
O19   V4    S    
C25   C30   A    
C21   C22   A    
O15   V3    S    
C5    H1    S    
C7    C11   S    
C22   C23   A    
C19   C20   A    
O3    C4    A    
C22   H15   S    
C11   H9    S    
O6    V2    S    
O9    V2    S    
C19   H13   S    
O2    V1    S    
O17   V4    S    
O11   V4    S    
O1    C2    A    
C17   O21   S    
O8    C3    A    
O13   V3    S    
C18   C34   S    
C5    C9    S    
C7    H8    S    
C26   C27   A    
O7    V2    S    
O4    V1    S    
C12   H7    S    
O3    V1    S    
V1    O10   S    
C27   C28   A    
C31   O16   A    
C14   C15   A    
C5    C6    S    
C5    O22   S    
C7    C9    S    
C4    C9    S    
C3    C15   S    
O21   H21   S    
C20   H14   S    
O17   V3    S    
C10   C11   S    
O18   V4    S    
H4    C7    S    
C28   C29   A    
C11   O23   S    
