data_mof_unit_38119.cif
_audit_creation_date              2012-12-10T21:00:33-0500
_audit_creation_method            fapswitch 2.2
_symmetry_space_group_name_H-M    P1
_symmetry_Int_Tables_number       1
_space_group_crystal_system       triclinic
_cell_length_a                    18.137211
_cell_length_b                    18.179678
_cell_length_c                    18.323571
_cell_angle_alpha                 120.017079
_cell_angle_beta                  89.848289
_cell_angle_gamma                 119.954083
_cell_volume                      4279.67758497

loop_
_atom_site_label
_atom_site_type_symbol
_atom_type_description
_atom_site_fract_x
_atom_site_fract_y
_atom_site_fract_z
_atom_type_partial_charge
C1    C     C_R   0.110787 0.220044 0.609851 0.798431
C2    C     C_3   0.450463 0.897512 0.947550 0.035193
C3    C     C_3   0.445759 0.032413 0.017834 -0.117083
C4    C     C_3   0.554175 0.967577 0.982248 -0.115989
C5    C     C_3   0.413406 0.437350 0.448253 -0.143480
C6    C     C_3   0.586590 0.562550 0.551755 -0.136604
C7    C     C_3   0.477017 0.402879 0.442656 -0.172752
C8    C     C_3   0.522980 0.597019 0.557354 -0.163698
C9    C     C_3   0.551006 0.500149 0.449572 0.066503
C10   C     C_3   0.448990 0.499756 0.550436 0.063421
C11   C     C_3   0.488365 0.534698 0.454393 -0.187360
C12   C     C_R   0.889027 0.779959 0.390143 0.817965
C13   C     C_3   0.511634 0.465209 0.545624 -0.193439
C14   C     C_R   0.154982 0.175264 0.829251 -0.250443
C15   C     C_R   0.838969 0.822861 0.172063 -0.251369
C16   C     C_R   0.392875 0.781181 0.888332 0.767911
C17   C     C_R   0.607115 0.218816 0.111694 0.765613
C18   C     C_R   0.130419 0.127411 0.737167 -0.243197
C19   C     C_R   0.865529 0.871436 0.264219 -0.249238
C20   C     C_R   0.049094 0.098620 0.690575 0.040000
C21   C     C_R   0.948168 0.901429 0.309385 0.041758
C22   C     C_R   0.991811 0.117945 0.736829 0.497639
C23   C     C_3   0.983805 0.430034 0.413222 -0.265640
C24   C     C_R   0.006040 0.885689 0.262014 0.489498
C25   C     C_R   0.015877 0.163398 0.829250 -0.245568
C26   C     C_R   0.977977 0.834948 0.168893 -0.249083
C27   C     C_R   0.097642 0.193533 0.875990 0.473338
C28   C     C_R   0.894921 0.803553 0.123588 0.474205
C29   C     C_R   0.971165 0.943671 0.537170 -0.207139
C30   C     C_R   0.028161 0.056349 0.462801 -0.231373
C31   C     C_R   0.945104 0.892308 0.444564 -0.064912
C32   C     C_R   0.054296 0.107702 0.555404 -0.063648
C33   C     C_R   0.973633 0.949349 0.406659 0.076852
C34   C     C_3   0.016169 0.569930 0.586777 -0.266833
C35   C     C_R   0.025362 0.050660 0.593294 0.068880
C36   C     C_R   0.641832 0.612271 0.799842 -0.114006
C37   C     C_R   0.358948 0.388134 0.200727 -0.112882
C38   C     C_R   0.596245 0.558050 0.836609 -0.127646
C39   C     C_R   0.405064 0.442425 0.164165 -0.124745
C40   C     C_R   0.111253 0.501227 0.890061 0.792597
C41   C     C_R   0.888887 0.498922 0.110082 0.807720
C42   C     C_R   0.593419 0.611340 0.923210 0.150070
C43   C     C_R   0.406473 0.388835 0.076951 0.152831
C44   C     C_R   0.637095 0.719274 0.972777 -0.157051
C45   C     C_3   0.447870 0.966265 0.923553 -0.189104
C46   C     C_R   0.360813 0.280551 0.026584 -0.156864
C47   C     C_R   0.682307 0.773113 0.935630 -0.135069
C48   C     C_R   0.315112 0.226646 0.063542 -0.139615
C49   C     C_R   0.684586 0.719626 0.849188 -0.079833
C50   C     C_R   0.314267 0.280421 0.150587 -0.084816
C51   C     C_R   0.593033 0.553817 0.018317 -0.264474
C52   C     C_R   0.406921 0.446134 0.981665 -0.262979
C53   C     C_R   0.550353 0.500301 0.056376 -0.042223
C54   C     C_R   0.449624 0.499762 0.943702 -0.043489
C55   C     C_R   0.456189 0.445959 0.038297 -0.018193
C56   C     C_3   0.552060 0.033723 0.076528 -0.190526
C57   C     C_R   0.543779 0.554129 0.961807 -0.017756
C58   C     C_R   0.189773 0.851743 0.043335 0.478992
C59   C     C_R   0.811539 0.150301 0.959839 0.505965
C60   C     C_R   0.154022 0.766874 0.048663 -0.181056
C61   C     C_R   0.846210 0.234956 0.954374 -0.193325
C62   C     C_R   0.078099 0.668884 0.980011 0.053185
C63   C     C_R   0.923456 0.332588 0.021562 0.051922
C64   C     C_R   0.392284 0.499996 0.607690 0.767051
C65   C     C_R   0.607714 0.499968 0.392312 0.766732
C66   C     C_R   0.037018 0.656326 0.906088 -0.063799
C67   C     C_3   0.552260 0.037762 0.958961 -0.151886
C68   C     C_R   0.966417 0.345293 0.094589 -0.057646
C69   C     C_R   0.072999 0.740325 0.899790 -0.146586
C70   C     C_R   0.931342 0.261621 0.101229 -0.146961
C71   C     C_R   0.149039 0.837699 0.967906 -0.216878
C72   C     C_R   0.854321 0.164415 0.034288 -0.220284
C73   C     C_R   0.984276 0.576961 0.040974 -0.229233
C74   C     C_R   0.016844 0.424118 0.960180 -0.260246
C75   C     C_R   0.945510 0.497660 0.053767 -0.062896
C76   C     C_R   0.055106 0.502982 0.946857 -0.058708
C77   C     C_R   0.962135 0.420094 0.012872 0.014478
C78   C     C_3   0.447666 0.962220 0.041112 -0.153235
C79   C     C_R   0.038804 0.580847 0.988076 0.011536
C80   C     C_R   0.393928 0.499298 0.887961 0.800621
C81   C     C_R   0.606066 0.500724 0.112064 0.796958
C82   C     C_R   0.109045 0.500326 0.607896 0.848009
C83   C     C_R   0.890944 0.499661 0.392105 0.850546
C84   C     C_3   0.078784 0.526485 0.482739 -0.315554
C85   C     C_3   0.921189 0.473480 0.517259 -0.317404
C86   C     C_3   0.041102 0.592601 0.516625 0.511123
C87   C     C_3   0.958873 0.407364 0.483376 0.509107
C88   C     C_3   0.947944 0.498524 0.448349 -0.041463
C89   C     C_3   0.549480 0.102479 0.052525 0.035526
C90   C     C_3   0.052031 0.501444 0.551650 -0.041157
C91   C     C_3   0.908705 0.172934 0.718816 -0.289974
C92   C     C_3   0.158985 0.993176 0.305870 -0.311744
H1    H     H_    0.218412 0.197597 0.863930 0.134955
H2    H     H_    0.278908 0.238641 0.179148 0.120405
H3    H     H_    0.644014 0.571142 0.733111 0.117269
H4    H     H_    0.357775 0.429465 0.267884 0.117040
H5    H     H_    0.562835 0.474798 0.797680 0.110467
H6    H     H_    0.439893 0.525931 0.203679 0.110271
H7    H     H_    0.635298 0.761270 0.039616 0.120353
H8    H     H_    0.361402 0.238293 0.959229 0.120572
H9    H     H_    0.144263 0.550254 0.470393 0.156735
H10   H     H_    0.855711 0.449709 0.529606 0.155691
H11   H     H_    0.715436 0.856234 0.973770 0.120227
H12   H     H_    0.774533 0.799522 0.138511 0.135107
H13   H     H_    0.280449 0.143238 0.024764 0.121099
H14   H     H_    0.665237 0.594609 0.031259 0.179483
H15   H     H_    0.334683 0.405180 0.968589 0.179303
H16   H     H_    0.175749 0.902057 0.962123 0.118037
H17   H     H_    0.828448 0.100234 0.040193 0.118083
H18   H     H_    0.184988 0.777461 0.106707 0.155801
H19   H     H_    0.813464 0.224416 0.897261 0.143291
H20   H     H_    0.977628 0.581428 0.853285 0.129116
H21   H     H_    0.026694 0.419995 0.146344 0.132599
H22   H     H_    0.041631 0.730068 0.842220 0.141776
H23   H     H_    0.175211 0.113714 0.702137 0.163852
H24   H     H_    0.964253 0.271949 0.158059 0.142192
H25   H     H_    0.972486 0.637087 0.072687 0.184078
H26   H     H_    0.029203 0.364452 0.929083 0.177429
H27   H     H_    0.968791 0.371350 0.342054 0.162199
H28   H     H_    0.031185 0.628615 0.657944 0.162274
H29   H     H_    0.595491 0.070136 0.925607 0.174207
H30   H     H_    0.404374 0.929861 0.074446 0.174081
H31   H     H_    0.404534 0.937498 0.860008 0.134321
H32   H     H_    0.595396 0.062487 0.140072 0.133715
H33   H     H_    0.401507 0.059931 0.032668 0.136343
H34   H     H_    0.821101 0.884336 0.300358 0.163658
H35   H     H_    0.598376 0.939993 0.967431 0.136254
H36   H     H_    0.459192 0.323318 0.394561 0.136938
H37   H     H_    0.540785 0.676569 0.605451 0.143627
H38   H     H_    0.341509 0.385950 0.406452 0.141172
H39   H     H_    0.658484 0.613935 0.593557 0.145693
H40   H     H_    0.480372 0.563782 0.416370 0.126009
H41   H     H_    0.519695 0.436235 0.583730 0.124848
H42   H     H_    0.141597 0.735130 0.580003 0.321740
H43   H     H_    0.858380 0.264836 0.420015 0.321014
H44   H     H_    0.179029 0.257057 0.989806 0.333872
H45   H     H_    0.970834 0.175035 0.864962 0.166752
H46   H     H_    0.809887 0.736084 0.010440 0.333595
H47   H     H_    0.970619 0.235656 0.720856 0.162743
H48   H     H_    0.898865 0.203077 0.784917 0.154841
H49   H     H_    0.850557 0.148414 0.670721 0.194430
H50   H     H_    0.153985 0.060082 0.332561 0.149510
H51   H     H_    0.164515 0.965479 0.237960 0.194511
H52   H     H_    0.222196 0.021655 0.350034 0.203119
H53   H     H_    0.279454 0.998793 0.099674 0.318172
H54   H     H_    0.722012 0.003425 0.904334 0.318141
H55   H     H_    0.020397 0.818805 0.131351 0.161159
H56   H     H_    0.949390 0.900574 0.566705 0.179912
H57   H     H_    0.049771 0.099470 0.433290 0.170357
H58   H     H_    0.719526 0.761347 0.820465 0.126283
O1    O     O_3   0.251620 0.500000 0.748430 -0.483946
O2    O     O_R   0.570330 0.268390 0.136490 -0.639957
O3    O     O_R   0.134680 0.268390 0.572240 -0.641305
O4    O     O_R   0.865320 0.731610 0.427760 -0.640873
O5    O     O_R   0.306670 0.731630 0.863510 -0.636545
O6    O     O_R   0.693330 0.268370 0.136490 -0.638659
O7    O     O_R   0.135450 0.439270 0.865360 -0.652292
O8    O     O_R   0.864550 0.560730 0.134640 -0.639915
O9    O     O_R   0.429670 0.560710 0.692610 -0.636176
O10   O     O_R   0.570330 0.439290 0.307390 -0.637834
O11   O     O_R   0.308540 0.439240 0.865360 -0.647356
O12   O     O_3   0.748380 0.500000 0.251570 -0.488226
O13   O     O_R   0.691460 0.560760 0.134640 -0.649790
O14   O     O_R   0.133580 0.439310 0.571150 -0.617852
O15   O     O_R   0.866420 0.560690 0.428850 -0.617047
O16   O     O_R   0.430770 0.560690 0.864590 -0.634660
O17   O     O_R   0.569230 0.439310 0.135410 -0.635466
O18   O     O_R   0.133580 0.560760 0.692610 -0.659546
O19   O     O_R   0.866420 0.439240 0.307390 -0.658831
O20   O     O_3   0.082932 0.690329 0.532555 -0.761425
O21   O     O_3   0.917051 0.309641 0.467455 -0.768069
O22   O     O_3   0.119236 0.239858 0.966771 -0.767533
O23   O     O_R   0.134680 0.560740 0.864590 -0.637313
O24   O     O_3   0.870273 0.753909 0.032325 -0.768798
O25   O     O_3   0.910151 0.085789 0.689671 -0.602369
O26   O     O_3   0.086020 0.911959 0.306214 -0.604398
O27   O     O_3   0.263626 0.947009 0.112822 -0.813252
O28   O     O_3   0.736832 0.055103 0.891320 -0.790415
O29   O     O_R   0.865320 0.439260 0.135410 -0.639491
O30   O     O_R   0.306670 0.439270 0.571150 -0.652656
O31   O     O_R   0.693330 0.560730 0.428850 -0.649977
O32   O     O_R   0.135450 0.268370 0.694460 -0.652266
O33   O     O_R   0.864550 0.731630 0.305540 -0.637363
O34   O     O_R   0.429670 0.731610 0.863510 -0.639282
Zn1   Zn    Zn3+2 0.207400 0.586780 0.791530 0.968519
Zn2   Zn    Zn3+2 0.792600 0.413220 0.208470 0.972335
Zn3   Zn    Zn3+2 0.208510 0.413230 0.792630 0.960092
Zn4   Zn    Zn3+2 0.791490 0.586770 0.207370 0.982820
Zn5   Zn    Zn3+2 0.383150 0.586740 0.791530 0.971972
Zn6   Zn    Zn3+2 0.616850 0.413260 0.208470 0.968465
Zn7   Zn    Zn3+2 0.207400 0.413250 0.618010 0.975707
Zn8   Zn    Zn3+2 0.792600 0.586750 0.381990 0.988235

loop_
_geom_bond_atom_site_label_1
_geom_bond_atom_site_label_2
_ccdc_geom_bond_type
C7    C13   S    
O12   Zn4   S    
C8    C10   S    
C81   O13   A    
O9    Zn5   S    
C25   H45   S    
C76   C79   A    
C11   H40   S    
C29   H56   S    
O12   Zn8   S    
C22   O25   S    
C47   C49   A    
O29   Zn2   S    
C65   O31   A    
C45   H31   S    
C15   C19   A    
C14   C27   A    
C83   O15   A    
O23   Zn1   S    
C42   C44   A    
C49   H58   S    
C6    C8    S    
C56   H32   S    
C53   C81   S    
C19   C21   A    
C84   C86   S    
O19   Zn2   S    
C5    C11   S    
C38   H5    S    
C23   H27   S    
C40   O23   A    
C64   O30   A    
O31   Zn8   S    
C86   C88   S    
C58   C71   A    
C66   C69   A    
C21   C33   S    
C58   C60   A    
C67   C89   S    
O15   Zn8   S    
C56   C78   S    
H54   O28   S    
C60   C62   A    
C34   C86   S    
C61   C63   A    
C92   H51   S    
C14   C18   A    
O2    Zn6   S    
C63   C68   A    
C20   C35   S    
H44   O22   S    
C52   H15   S    
C74   C77   A    
C45   C67   S    
C31   C33   A    
C51   C57   A    
H43   O21   S    
C15   H12   S    
O14   Zn7   S    
C2    C16   S    
C14   H1    S    
C30   C33   A    
C52   C55   A    
C68   H21   S    
O1    Zn7   S    
C83   C88   S    
C69   C71   A    
C23   C87   S    
C71   H16   S    
C4    C56   S    
C84   H9    S    
C73   C75   A    
C84   C90   S    
C6    C9    S    
C65   O10   A    
C92   H52   S    
C67   H29   S    
C42   C57   S    
C80   O16   A    
C52   C54   A    
C54   C80   S    
C63   C77   S    
C53   C55   A    
C2    C45   S    
C34   H28   S    
C74   H26   S    
C46   C48   A    
C69   H22   S    
C59   C61   A    
C47   H11   S    
C23   C84   S    
C62   C66   A    
C85   C87   S    
C91   O25   S    
C32   C35   A    
C62   C79   S    
C73   H25   S    
O5    Zn1   S    
C12   O4    A    
O12   Zn2   S    
C50   H2    S    
C39   H6    S    
C82   O18   A    
O30   Zn7   S    
C70   H24   S    
O1    Zn3   S    
C22   C25   A    
C1    C32   S    
C92   O26   S    
C40   C76   S    
C37   H4    S    
O13   Zn4   S    
C51   C53   A    
C34   C85   S    
C37   C39   A    
C2    C4    S    
C34   C90   S    
H46   O24   S    
C2    C78   S    
C41   C75   S    
C9    C11   S    
C40   O7    A    
C48   H13   S    
C8    C11   S    
C87   O21   S    
C16   O5    A    
C16   O34   A    
C81   O17   A    
C17   C89   S    
C1    O3    A    
C75   C77   A    
C74   C76   A    
C91   H47   S    
C43   C55   S    
C56   C89   S    
C20   C22   A    
C23   C88   S    
C12   C31   S    
C7    H36   S    
C21   C24   A    
C17   O2    A    
C24   O26   S    
O12   Zn6   S    
C92   H50   S    
C5    C7    S    
O3    Zn7   S    
C85   C88   S    
O1    Zn1   S    
O17   Zn6   S    
C46   H8    S    
C72   H17   S    
C5    H38   S    
C9    C65   S    
O18   Zn1   S    
C4    H35   S    
C86   O20   S    
O4    Zn8   S    
C41   O29   A    
C59   O28   S    
C10   C64   S    
O7    Zn3   S    
C24   C26   A    
C6    H39   S    
C73   C79   A    
C10   C13   S    
O8    Zn4   S    
C18   H23   S    
C4    C67   S    
C39   C43   A    
C1    O32   A    
C44   C47   A    
C38   C42   A    
O6    Zn2   S    
C25   C27   A    
C29   C35   A    
C59   C72   A    
C19   H34   S    
C26   C28   A    
C82   C90   S    
C3    H33   S    
C3    C89   S    
O16   Zn5   S    
C36   C38   A    
C41   O8    A    
O10   Zn6   S    
C5    C10   S    
C29   C31   A    
O33   Zn4   S    
C6    C13   S    
C30   C32   A    
C37   C50   A    
C17   O6    A    
C36   H3    S    
C28   O24   S    
C15   C28   A    
C82   O14   A    
C51   H14   S    
C83   O19   A    
C64   O9    A    
C48   C50   A    
C44   H7    S    
C3    C45   S    
C58   O27   S    
C18   C20   A    
O32   Zn3   S    
C26   H55   S    
C78   H30   S    
C43   C46   A    
C13   H41   S    
C80   O11   A    
C60   H18   S    
C36   C49   A    
C91   H48   S    
C12   O33   A    
C7    C9    S    
O1    Zn5   S    
O11   Zn3   S    
H42   O20   S    
C87   C90   S    
H53   O27   S    
C8    H37   S    
C68   C70   A    
O34   Zn5   S    
C70   C72   A    
C66   H20   S    
C3    C78   S    
C27   O22   S    
C85   H10   S    
C30   H57   S    
C91   H49   S    
C54   C57   A    
C61   H19   S    
