data_mof_unit_10908.cif
_audit_creation_date              2013-03-05T15:45:35-0500
_audit_creation_method            fapswitch 2.2
_symmetry_space_group_name_H-M    P1
_symmetry_Int_Tables_number       1
_space_group_crystal_system       triclinic
_cell_length_a                    8.296947
_cell_length_b                    14.313008
_cell_length_c                    19.087659
_cell_angle_alpha                 92.612694
_cell_angle_beta                  94.315858
_cell_angle_gamma                 91.25952
_cell_volume                      2257.22885248

loop_
_atom_site_label
_atom_site_type_symbol
_atom_site_description
_atom_site_fract_x
_atom_site_fract_y
_atom_site_fract_z
_atom_type_partial_charge
P1    P     P_3+3 0.937730 0.712710 0.546710 0.526853
O1    O     O_2   0.108370 0.727470 0.525290 -0.375939
O2    O     O_3   0.865330 0.611210 0.531230 -0.337650
O3    O     O_3   0.346360 0.671710 0.401620 -0.322099
O4    O     O_2   0.207187 0.831202 0.430870 -0.321467
O5    O     O_3   0.965104 0.731017 0.638267 -0.578053
O6    O     O_3   0.326176 0.819143 0.307176 -0.426627
H1    H     H_    0.382054 0.681674 0.280763 0.044329
C1    C     C_3   0.352664 0.755064 0.187604 0.148523
H2    H     H_    0.220645 0.746494 0.179733 0.138301
P2    P     P_3+3 0.357970 0.428340 0.344000 0.498567
P3    P     P_3+3 0.904273 0.618034 0.275868 0.500061
O7    O     O_2   0.182890 0.456530 0.332150 -0.351510
O8    O     O_3   0.933230 0.625130 0.368420 -0.299606
O9    O     O_2   0.014954 0.540669 0.250131 -0.391885
O10   O     O_3   0.351306 0.307227 0.328690 -0.551381
O11   O     O_3   0.989995 0.717636 0.241422 -0.574101
C2    C     C_3   0.873518 0.784463 0.224183 0.940321
H3    H     H_    0.755361 0.751964 0.204343 -0.073641
C3    C     C_3   0.932744 0.843299 0.166119 -0.733235
H4    H     H_    0.050191 0.878682 0.183699 0.289074
H5    H     H_    0.947760 0.797992 0.118373 0.208176
C4    C     C_3   0.794609 0.344282 0.328752 0.408832
H6    H     H_    0.680685 0.367815 0.349461 0.075467
H7    H     H_    0.887637 0.401422 0.336262 0.132660
C5    C     C_3   0.765055 0.319152 0.250469 -0.857887
H8    H     H_    0.664675 0.266337 0.241283 0.254158
H9    H     H_    0.732957 0.381952 0.221315 0.211543
H10   H     H_    0.876223 0.290041 0.229941 0.296307
Ba1   Ba    Ba6+2 0.150350 0.545800 0.464500 1.656694
C6    C     C_3   0.013439 0.648482 0.669450 0.414487
H11   H     H_    0.125133 0.623266 0.647683 0.083018
H12   H     H_    0.917395 0.593263 0.660772 0.141565
C7    C     C_3   0.044664 0.669160 0.748266 -0.936532
H13   H     H_    0.143735 0.722528 0.758775 0.276568
H14   H     H_    0.079260 0.604850 0.775104 0.224136
H15   H     H_    0.933429 0.695923 0.770255 0.264363
C8    C     C_3   0.309231 0.262702 0.388580 0.243717
H16   H     H_    0.180237 0.274131 0.396077 0.089708
H17   H     H_    0.385132 0.288061 0.436377 0.075709
C9    C     C_3   0.338141 0.158599 0.377539 0.044668
H18   H     H_    0.311760 0.121252 0.425055 0.031058
H19   H     H_    0.466991 0.148192 0.367863 0.087336
P4    P     P_3+3 0.872570 0.287280 0.453240 0.483348
O12   O     O_2   0.701930 0.272470 0.474700 -0.381201
O13   O     O_3   0.944970 0.388780 0.468720 -0.412432
O14   O     O_3   0.463940 0.328280 0.598320 -0.380199
O15   O     O_3   0.847526 0.264482 0.362204 -0.536989
P5    P     P_3+3 0.897570 0.375153 0.723951 0.498756
O16   O     O_3   0.372010 0.546630 0.581240 -0.350315
O17   O     O_3   0.877070 0.374860 0.631520 -0.326173
O18   O     O_2   0.788690 0.452770 0.751057 -0.393422
O19   O     O_3   0.807482 0.273148 0.752552 -0.502119
Ba2   Ba    Ba6+2 0.659830 0.454190 0.535450 1.611439
P6    P     P_3+3 0.357374 0.793461 0.396775 0.614135
C10   C     C_3   0.408591 0.754030 0.266150 0.281032
H20   H     H_    0.539972 0.768005 0.273687 0.088133
H21   H     H_    0.402203 0.693659 0.160156 0.022925
O20   O     O_3   0.438280 0.453360 0.418700 -0.374231
C11   C     C_3   0.476562 0.743636 0.648529 0.411082
H22   H     H_    0.603768 0.733214 0.636103 0.122896
H23   H     H_    0.389740 0.732330 0.601644 0.141553
C12   C     C_3   0.462478 0.844639 0.675208 -0.996589
H24   H     H_    0.545416 0.859164 0.723086 0.283736
H25   H     H_    0.495449 0.892388 0.633982 0.221409
H26   H     H_    0.336302 0.858043 0.687930 0.268976
P7    P     P_3+3 0.443912 0.566577 0.670197 0.465332
O21   O     O_2   0.627420 0.543410 0.667830 -0.339573
O22   O     O_3   0.437311 0.683963 0.700902 -0.576516
H27   H     H_    0.844924 0.898127 0.152387 0.279185
C13   C     C_3   0.921878 0.202394 0.758957 0.696813
H28   H     H_    0.043701 0.229421 0.778956 -0.042363
C14   C     C_3   0.867305 0.131365 0.810317 0.076279
H29   H     H_    0.745231 0.102444 0.792268 0.133276
H30   H     H_    0.952397 0.072487 0.811960 0.088413
P8    P     P_3+3 0.446790 0.206265 0.599589 0.501842
C15   C     C_3   0.396613 0.231381 0.729967 0.419672
H31   H     H_    0.271470 0.241161 0.706598 0.045839
O23   O     O_2   0.586583 0.164246 0.560427 -0.351206
O24   O     O_3   0.486392 0.174120 0.686397 -0.472786
H32   H     H_    0.459640 0.300532 0.739818 0.134064
H33   H     H_    0.314203 0.118834 0.791717 0.249824
C16   C     C_3   0.383453 0.186233 0.799965 -0.858196
H34   H     H_    0.320303 0.233333 0.836067 0.229273
H35   H     H_    0.505210 0.173102 0.824789 0.300732
C17   C     C_R   0.008322 0.938343 0.533625 -0.086222
C18   C     C_R   0.807454 0.806151 0.507122 0.197786
C19   C     C_R   0.647887 0.779519 0.482746 0.079569
C20   C     C_R   0.546792 0.840617 0.445352 0.181539
C21   C     C_R   0.597841 0.933625 0.439724 -0.286564
C22   C     C_R   0.750907 0.965898 0.469506 0.098887
C23   C     C_R   0.857423 0.902542 0.503703 -0.007935
C24   C     C_R   0.946470 0.097319 0.496793 0.062397
C25   C     C_R   0.053701 0.033692 0.530061 0.119441
C26   C     C_R   0.991312 0.195160 0.498901 0.293825
C27   C     C_R   0.139385 0.224965 0.533197 -0.477082
C28   C     C_R   0.248488 0.161460 0.561220 0.212084
C29   C     C_R   0.205688 0.066346 0.560442 -0.246440
C30   C     C_R   0.798146 0.060866 0.464575 -0.092383
H36   H     H_    0.518954 0.980331 0.411096 0.165053
H37   H     H_    0.290214 0.018216 0.584217 0.139925
H38   H     H_    0.173814 0.298464 0.535147 0.155830
H39   H     H_    0.090866 0.893284 0.561643 0.145083
H40   H     H_    0.716222 0.106130 0.436513 0.137190
C31   C     C_R   0.601984 0.542818 0.296805 -0.477406
C32   C     C_R   0.461488 0.490180 0.276749 0.306718
C33   C     C_R   0.410688 0.476368 0.204973 -0.265466
C34   C     C_R   0.503022 0.513219 0.152892 0.026957
C35   C     C_R   0.649199 0.562264 0.174516 -0.291498
C36   C     C_R   0.698265 0.576615 0.246189 0.176461
C37   C     C_R   0.473431 0.570736 0.029792 -0.152405
C38   C     C_R   0.425728 0.557911 0.957978 -0.145046
C39   C     C_R   0.353948 0.472759 0.930277 0.126868
C40   C     C_R   0.329942 0.401073 0.976716 -0.102103
C41   C     C_R   0.377250 0.413991 0.048781 -0.119786
C42   C     C_R   0.450152 0.499015 0.076322 0.129897
C43   C     C_R   0.154856 0.415674 0.829457 -0.296954
C44   C     C_R   0.105939 0.408650 0.757196 0.204758
C45   C     C_R   0.350502 0.490890 0.731550 0.292104
C46   C     C_R   0.401351 0.497276 0.803350 -0.229291
C47   C     C_R   0.304681 0.459351 0.853366 0.040691
C48   C     C_R   0.207043 0.443270 0.708730 -0.494418
H41   H     H_    0.512766 0.535342 0.820204 0.155101
H42   H     H_    0.443139 0.615497 0.924240 0.140993
H43   H     H_    0.526865 0.637595 0.049034 0.161006
H44   H     H_    0.300479 0.436136 0.190024 0.167958
H45   H     H_    0.277368 0.334280 0.957055 0.175415
H46   H     H_    0.359687 0.356596 0.082674 0.148253
H47   H     H_    0.073282 0.391729 0.866833 0.158246
H48   H     H_    0.727930 0.586121 0.135895 0.148044
H49   H     H_    0.166169 0.441987 0.653487 0.156596
H50   H     H_    0.643140 0.551070 0.351940 0.191449
S1    S     S_3+6 0.214312 0.108521 0.304413 0.060678
O25   O     O_2   0.260255 0.008749 0.292809 -0.174301
O26   O     O_2   0.039673 0.111604 0.319920 -0.239882
O27   O     O_3   0.240827 0.166181 0.231140 -0.448869
H51   H     H_    0.356008 0.157810 0.222449 0.359023
S2    S     S_3+6 0.413511 0.856053 0.143598 0.010807
O28   O     O_2   0.444338 0.939074 0.193949 -0.166429
O29   O     O_2   0.563965 0.835108 0.107392 -0.321568
O30   O     O_3   0.265698 0.880644 0.082577 -0.514300
H52   H     H_    0.305263 0.937287 0.060588 0.395812
Cl1   Cl    Cl    0.933628 0.143237 0.675610 -0.688748
S3    S     S_3+6 0.863590 0.181910 0.897613 -0.009331
O31   O     O_2   0.803984 0.109113 0.944412 -0.193404
O32   O     O_2   0.031526 0.213535 0.924833 -0.328653
O33   O     O_3   0.738974 0.273109 0.899077 -0.501623
H53   H     H_    0.807803 0.328930 0.892520 0.355262
S4    S     S_3+6 0.850258 0.858849 0.299604 -0.005298
O34   O     O_2   0.793086 0.798975 0.355112 -0.377875
O35   O     O_2   0.009415 0.904047 0.325525 -0.183857
O36   O     O_3   0.715223 0.941658 0.281211 -0.503884
H54   H     H_    0.751672 0.996989 0.311782 0.380485
Cl2   Cl    Cl    0.572017 0.668900 0.501443 -0.579407

loop_
_geom_bond_atom_site_label_1
_geom_bond_atom_site_label_2
_geom_bond_distance
_ccdc_geom_bond_type
P1    C18   1.886994 S    
C31   C36   1.395473 A    
C12   H25   1.111011 S    
C9    H18   1.106881 S    
C24   C25   1.423883 A    
C27   H38   1.082263 S    
C7    H15   1.110785 S    
C9    H19   1.110588 S    
C14   H29   1.109932 S    
O33   H53   0.989916 S    
P8    O23   1.544638 D    
O6    P6    1.766893 S    
C18   C19   1.408362 A    
H1    C10   1.106510 S    
P3    C36   1.836565 S    
C40   C41   1.404557 A    
C15   H31   1.113102 S    
C34   C35   1.412406 A    
Ba1   Ba2   4.568762 S    
C5    H8    1.110897 S    
O16   Ba2   2.926567 S    
C11   C12   1.520591 S    
O14   P8    1.750493 S    
P1    O1    1.515951 D    
S4    O35   1.497336 D    
C8    H16   1.105123 S    
O2    Ba2   2.798794 S    
C15   O24   1.405750 S    
Ba2   O21   2.812666 S    
C32   C33   1.406577 A    
C25   C29   1.408625 A    
C41   C42   1.408775 A    
C10   H20   1.101426 S    
C11   H23   1.109342 S    
C7    H13   1.110402 S    
C44   C48   1.394759 A    
C4    C5    1.521255 S    
C43   C47   1.413787 A    
C17   C25   1.413726 A    
O30   H52   0.990575 S    
C16   H34   1.109681 S    
P2    Ba1   3.384561 S    
P5    O17   1.759498 S    
P3    O11   1.755500 S    
C37   H43   1.082594 S    
S1    O27   1.682014 S    
C4    H6    1.105095 S    
C6    H12   1.107979 S    
C37   C42   1.407169 A    
C2    S4    1.776045 S    
C43   H47   1.081323 S    
C1    H2    1.097756 S    
C24   C30   1.411910 A    
C7    H14   1.106581 S    
C46   H41   1.082582 S    
C30   H40   1.079286 S    
Ba1   O16   2.779848 S    
C12   H26   1.111103 S    
C24   C26   1.439044 A    
C18   C23   1.437611 A    
Ba1   O20   2.927404 S    
C14   H30   1.111236 S    
C3    H27   1.109322 S    
O6    C10   1.411182 S    
O8    Ba1   2.771330 S    
S3    O33   1.683467 S    
P2    O20   1.550886 S    
C17   H39   1.080152 S    
C21   H36   1.082862 S    
C38   C39   1.407704 A    
P4    O13   1.566678 S    
C28   C29   1.398477 A    
C31   H50   1.082084 S    
Ba2   O20   2.779442 S    
P1    O5    1.752226 S    
O7    Ba1   2.812640 S    
C8    C9    1.522108 S    
S3    O32   1.502724 D    
S4    O36   1.679411 S    
C22   C23   1.425401 A    
C13   C14   1.528730 S    
C2    H3    1.108549 S    
P8    C28   1.839587 S    
C41   H46   1.082585 S    
P7    O21   1.568866 D    
C11   H22   1.110756 S    
P1    O2    1.566676 S    
C19   Cl2   1.752698 S    
O2    Ba1   2.921144 S    
C1    S2    1.786672 S    
C6    H11   1.104839 S    
P3    O9    1.540725 D    
C15   H32   1.110818 S    
C33   C34   1.413513 A    
P5    O18   1.542724 D    
C27   C28   1.392606 A    
O13   Ba2   2.921988 S    
P2    C32   1.845263 S    
O11   C2    1.406610 S    
C6    C7    1.521628 S    
C1    C10   1.536532 S    
C19   C20   1.405981 A    
S2    O29   1.501063 D    
O14   Ba2   2.773331 S    
C9    S1    1.782730 S    
C16   H35   1.106703 S    
P3    O8    1.762832 S    
O12   Ba2   2.838581 S    
O3    P6    1.750031 S    
S1    O25   1.497157 D    
O1    Ba1   2.838055 S    
O19   C13   1.406224 S    
C48   H49   1.082299 S    
C35   H48   1.082759 S    
P4    O12   1.516310 D    
C13   Cl1   1.778073 S    
C39   C40   1.406651 A    
O16   P7    1.765331 S    
C45   C48   1.389347 A    
P7    O22   1.757411 S    
C1    H21   1.105530 S    
C4    O15   1.396919 S    
C37   C38   1.400556 A    
O4    P6    1.545209 D    
P8    O24   1.749095 S    
C33   H44   1.082475 S    
C3    H5    1.110574 S    
O27   H51   0.991072 S    
S2    O30   1.681057 S    
C45   C46   1.401579 A    
C38   H42   1.082627 S    
C29   H37   1.083605 S    
C31   C32   1.393171 A    
C5    H9    1.105601 S    
Ba1   O13   2.798200 S    
S3    O31   1.502287 D    
O17   Ba2   2.771818 S    
C34   C42   1.497446 S    
C13   H28   1.108276 S    
P6    C20   1.860693 S    
P4    C26   1.871189 S    
C17   C23   1.412007 A    
S4    O34   1.490824 D    
C8    H17   1.110843 S    
C40   H45   1.081384 S    
P2    O7    1.519449 D    
C21   C22   1.411029 A    
C11   O22   1.396250 S    
P5    O19   1.753398 S    
P1    Ba1   3.397325 S    
O5    C6    1.399866 S    
C2    C3    1.525733 S    
C4    H7    1.109095 S    
P2    O10   1.743738 S    
S2    O28   1.498877 D    
C12   H24   1.110699 S    
P5    C44   1.841763 S    
P4    Ba2   3.397889 S    
C39   C47   1.496536 S    
C3    H4    1.110060 S    
C5    H10   1.110983 S    
H33   C16   1.110719 S    
C35   C36   1.402287 A    
C26   C27   1.396545 A    
S1    O26   1.501747 D    
C15   C16   1.520606 S    
C46   C47   1.411649 A    
O36   H54   0.989926 S    
C22   C30   1.415604 A    
C20   C21   1.399352 A    
C43   C44   1.406631 A    
P7    C45   1.833308 S    
O3    Ba1   2.774031 S    
P4    O15   1.749315 S    
O10   C8    1.396965 S    
C14   S3    1.788752 S    
