data_mof_unit_37798.cif
_audit_creation_date              2013-03-05T16:09:37-0500
_audit_creation_method            fapswitch 2.2
_symmetry_space_group_name_H-M    P1
_symmetry_Int_Tables_number       1
_space_group_crystal_system       triclinic
_cell_length_a                    14.618944
_cell_length_b                    7.233196
_cell_length_c                    13.455716
_cell_angle_alpha                 89.999949
_cell_angle_beta                  99.432526
_cell_angle_gamma                 89.999599
_cell_volume                      1403.59243244

loop_
_atom_site_label
_atom_site_type_symbol
_atom_site_description
_atom_site_fract_x
_atom_site_fract_y
_atom_site_fract_z
_atom_type_partial_charge
O1    O     O_R   0.398210 0.494340 0.401550 -0.559209
O2    O     O_R   0.601790 0.994340 0.598450 -0.559211
O3    O     O_R   0.586310 0.821730 0.403360 -0.566797
O4    O     O_R   0.413690 0.321730 0.596640 -0.566773
C1    C     C_R   0.614521 0.655396 0.380862 0.917224
C2    C     C_R   0.385476 0.155398 0.619135 0.917204
O5    O     O_R   0.397970 0.823900 0.389580 -0.591589
O6    O     O_R   0.602030 0.323900 0.610420 -0.591586
O7    O     O_R   0.412100 0.996500 0.584560 -0.600863
O8    O     O_R   0.587900 0.496500 0.415440 -0.600868
C3    C     C_R   0.365018 0.655239 0.363074 0.980748
C4    C     C_R   0.634982 0.155238 0.636926 0.980732
O9    O     O_3   0.504860 0.661550 0.563990 -0.281164
O10   O     O_3   0.495140 0.161550 0.436010 -0.281175
V1    V     V_3+5 0.499100 0.935510 0.488130 1.240932
V2    V     V_3+5 0.500900 0.435510 0.511870 1.240942
C5    C     C_1   0.716074 0.144652 0.716786 -0.149644
C6    C     C_1   0.283926 0.644653 0.283214 -0.149632
C7    C     C_1   0.783990 0.134130 0.783140 -0.143920
C8    C     C_1   0.216011 0.634129 0.216860 -0.143927
C9    C     C_3   0.265363 0.280763 0.850281 0.269801
C10   C     C_3   0.734669 0.780854 0.149760 0.269829
H1    H     H_    0.231460 0.419371 0.843644 0.093601
H2    H     H_    0.768599 0.919433 0.156453 0.093625
C11   C     C_3   0.340411 0.282814 0.780412 -0.416204
C12   C     C_3   0.659609 0.782879 0.219614 -0.416199
H3    H     H_    0.409477 0.243650 0.822983 0.195477
H4    H     H_    0.590544 0.743758 0.177024 0.195490
H5    H     H_    0.348714 0.426121 0.753647 0.194446
H6    H     H_    0.651316 0.926172 0.246405 0.194446
H7    H     H_    0.108391 0.327509 0.708469 0.205993
H8    H     H_    0.891652 0.827365 0.291579 0.205977
C13   C     C_3   0.142022 0.189954 0.706035 -0.542947
C14   C     C_3   0.857984 0.689844 0.293978 -0.542980
C15   C     C_3   0.234717 0.940605 0.804530 -0.287254
C16   C     C_3   0.765242 0.440636 0.195418 -0.287259
C17   C     C_3   0.188584 0.133195 0.813818 -0.112489
C18   C     C_3   0.811414 0.633199 0.186181 -0.112478
H9    H     H_    0.181108 0.839232 0.770918 0.187097
H10   H     H_    0.818828 0.339193 0.228997 0.187075
H11   H     H_    0.264646 0.884978 0.879735 0.207081
H12   H     H_    0.735296 0.385091 0.120200 0.207108
C19   C     C_3   0.314249 0.147565 0.690152 -0.129142
C20   C     C_3   0.685746 0.647563 0.309845 -0.129111
C21   C     C_3   0.214420 0.191557 0.632586 0.298430
C22   C     C_3   0.785579 0.691465 0.367420 0.298430
C23   C     C_3   0.310499 0.951240 0.736851 -0.393126
C24   C     C_3   0.689466 0.451263 0.263108 -0.393224
H13   H     H_    0.379015 0.915565 0.781971 0.203958
H14   H     H_    0.620945 0.415651 0.217986 0.203948
H15   H     H_    0.295441 0.845697 0.676344 0.217178
H16   H     H_    0.704515 0.345670 0.323589 0.217130
H17   H     H_    0.085483 0.090805 0.677655 0.174277
H18   H     H_    0.914493 0.590617 0.322336 0.174307
H19   H     H_    0.195268 0.077972 0.577012 0.082346
H20   H     H_    0.804709 0.577847 0.422978 0.082363
O11   O     O_R   0.912140 0.786650 0.084610 -0.587411
O12   O     O_R   0.087860 0.286650 0.915390 -0.587426
O13   O     O_R   0.102040 0.454810 0.110430 -0.560083
O14   O     O_R   0.897960 0.954810 0.889570 -0.560086
C25   C     C_R   0.134939 0.623566 0.136969 0.980708
C26   C     C_R   0.865061 0.123566 0.863030 0.980779
O15   O     O_R   0.913690 0.457060 0.096650 -0.599433
O16   O     O_R   0.086310 0.957060 0.903350 -0.599444
O17   O     O_R   0.898200 0.284560 0.901540 -0.588483
O18   O     O_R   0.101800 0.784560 0.098460 -0.588473
C27   C     C_R   0.883996 0.625137 0.116833 0.924047
C28   C     C_R   0.116004 0.125135 0.883167 0.924058
O19   O     O_3   0.995160 0.617270 0.936040 -0.284491
O20   O     O_3   0.004840 0.117270 0.063960 -0.284476
V3    V     V_3+5 0.000900 0.343280 0.011870 1.223147
V4    V     V_3+5 0.999100 0.843280 0.988130 1.223150
N1    N     N_R   0.307549 0.254653 0.956162 0.233227
O21   O     O_R   0.360973 0.113757 0.984107 -0.396605
O22   O     O_R   0.296548 0.380297 0.022390 -0.409897
N2    N     N_R   0.692493 0.754888 0.043867 0.233236
O23   O     O_R   0.639062 0.614035 0.015861 -0.396614
O24   O     O_R   0.703489 0.880646 0.977700 -0.409924
N3    N     N_R   0.210490 0.366040 0.576309 0.239455
O25   O     O_R   0.217783 0.524414 0.622754 -0.455016
O26   O     O_R   0.194195 0.363611 0.478309 -0.413426
N4    N     N_R   0.789536 0.865922 0.423722 0.239446
O27   O     O_R   0.782269 0.024317 0.377300 -0.454977
O28   O     O_R   0.805829 0.863441 0.521721 -0.413414

loop_
_geom_bond_atom_site_label_1
_geom_bond_atom_site_label_2
_geom_bond_distance
_ccdc_geom_bond_type
C3    C6    1.465744 S    
C13   C21   1.562016 S    
N1    O21   1.301430 A    
C16   H12   1.110049 S    
O1    C3    1.332513 A    
C10   N2    1.468913 S    
C15   C23   1.547020 S    
C11   C19   1.557595 S    
C2    O7    1.322218 A    
C12   C20   1.557575 S    
C23   H13   1.113156 S    
O5    C3    1.338378 A    
O16   C28   1.333722 A    
C15   C17   1.561607 S    
N2    O24   1.301102 A    
O12   V3    2.002541 S    
O14   V4    1.988214 S    
C7    C26   1.465769 S    
C10   C18   1.568225 S    
C17   C28   1.524627 S    
C9    N1    1.468940 S    
O14   C26   1.338850 A    
C8    C25   1.465768 S    
C22   N4    1.468079 S    
C25   O18   1.333037 A    
O18   V4    1.976833 S    
C4    C5    1.465745 S    
H7    C13   1.112661 S    
O20   V3    1.775906 S    
C14   C22   1.562035 S    
O5    V1    1.988291 S    
O2    C4    1.332515 A    
O6    V2    1.988283 S    
C11   H5    1.110512 S    
N1    O22   1.301118 A    
O11   C27   1.334384 A    
C20   C22   1.568580 S    
C13   H17   1.113501 S    
O15   C27   1.333727 A    
O13   C25   1.338852 A    
C16   H10   1.113640 S    
N2    O23   1.301404 A    
O4    C2    1.322936 A    
N3    O26   1.301138 A    
C23   H15   1.111472 S    
O17   V3    1.976838 S    
C13   C17   1.552962 S    
H8    C14   1.112640 S    
O4    V2    2.020015 S    
O19   V4    1.775907 S    
C15   H9    1.113658 S    
O6    C4    1.338376 A    
C21   N3    1.468090 S    
O1    V2    1.976827 S    
O2    V1    1.976832 S    
C19   C21   1.568605 S    
O12   C28   1.334390 A    
C1    C20   1.525344 S    
O15   V3    2.020100 S    
C12   H6    1.110511 S    
N4    O28   1.301126 A    
C2    C19   1.525355 S    
C9    H1    1.115472 S    
C10   H2    1.115463 S    
O3    V1    2.020010 S    
C9    C11   1.557506 S    
C26   O17   1.333037 A    
C14   C18   1.552939 S    
O3    C1    1.322931 A    
C14   H18   1.113478 S    
C11   H3    1.112763 S    
C12   H4    1.112758 S    
C16   C18   1.561599 S    
O7    V1    2.009159 S    
C1    O8    1.322206 A    
O8    V2    2.009162 S    
C24   H14   1.113135 S    
C5    C7    1.223987 T    
C16   C24   1.547037 S    
C6    C8    1.223990 T    
O16   V4    2.020105 S    
O11   V4    2.002546 S    
C15   H11   1.110061 S    
N3    O25   1.300905 A    
C24   H16   1.111466 S    
C9    C17   1.568246 S    
C18   C27   1.524638 S    
C21   H19   1.115338 S    
N4    O27   1.300897 A    
C10   C12   1.557504 S    
O9    V2    1.776255 S    
C22   H20   1.115318 S    
O10   V1    1.776254 S    
C19   C23   1.557466 S    
C20   C24   1.557467 S    
O13   V3    1.988224 S    
