data_mof_unit_6418.cif
_audit_creation_date              2012-12-10T17:36:48-0500
_audit_creation_method            fapswitch 2.2
_symmetry_space_group_name_H-M    P1
_symmetry_Int_Tables_number       1
_space_group_crystal_system       triclinic
_cell_length_a                    10.643583
_cell_length_b                    12.511766
_cell_length_c                    13.432326
_cell_angle_alpha                 117.594556
_cell_angle_beta                  74.207732
_cell_angle_gamma                 102.672251
_cell_volume                      1516.30796845

loop_
_atom_site_label
_atom_site_type_symbol
_atom_type_description
_atom_site_fract_x
_atom_site_fract_y
_atom_site_fract_z
_atom_type_partial_charge
C1    C     C_R   0.504769 0.854522 0.288468 0.832383
C2    C     C_3   0.005295 0.985895 0.594009 -0.181898
C3    C     C_3   0.931411 0.897442 0.496241 -0.137212
C4    C     C_3   0.876691 0.006431 0.505268 -0.019739
C5    C     C_R   0.365214 0.264036 0.030380 -0.173015
C6    C     C_R   0.467375 0.225983 0.835300 -0.062114
C7    C     C_R   0.547935 0.814391 0.086144 -0.269099
C8    C     C_R   0.553786 0.738805 0.971167 -0.146938
C9    C     C_R   0.517424 0.614775 0.934033 0.264769
C10   C     C_R   0.476980 0.562806 0.014122 -0.019359
C11   C     C_R   0.445928 0.643320 0.133179 -0.021992
C12   C     C_R   0.739853 0.003067 0.502713 0.781448
C13   C     C_R   0.458955 0.434878 0.981049 0.082191
C14   C     C_R   0.392525 0.389235 0.062531 0.103388
C15   C     C_R   0.346835 0.467998 0.174167 -0.270722
C16   C     C_R   0.366367 0.592208 0.208855 0.286508
C17   C     C_R   0.508089 0.349977 0.870424 -0.179612
C18   C     C_R   0.398678 0.182813 0.916486 -0.195557
C19   C     C_R   0.494674 0.769749 0.168782 -0.095296
C20   C     C_R   0.751838 0.373903 0.382704 0.121243
C21   C     C_R   0.310564 0.751348 0.634899 0.112200
C22   C     C_R   0.262843 0.649685 0.656179 -0.234659
C23   C     C_R   0.485171 0.144751 0.712902 0.784221
C24   C     C_R   0.334226 0.549965 0.603935 -0.100299
C25   C     C_R   0.457753 0.550640 0.531116 -0.009157
C26   C     C_R   0.502349 0.655184 0.507007 0.256921
C27   C     C_R   0.537335 0.450717 0.481296 -0.079717
C28   C     C_R   0.667269 0.463779 0.420723 0.041507
C29   C     C_R   0.706871 0.558737 0.388577 0.042506
C30   C     C_R   0.623689 0.647763 0.423733 0.112934
C31   C     C_R   0.495298 0.338127 0.490389 0.034304
C32   C     C_R   0.700159 0.262521 0.381345 0.348587
C33   C     C_R   0.259387 0.000248 0.501544 0.808807
C34   C     C_3   0.992849 0.024620 0.415554 -0.238722
C35   C     C_3   0.048155 0.917829 0.408405 0.205016
C36   C     C_3   0.122077 0.002424 0.503739 0.015765
C37   C     C_3   0.067011 0.111985 0.513448 -0.161615
C38   C     C_3   0.947837 0.094739 0.603466 -0.162686
Cu1   Cu    Cu3+1 0.529830 0.098270 0.475420 0.941325
Cu2   Cu    Cu3+1 0.470170 0.901730 0.524580 0.979908
H1    H     H_    0.578953 0.377970 0.810361 0.192703
H2    H     H_    0.583537 0.909385 0.110314 0.172674
H3    H     H_    0.585958 0.777794 0.910061 0.172715
H4    H     H_    0.400121 0.321969 0.538496 0.145458
H5    H     H_    0.253175 0.827402 0.675029 0.117772
H6    H     H_    0.987715 0.037566 0.340523 0.134286
H7    H     H_    0.291864 0.474492 0.624723 0.151351
H8    H     H_    0.169392 0.647956 0.713515 0.145295
H9    H     H_    0.124359 0.200109 0.521031 0.144573
H10   H     H_    0.903112 0.168236 0.683972 0.135717
H11   H     H_    0.012676 0.970114 0.666933 0.138778
H12   H     H_    0.875187 0.810938 0.493797 0.144952
H13   H     H_    0.368225 0.086948 0.891813 0.155274
H14   H     H_    0.287768 0.431838 0.233813 0.176962
H15   H     H_    0.312221 0.229187 0.092420 0.136797
N1    N     N_R   0.575030 0.246270 0.438190 -0.224012
N2    N     N_R   0.425760 0.754330 0.561190 -0.177590
O1    O     O_R   0.537510 0.972500 0.318130 -0.611858
O2    O     O_R   0.487140 0.806530 0.359650 -0.518710
O3    O     O_R   0.708330 0.082950 0.479220 -0.599261
O4    O     O_R   0.657960 0.916980 0.520740 -0.564540
O5    O     O_R   0.512860 0.193470 0.640350 -0.554030
O6    O     O_R   0.462490 0.027500 0.681870 -0.599207
O7    O     O_R   0.342040 0.083020 0.479260 -0.602301
O8    O     O_R   0.291670 0.917050 0.520780 -0.546404
N3    N     N_3   0.102286 0.823253 0.299294 -0.543791
H16   H     H_    0.029419 0.786253 0.250007 0.204648
H17   H     H_    0.179092 0.864862 0.257252 0.218975
Br1   Br    Br    0.494764 0.534081 0.778089 -0.616906
Br2   Br    Br    0.241117 0.670390 0.344883 -0.521372
N4    N     N_3   0.784157 0.167353 0.318297 -0.596259
H18   H     H_    0.733119 0.081656 0.294417 0.259537
H19   H     H_    0.852915 0.179711 0.366314 0.239184
N5    N     N_3   0.825371 0.554372 0.303793 -0.618075
H20   H     H_    0.804450 0.541642 0.227189 0.222804
H21   H     H_    0.890462 0.632189 0.334952 0.244605
N6    N     N_3   0.892498 0.393589 0.350201 -0.582287
H22   H     H_    0.919750 0.378021 0.264146 0.266873
H23   H     H_    0.928484 0.480208 0.404827 0.263615
N7    N     N_3   0.656461 0.713262 0.356032 -0.501323
H24   H     H_    0.643406 0.653306 0.272684 0.201460
H25   H     H_    0.753847 0.752316 0.351399 0.194396

loop_
_geom_bond_atom_site_label_1
_geom_bond_atom_site_label_2
_ccdc_geom_bond_type
C22   H8    S    
C34   C37   S    
N3    H17   S    
C35   C36   S    
C8    H3    S    
C33   O8    A    
C7    C8    A    
N6    H22   S    
Cu1   O7    S    
C11   C19   A    
C29   C30   A    
Cu2   O6    S    
N5    H21   S    
C20   N6    S    
C36   C37   S    
C9    Br1   S    
C1    O2    A    
C6    C23   S    
C15   C16   A    
C33   C36   S    
C34   C35   S    
C7    H2    S    
C6    C17   A    
C18   H13   S    
C23   O5    A    
C8    C9    A    
C34   H6    S    
C31   N1    A    
C4    C12   S    
C9    C10   A    
C30   N7    S    
C23   O6    A    
N3    H16   S    
Cu2   O2    S    
C13   C14   A    
C32   N4    S    
C21   H5    S    
N6    H23   S    
C6    C18   A    
C4    C34   S    
C1    C19   S    
C31   H4    S    
C27   C31   A    
C15   H14   S    
C16   Br2   S    
C24   C25   A    
N7    H25   S    
C2    H11   S    
Cu1   Cu2   S    
N4    H19   S    
C29   N5    S    
C20   C28   A    
C35   N3    S    
C25   C26   A    
Cu1   O1    S    
Cu2   O4    S    
C21   N2    A    
C37   C38   S    
C37   H9    S    
C11   C16   A    
C2    C38   S    
Cu1   N1    S    
C3    C35   S    
C5    C14   A    
C4    C38   S    
C26   C30   A    
C7    C19   A    
Cu2   O8    S    
C22   C24   A    
C3    C4    S    
C20   C32   A    
C2    C36   S    
Cu1   O5    S    
C28   C29   A    
Cu2   N2    S    
C24   H7    S    
C5    H15   S    
N7    H24   S    
C10   C13   A    
C3    H12   S    
C38   H10   S    
C25   C27   A    
C13   C17   A    
C2    C3    S    
N4    H18   S    
C1    O1    A    
C12   O4    A    
C5    C18   A    
C33   O7    A    
Cu1   O3    S    
C26   N2    A    
C17   H1    S    
C10   C11   A    
C12   O3    A    
N5    H20   S    
C27   C28   A    
C14   C15   A    
C21   C22   A    
C32   N1    A    
