data_mof_unit_10965.cif
_audit_creation_date              2012-10-26T18:56:24-0400
_audit_creation_method            fapswitch 2.2
_symmetry_space_group_name_H-M    P1
_symmetry_Int_Tables_number       1
_space_group_crystal_system       triclinic
_cell_length_a                    10.615536
_cell_length_b                    10.613801
_cell_length_c                    9.424392
_cell_angle_alpha                 89.953013
_cell_angle_beta                  89.735743
_cell_angle_gamma                 90.088857
_cell_volume                      1061.8444956

loop_
_atom_site_label
_atom_site_type_symbol
_atom_type_description
_atom_site_fract_x
_atom_site_fract_y
_atom_site_fract_z
_atom_type_partial_charge
C1    C     C_R   0.499809 0.259424 0.499856 0.558731
C2    C     C_3   0.405737 0.436070 0.051078 -0.005698
C3    C     C_R   0.259563 0.500652 0.500403 0.577609
C4    C     C_R   0.740437 0.499348 0.499597 0.577608
C5    C     C_3   0.039826 0.518434 0.635178 -0.148131
C6    C     C_3   0.960174 0.481567 0.364822 -0.148132
C7    C     C_3   0.957900 0.405734 0.585361 -0.157462
C8    C     C_3   0.042100 0.594267 0.414639 -0.157463
C9    C     C_3   0.877188 0.498410 0.498481 0.021025
C10   C     C_3   0.122812 0.501591 0.501519 0.021025
C11   C     C_3   0.958142 0.608911 0.547217 0.267821
C12   C     C_R   0.500191 0.740576 0.500144 0.558730
C13   C     C_3   0.041858 0.391090 0.452783 0.267819
C14   C     C_3   0.600496 0.042352 0.571927 -0.128962
C15   C     C_3   0.399503 0.957648 0.428073 -0.128963
C16   C     C_3   0.606375 0.958431 0.437977 -0.122441
C17   C     C_3   0.393625 0.041569 0.562023 -0.122441
C18   C     C_3   0.500270 0.877553 0.500726 0.051251
C19   C     C_3   0.499729 0.122447 0.499274 0.051251
C20   C     C_3   0.998467 0.806205 0.637759 -0.008139
C21   C     C_3   0.939440 0.932881 0.672932 -0.380687
C22   C     C_3   0.001537 0.193797 0.362232 -0.008136
C23   C     C_3   0.494417 0.959182 0.634855 -0.115674
C24   C     C_3   0.060563 0.067118 0.327074 -0.380688
C25   C     C_3   0.505583 0.040818 0.365145 -0.115674
C26   C     C_3   0.491843 0.613514 0.050274 -0.012286
C27   C     C_3   0.508157 0.386486 0.949725 -0.012286
C28   C     C_3   0.397673 0.549534 0.949858 -0.008849
C29   C     C_3   0.602327 0.450466 0.050142 -0.008849
C30   C     C_3   0.594263 0.563930 0.948922 -0.005698
Cu1   Cu    Cu3+1 0.500030 0.499990 0.643150 0.933312
Cu2   Cu    Cu3+1 0.499970 0.500010 0.356850 0.933312
H1    H     H_    0.920498 0.328362 0.652882 0.099052
H2    H     H_    0.510045 0.076909 0.254620 0.112246
H3    H     H_    0.311598 0.591512 0.903046 0.092878
H4    H     H_    0.688402 0.408487 0.096954 0.092878
H5    H     H_    0.484858 0.709387 0.096568 0.102539
H6    H     H_    0.515142 0.290613 0.903432 0.102539
H7    H     H_    0.673527 0.617855 0.901153 0.118442
H8    H     H_    0.326473 0.382145 0.098847 0.118442
H9    H     H_    0.069507 0.821417 0.552095 0.114484
H10   H     H_    0.046338 0.770100 0.734371 0.123443
H11   H     H_    0.869925 0.922017 0.760549 0.152667
H12   H     H_    0.079502 0.671639 0.347117 0.099050
H13   H     H_    0.013670 0.000465 0.705993 0.093294
H14   H     H_    0.890935 0.970880 0.578036 0.147838
H15   H     H_    0.953678 0.229901 0.265612 0.123444
H16   H     H_    0.930487 0.178591 0.447886 0.114484
H17   H     H_    0.109062 0.029123 0.421976 0.147839
H18   H     H_    0.986335 0.999533 0.294012 0.093293
H19   H     H_    0.130083 0.077975 0.239460 0.152664
H20   H     H_    0.074982 0.534918 0.744374 0.105270
H21   H     H_    0.925018 0.465082 0.255627 0.105269
H22   H     H_    0.693442 0.921253 0.387572 0.119467
H23   H     H_    0.306558 0.078746 0.612428 0.119467
H24   H     H_    0.682210 0.080825 0.630931 0.094660
H25   H     H_    0.317790 0.919175 0.369069 0.094660
H26   H     H_    0.489954 0.923091 0.745380 0.112246
N1    N     N_3   0.500090 0.499970 0.858290 -0.229412
N2    N     N_3   0.499910 0.500030 0.141710 -0.229412
O1    O     O_R   0.500060 0.316850 0.620870 -0.512022
O2    O     O_3   0.096982 0.277756 0.405429 -0.549276
O3    O     O_R   0.499940 0.683150 0.379130 -0.512023
O4    O     O_R   0.500000 0.316860 0.379090 -0.502923
O5    O     O_R   0.500000 0.683140 0.620910 -0.502923
O6    O     O_R   0.316880 0.499960 0.620870 -0.515454
O7    O     O_R   0.683120 0.500040 0.379130 -0.515455
O8    O     O_R   0.316830 0.499970 0.379090 -0.488605
O9    O     O_R   0.683170 0.500030 0.620910 -0.488606
O10   O     O_3   0.903019 0.722246 0.594571 -0.549276

loop_
_geom_bond_atom_site_label_1
_geom_bond_atom_site_label_2
_ccdc_geom_bond_type
C15   C18   S    
C14   H24   S    
C7    C9    S    
C27   C29   S    
C15   H25   S    
Cu1   O1    S    
C22   H16   S    
C3    O8    A    
C6    C9    S    
C20   H9    S    
C11   O10   S    
C29   H4    S    
C17   C23   S    
C5    C11   S    
C2    N2    S    
C15   C25   S    
C27   H6    S    
C16   C25   S    
Cu1   O5    S    
Cu1   N1    S    
C21   H11   S    
C13   O2    S    
C28   H3    S    
C5    H20   S    
C2    C27   S    
C17   H23   S    
C25   H2    S    
Cu2   O8    S    
C24   H19   S    
C22   H15   S    
C7    H1    S    
C20   O10   S    
C4    O9    A    
C21   H13   S    
C24   H18   S    
C1    C19   S    
C18   C23   S    
Cu2   O4    S    
C5    C7    S    
C12   O3    A    
C6    C8    S    
C14   C23   S    
C29   C30   S    
C22   O2    S    
Cu1   Cu2   S    
C29   N2    S    
C7    C13   S    
C30   N1    S    
C9    C11   S    
Cu2   O7    S    
C16   C18   S    
C26   C30   S    
C14   C16   S    
C3    O6    A    
Cu2   N2    S    
C6    H21   S    
C1    O4    A    
C21   H14   S    
C28   N1    S    
C24   H17   S    
C15   C17   S    
Cu1   O6    S    
C14   C19   S    
C8    H12   S    
Cu2   O3    S    
C10   C13   S    
C1    O1    A    
C4    O7    A    
C20   H10   S    
C26   H5    S    
C12   O5    A    
C26   C28   S    
C5    C10   S    
C3    C10   S    
C27   N1    S    
C6    C13   S    
C8    C11   S    
C17   C19   S    
C30   H7    S    
C23   H26   S    
C22   C24   S    
C19   C25   S    
C16   H22   S    
C2    H8    S    
Cu1   O9    S    
C20   C21   S    
C8    C10   S    
C12   C18   S    
C2    C28   S    
C4    C9    S    
C26   N2    S    
