data_mof_unit_9031.cif
_audit_creation_date              2012-12-11T15:46:53-0500
_audit_creation_method            fapswitch 2.2
_symmetry_space_group_name_H-M    P1
_symmetry_Int_Tables_number       1
_space_group_crystal_system       triclinic
_cell_length_a                    11.523207
_cell_length_b                    11.561911
_cell_length_c                    19.524049
_cell_angle_alpha                 90.343397
_cell_angle_beta                  89.899826
_cell_angle_gamma                 59.916592
_cell_volume                      2250.73066319

loop_
_atom_site_label
_atom_site_type_symbol
_atom_type_description
_atom_site_fract_x
_atom_site_fract_y
_atom_site_fract_z
_atom_type_partial_charge
C1    C     C_R   0.640589 0.117269 0.599212 0.544220
C2    C     C_1   0.641448 0.703485 0.667910 0.005981
C3    C     C_1   0.127059 0.198966 0.859384 0.006014
C4    C     C_1   0.171311 0.170235 0.727706 -0.030958
C5    C     C_1   0.150342 0.182356 0.798979 -0.029931
C6    C     C_1   0.194923 0.160824 0.667305 0.004061
C7    C     C_1   0.678331 0.191468 0.860836 0.003671
C8    C     C_1   0.658588 0.167225 0.729007 -0.030710
C9    C     C_1   0.665502 0.181050 0.800357 -0.030021
C10   C     C_1   0.653155 0.149565 0.668584 0.003278
C11   C     C_R   0.699393 0.582767 0.204888 0.023692
C12   C     C_R   0.612698 0.745606 0.598542 0.539725
C13   C     C_R   0.591903 0.592577 0.241704 -0.059080
C14   C     C_R   0.579873 0.612312 0.310805 0.024098
C15   C     C_R   0.782982 0.625785 0.310342 -0.168843
C16   C     C_R   0.800959 0.590337 0.240814 -0.150717
C17   C     C_3   0.444309 0.657688 0.228655 -0.013367
C18   C     C_3   0.430669 0.658721 0.306392 0.158961
C19   C     C_R   0.664825 0.649597 0.344174 0.034542
C20   C     C_R   0.151470 0.187565 0.189405 0.018536
C21   C     C_R   0.225006 0.240165 0.218878 0.046001
C22   C     C_R   0.247990 0.228128 0.288135 0.064181
C23   C     C_R   0.240744 0.145311 0.598087 0.542213
C24   C     C_R   0.147565 0.090227 0.299230 -0.098567
C25   C     C_R   0.122143 0.103592 0.229147 -0.119473
C26   C     C_3   0.206648 0.377604 0.217511 -0.278325
C27   C     C_3   0.224125 0.367303 0.294421 -0.278153
C28   C     C_R   0.204461 0.159083 0.330020 0.031149
C29   C     C_R   0.717400 0.212511 0.206207 0.018852
C30   C     C_R   0.817502 0.100300 0.240147 0.004829
C31   C     C_R   0.799759 0.074179 0.306834 0.012230
C32   C     C_R   0.591045 0.282210 0.312828 -0.160929
C33   C     C_R   0.605631 0.305316 0.243930 -0.165978
C34   C     C_R   0.647101 0.113458 0.403659 0.550593
C35   C     C_3   0.881003 0.955394 0.220323 -0.255130
C36   C     C_3   0.861715 0.927450 0.293604 -0.265476
C37   C     C_R   0.682517 0.160320 0.342709 0.023606
C38   C     C_R   0.081977 0.231218 0.928690 0.551012
C39   C     C_R   0.683798 0.604807 0.929599 0.559923
C40   C     C_R   0.708219 0.206748 0.930194 0.557409
C41   C     C_R   0.084014 0.234954 0.124694 0.521747
C42   C     C_R   0.709147 0.551731 0.132863 0.543222
C43   C     C_R   0.738136 0.233183 0.134615 0.531551
C44   C     C_R   0.618805 0.733759 0.404449 0.571026
C45   C     C_R   0.245411 0.140499 0.400953 0.545957
C46   C     C_1   0.670454 0.646798 0.860201 0.004569
C47   C     C_1   0.654996 0.683439 0.728395 -0.030920
C48   C     C_1   0.663612 0.666787 0.799699 -0.030781
Cr1   Cr    Cr6+3 0.404720 0.198220 0.499960 1.019111
Cr2   Cr    Cr6+3 0.698290 0.897110 0.500380 1.018330
Cr3   Cr    Cr6+3 0.396970 0.904720 0.499610 1.032217
Cr4   Cr    Cr6+3 0.926290 0.152010 0.028150 1.032621
Cr5   Cr    Cr6+3 0.921440 0.451830 0.027490 1.028542
Cr6   Cr    Cr6+3 0.626370 0.446880 0.028730 1.046464
H1    H     H_    0.854480 0.646636 0.335287 0.117803
H2    H     H_    0.290557 0.379593 0.190381 0.147204
H3    H     H_    0.313516 0.370275 0.311723 0.141918
H4    H     H_    0.130294 0.434931 0.323055 0.129521
H5    H     H_    0.503312 0.353396 0.341000 0.107646
H6    H     H_    0.525996 0.389610 0.218926 0.113779
H7    H     H_    0.988327 0.910228 0.205692 0.150651
H8    H     H_    0.819330 0.935244 0.183649 0.172699
H9    H     H_    0.789253 0.891057 0.298854 0.167653
H10   H     H_    0.957312 0.868584 0.321605 0.123395
H11   H     H_    0.887372 0.580744 0.214219 0.128585
H12   H     H_    0.410413 0.595332 0.202002 0.072133
H13   H     H_    0.413139 0.576177 0.322527 0.044081
H14   H     H_    0.115071 0.033767 0.329297 0.128943
H15   H     H_    0.069596 0.057047 0.207373 0.145960
H16   H     H_    0.105749 0.456447 0.201815 0.149399
O1    O     O_R   0.267750 0.231960 0.575440 -0.506705
O2    O     O_R   0.685950 0.784660 0.430010 -0.515932
O3    O     O_R   0.502510 0.767000 0.423980 -0.467014
O4    O     O_R   0.288320 0.026340 0.429250 -0.479117
O5    O     O_3   0.499990 0.000020 0.499980 -0.249490
O6    O     O_R   0.821590 0.119350 0.952850 -0.495657
O7    O     O_R   0.037230 0.162540 0.957390 -0.488886
O8    O     O_R   0.056530 0.344750 0.951370 -0.500406
O9    O     O_R   0.798000 0.560370 0.957490 -0.487106
O10   O     O_R   0.596230 0.579400 0.952760 -0.493150
O11   O     O_R   0.639160 0.321170 0.958690 -0.488346
O12   O     O_R   0.527290 0.186640 0.570530 -0.495979
O13   O     O_R   0.821370 0.124220 0.104400 -0.507561
O14   O     O_R   0.037020 0.167050 0.097880 -0.525606
O15   O     O_R   0.056310 0.349620 0.102920 -0.525861
O16   O     O_R   0.797790 0.564880 0.097980 -0.498439
O17   O     O_R   0.596000 0.584270 0.104310 -0.494306
O18   O     O_R   0.638950 0.325690 0.099180 -0.512596
O19   O     O_3   0.824700 0.350240 0.028120 -0.296156
O20   O     O_R   0.728110 0.003450 0.576380 -0.507764
O21   O     O_R   0.682980 0.789190 0.570500 -0.496958
O22   O     O_R   0.499300 0.771880 0.575540 -0.515829
O23   O     O_R   0.285350 0.030870 0.569740 -0.501255
O24   O     O_R   0.270960 0.227070 0.423890 -0.526132
O25   O     O_R   0.530270 0.182120 0.430040 -0.505415
O26   O     O_R   0.731320 0.998570 0.424830 -0.521686
C49   C     C_2   0.388790 0.793193 0.195597 0.652823
O27   O     O_2   0.422293 0.872681 0.215645 -0.481900
O28   O     O_R   0.301933 0.824849 0.140078 -0.706774
H17   H     H_    0.276254 0.914812 0.119568 0.337170
O29   O     O_3   0.340743 0.786505 0.334129 -0.502972
C50   C     C_3   0.252266 0.774701 0.380208 -0.084084
H18   H     H_    0.308045 0.700837 0.421130 0.113836
H19   H     H_    0.186436 0.745910 0.352329 0.073766
H20   H     H_    0.187863 0.871431 0.406429 0.133342

loop_
_geom_bond_atom_site_label_1
_geom_bond_atom_site_label_2
_ccdc_geom_bond_type
C21   C26   S    
C1    O20   A    
C34   C37   S    
C43   O13   A    
C14   C18   S    
C12   O21   A    
C35   C36   S    
Cr3   O4    S    
C2    C12   S    
C20   C41   S    
C15   C19   A    
C26   C27   S    
O29   C50   S    
C30   C35   S    
C50   H20   S    
C43   O18   A    
Cr5   O9    S    
Cr3   O5    S    
Cr6   O17   S    
C20   C25   A    
C15   C16   A    
C29   C33   A    
C11   C42   S    
Cr4   O14   S    
Cr2   O2    S    
Cr2   O20   S    
C47   C48   S    
C3    C38   S    
C8    C9    S    
C7    C40   S    
Cr1   O5    S    
Cr5   O16   S    
C42   O16   A    
Cr1   O24   S    
C36   H9    S    
C24   C28   A    
C22   C28   A    
C21   C22   A    
C29   C43   S    
Cr4   O19   S    
C44   O3    A    
C45   O24   A    
C40   O11   A    
C49   O28   S    
C49   O27   D    
Cr6   O10   S    
C46   C48   T    
C28   C45   S    
C23   O1    A    
C24   C25   A    
Cr6   O19   S    
C4    C6    T    
C27   H3    S    
C38   O8    A    
Cr4   O6    S    
C18   H13   S    
C41   O14   A    
Cr1   O25   S    
C23   O23   A    
C31   C37   A    
C45   O4    A    
C18   O29   S    
C15   H1    S    
Cr1   O12   S    
Cr4   O13   S    
C29   C30   A    
Cr3   O22   S    
C11   C16   A    
O28   H17   S    
C17   C18   S    
C17   H12   S    
C35   H7    S    
C32   C37   A    
C34   O25   A    
C50   H19   S    
Cr3   O23   S    
C39   C46   S    
C33   H6    S    
C22   C27   S    
Cr5   O19   S    
C26   H16   S    
C25   H15   S    
Cr4   O7    S    
C19   C44   S    
C7    C9    T    
C14   C19   A    
C12   O22   A    
C1    C10   S    
Cr3   O3    S    
C34   O26   A    
C4    C5    S    
C3    C5    T    
C27   H4    S    
C26   H2    S    
C42   O17   A    
C38   O7    A    
C2    C47   T    
C41   O15   A    
C13   C17   S    
C32   C33   A    
Cr5   O8    S    
C1    O12   A    
C36   H10   S    
Cr2   O5    S    
C39   O10   A    
Cr6   O18   S    
C11   C13   A    
Cr2   O26   S    
C30   C31   A    
C6    C23   S    
C44   O2    A    
C35   H8    S    
C50   H18   S    
C24   H14   S    
C40   O6    A    
Cr2   O21   S    
C20   C21   A    
C8    C10   T    
Cr1   O1    S    
C31   C36   S    
Cr5   O15   S    
C16   H11   S    
C32   H5    S    
C13   C14   A    
C17   C49   S    
Cr6   O11   S    
C39   O9    A    
