data_mof_unit_48356.cif
_audit_creation_date              2012-12-10T18:07:29-0500
_audit_creation_method            fapswitch 2.2
_symmetry_space_group_name_H-M    P1
_symmetry_Int_Tables_number       1
_space_group_crystal_system       triclinic
_cell_length_a                    11.543214
_cell_length_b                    12.557428
_cell_length_c                    13.540766
_cell_angle_alpha                 83.932923
_cell_angle_beta                  91.198837
_cell_angle_gamma                 102.442055
_cell_volume                      1905.93967383

loop_
_atom_site_label
_atom_site_type_symbol
_atom_type_description
_atom_site_fract_x
_atom_site_fract_y
_atom_site_fract_z
_atom_type_partial_charge
C1    C     C_R   0.489713 0.439799 0.692270 0.894232
C2    C     C_R   0.541413 0.687304 0.903971 -0.282167
C3    C     C_R   0.524941 0.607695 0.840255 -0.199726
C4    C     C_R   0.718179 0.501021 0.500243 0.904984
C5    C     C_R   0.485701 0.518386 0.140896 -0.281537
C6    C     C_R   0.539800 0.707932 0.172703 -0.229962
C7    C     C_R   0.488952 0.406408 0.802846 -0.187783
C8    C     C_R   0.337768 0.081608 0.350353 -0.307709
C9    C     C_R   0.642791 0.802474 0.625410 -0.126152
C10   C     C_R   0.670725 0.907272 0.655870 -0.046545
C11   C     C_R   0.614579 0.987428 0.609704 -0.167207
C12   C     C_R   0.512452 0.596978 0.206498 -0.080271
C13   C     C_R   0.531263 0.962413 0.533316 -0.018927
C14   C     C_R   0.504831 0.853449 0.507062 0.244358
C15   C     C_R   0.474390 0.040924 0.480677 -0.016839
C16   C     C_R   0.509767 0.560181 0.310703 0.873501
C17   C     C_R   0.394370 0.007776 0.403475 0.153822
C18   C     C_R   0.370047 0.900675 0.379757 -0.273357
C19   C     C_R   0.424513 0.824836 0.430896 -0.195188
C20   C     C_R   0.493517 0.151442 0.500146 -0.009107
C21   C     C_R   0.360297 0.189105 0.371746 0.291853
C22   C     C_R   0.281828 0.498978 0.499778 0.889617
C23   C     C_R   0.480252 0.292705 0.844620 -0.017147
C24   C     C_1   0.839238 0.502490 0.500396 -0.178507
C25   C     C_1   0.941039 0.501445 0.500143 0.010474
C26   C     C_1   0.059022 0.498708 0.499617 0.011999
C27   C     C_1   0.160805 0.497599 0.499456 -0.171282
C28   C     C_R   0.543296 0.741260 0.071669 0.140699
C29   C     C_2   0.758254 0.931153 0.735919 0.380945
C30   C     C_2   0.477708 0.195927 0.786546 0.393424
C31   C     C_R   0.484041 0.269947 0.949456 0.105146
C32   C     C_R   0.496060 0.353800 0.009402 -0.218779
C33   C     C_R   0.498895 0.463050 0.973617 0.066054
C34   C     C_R   0.502734 0.492028 0.870194 0.080871
C35   C     C_R   0.505627 0.545992 0.039795 0.070099
C36   C     C_R   0.530601 0.659513 0.004607 0.165382
H1    H     H_    0.554165 0.769096 0.224875 0.166501
H2    H     H_    0.512083 0.330501 0.086309 0.150089
H3    H     H_    0.533979 0.648945 0.768834 0.209307
H4    H     H_    0.799211 0.867413 0.771580 0.064444
H5    H     H_    0.552283 0.888570 0.966767 0.194619
H6    H     H_    0.581635 0.910516 0.096511 0.197352
H7    H     H_    0.506130 0.124337 0.818172 0.079395
H8    H     H_    0.472242 0.092277 0.964813 0.173336
H9    H     H_    0.463298 0.150681 0.074733 0.192452
H10   H     H_    0.306853 0.342494 0.329563 0.245570
H11   H     H_    0.240459 0.231881 0.260426 0.169572
H12   H     H_    0.308272 0.875133 0.320990 0.157236
H13   H     H_    0.274444 0.055393 0.292805 0.145959
H14   H     H_    0.547461 0.182578 0.561344 0.182435
H15   H     H_    0.687176 0.739834 0.658666 0.135215
H16   H     H_    0.637740 0.068295 0.633443 0.181621
H17   H     H_    0.402907 0.744376 0.408113 0.209611
H18   H     H_    0.562915 0.771239 0.871056 0.147838
H19   H     H_    0.446325 0.435560 0.170646 0.167652
N1    N     N_R   0.440320 0.222190 0.444690 -0.111524
N2    N     N_R   0.559060 0.776980 0.554780 -0.124106
N3    N     N_3   0.554221 0.856926 0.041045 -0.482799
N4    N     N_3   0.488720 0.163928 0.000377 -0.480240
N5    N     N_3   0.294552 0.261101 0.317888 -0.479574
O1    O     O_R   0.471500 0.366730 0.627160 -0.528099
O2    O     O_2   0.447639 0.192474 0.700141 -0.576826
O3    O     O_R   0.509620 0.544830 0.662520 -0.651428
O4    O     O_R   0.646490 0.410960 0.482310 -0.613669
O5    O     O_R   0.684610 0.589050 0.517670 -0.612720
O6    O     O_R   0.490380 0.455170 0.337480 -0.641991
O7    O     O_R   0.528500 0.633270 0.372840 -0.645828
O8    O     O_R   0.315390 0.410950 0.482330 -0.614619
O9    O     O_R   0.353510 0.589040 0.517690 -0.629279
O10   O     O_2   0.785241 0.022757 0.763592 -0.563212
Zn1   Zn    Zn3+2 0.474550 0.381080 0.476390 0.984540
Zn2   Zn    Zn3+2 0.525450 0.618920 0.523610 0.931906

loop_
_geom_bond_atom_site_label_1
_geom_bond_atom_site_label_2
_ccdc_geom_bond_type
O9    Zn2   S    
C18   H12   S    
C8    C21   A    
C32   H2    S    
C21   N1    A    
O5    Zn2   S    
C9    C10   A    
C4    O4    A    
C22   O9    A    
O6    Zn1   S    
C9    H15   S    
C20   N1    A    
N1    Zn1   S    
H11   N5    S    
C32   C33   A    
C19   H17   S    
C30   O2    D    
C2    C3    A    
C26   C27   T    
C6    H1    S    
C3    H3    S    
C16   O7    A    
C1    C7    S    
C13   C14   A    
C24   C25   T    
C28   N3    S    
C11   C13   A    
C10   C29   S    
C22   O8    A    
O1    Zn1   S    
C4    O5    A    
C5    C12   A    
O8    Zn1   S    
C7    C23   A    
C5    C35   A    
C29   H4    S    
C33   C35   A    
H5    N3    S    
C33   C34   A    
C9    N2    A    
C22   C27   S    
C13   C15   A    
N2    Zn2   S    
C6    C12   A    
C15   C20   A    
C4    C24   S    
C7    C34   A    
C6    C28   A    
C30   H7    S    
C8    H13   S    
C16   O6    A    
C10   C11   A    
H8    N4    S    
C31   N4    S    
H6    N3    S    
C23   C30   S    
C12   C16   S    
O7    Zn2   S    
O3    Zn2   S    
C28   C36   A    
C21   N5    S    
C17   C18   A    
C18   C19   A    
C2    H18   S    
O4    Zn1   S    
C2    C36   A    
C15   C17   A    
C14   N2    A    
C1    O3    A    
C20   H14   S    
C11   H16   S    
C3    C34   A    
H10   N5    S    
C25   C26   S    
C29   O10   D    
C14   C19   A    
C5    H19   S    
C31   C32   A    
H9    N4    S    
C8    C17   A    
C23   C31   A    
C35   C36   A    
C1    O1    A    
