data_mof_unit_48570.cif
_audit_creation_date              2012-12-11T18:37:14-0500
_audit_creation_method            fapswitch 2.2
_symmetry_space_group_name_H-M    P1
_symmetry_Int_Tables_number       1
_space_group_crystal_system       triclinic
_cell_length_a                    8.207465
_cell_length_b                    14.312941
_cell_length_c                    26.986846
_cell_angle_alpha                 93.324673
_cell_angle_beta                  92.862083
_cell_angle_gamma                 88.289036
_cell_volume                      3159.78535813

loop_
_atom_site_label
_atom_site_type_symbol
_atom_type_description
_atom_site_fract_x
_atom_site_fract_y
_atom_site_fract_z
_atom_type_partial_charge
Ba1   Ba    Ba6+2 0.849670 0.455410 0.524690 1.640741
Ba2   Ba    Ba6+2 0.340150 0.544510 0.475310 1.649177
C1    C     C_3   0.636374 0.119051 0.663204 -0.239894
C2    C     C_R   0.912515 0.589529 0.173900 0.586401
C3    C     C_2   0.767139 0.560744 0.270425 -0.090234
C4    C     C_3   0.126026 0.250808 0.666382 0.314850
C5    C     C_3   0.752380 0.593653 0.324167 -0.063935
C6    C     C_1   0.982059 0.486473 0.343591 0.043250
C7    C     C_2   0.024189 0.482429 0.296182 -0.088622
C8    C     C_2   0.908582 0.518640 0.255741 0.191679
C9    C     C_R   0.019158 0.505624 0.100656 -0.078111
C10   C     C_R   0.062365 0.430021 0.130325 -0.033848
C11   C     C_R   0.142434 0.351470 0.108348 -0.055393
C12   C     C_3   0.631714 0.216221 0.642513 0.269466
C13   C     C_R   0.939913 0.584604 0.122514 -0.052379
C14   C     C_2   0.853789 0.535591 0.359405 -0.278942
C15   C     C_2   0.348985 0.476805 0.642331 -0.282284
C16   C     C_3   0.084949 0.232770 0.719184 -0.327879
C17   C     C_R   0.169195 0.418448 0.975623 0.019716
C18   C     C_R   0.066176 0.580985 0.970719 0.006699
C19   C     C_R   0.138289 0.499122 0.947935 0.062953
C20   C     C_R   0.235728 0.337571 0.950531 -0.101099
C21   C     C_R   0.275146 0.337232 0.900781 -0.058157
C22   C     C_R   0.250487 0.417450 0.873587 -0.031399
C23   C     C_3   0.524895 0.690168 0.622986 0.295488
C24   C     C_R   0.182405 0.498699 0.897179 -0.080428
C25   C     C_R   0.160845 0.580131 0.870319 -0.036973
C26   C     C_R   0.199991 0.578034 0.819727 0.593308
C27   C     C_R   0.292923 0.418077 0.823326 0.578691
C28   C     C_3   0.162982 0.257642 0.423208 0.313881
C29   C     C_2   0.457597 0.476471 0.730285 -0.076041
C30   C     C_3   0.500162 0.483370 0.676531 -0.045978
C31   C     C_1   0.213636 0.519130 0.656873 0.037405
C32   C     C_2   0.175625 0.521107 0.704406 -0.104786
C33   C     C_2   0.303151 0.496555 0.744166 0.204362
C34   C     C_3   0.503002 0.726328 0.676446 -0.350984
C35   C     C_R   0.135176 0.421888 0.027298 0.024656
C36   C     C_R   0.054880 0.502402 0.049145 0.060524
C37   C     C_R   0.007931 0.579234 0.019806 -0.041852
C38   C     C_R   0.178864 0.347576 0.058247 -0.099267
C39   C     C_R   0.881082 0.655717 0.092257 -0.033929
C40   C     C_3   0.164806 0.152082 0.412433 -0.388944
C41   C     C_R   0.064803 0.663873 0.944639 -0.111727
C42   C     C_R   0.106156 0.662948 0.895162 -0.051251
C43   C     C_R   0.902645 0.650458 0.040953 -0.060366
C44   C     C_R   0.689988 0.064960 0.472706 -0.034182
C45   C     C_3   0.013531 0.805301 0.334517 0.655068
C46   C     C_R   0.510549 0.198414 0.501574 0.049658
C47   C     C_R   0.373716 0.229750 0.527073 -0.295217
C48   C     C_R   0.275173 0.166909 0.548203 0.014356
C49   C     C_R   0.320400 0.072349 0.547915 -0.110237
C50   C     C_R   0.461201 0.039511 0.524104 -0.013763
C51   C     C_R   0.555412 0.101712 0.499130 -0.029839
C52   C     C_3   0.032298 0.741179 0.574282 0.297373
C53   C     C_R   0.639671 0.908159 0.497947 -0.027986
C54   C     C_R   0.734481 0.969453 0.472728 -0.008078
C55   C     C_R   0.683010 0.811976 0.496561 0.028707
C56   C     C_3   0.060247 0.784966 0.280940 -0.255506
C57   C     C_R   0.815690 0.777912 0.470107 -0.295823
C58   C     C_R   0.917194 0.838723 0.448797 0.024646
C59   C     C_R   0.875859 0.934580 0.449330 -0.091508
C60   C     C_R   0.505081 0.944531 0.523890 -0.029218
C61   C     C_3   0.028726 0.846992 0.584188 -0.363816
C62   C     C_3   0.659015 0.340235 0.380013 0.300763
C63   C     C_3   0.663094 0.316536 0.324418 -0.359829
C64   C     C_2   0.487669 0.103945 0.691477 0.490441
C65   C     C_2   0.791865 0.710110 0.010035 0.483891
C66   C     C_3   0.533495 0.793456 0.351563 0.354418
C67   C     C_3   0.505618 0.884700 0.325775 -0.316099
C68   C     C_R   0.022924 0.433976 0.181182 0.599803
H1    H     H_    0.737807 0.219371 0.618745 0.112494
H2    H     H_    0.782130 0.360158 0.394404 0.008212
H3    H     H_    0.571889 0.399998 0.386204 0.082329
H4    H     H_    0.644326 0.065485 0.631785 0.090510
H5    H     H_    0.755583 0.259892 0.316959 0.134871
H6    H     H_    0.694856 0.379022 0.304916 0.066024
H7    H     H_    0.541359 0.293108 0.309678 0.137017
H8    H     H_    0.517274 0.225434 0.619526 -0.029389
H9    H     H_    0.403362 0.671037 0.606289 0.026928
H10   H     H_    0.607877 0.627437 0.622687 0.034859
H11   H     H_    0.426376 0.791656 0.677103 0.162834
H12   H     H_    0.251930 0.132023 0.383207 0.127551
H13   H     H_    0.441666 0.673783 0.697069 0.073239
H14   H     H_    0.623733 0.741102 0.695230 0.127755
H15   H     H_    0.746795 0.110549 0.688201 0.090972
H16   H     H_    0.131135 0.290115 0.744841 0.120410
H17   H     H_    0.938425 0.746329 0.344148 -0.038390
H18   H     H_    0.119017 0.714199 0.276686 0.108594
H19   H     H_    0.949031 0.787961 0.255987 0.144963
H20   H     H_    0.145963 0.837778 0.269971 0.099449
H21   H     H_    0.667377 0.780951 0.355835 -0.027760
H22   H     H_    0.483719 0.801786 0.389129 0.083479
H23   H     H_    0.202271 0.115565 0.446422 0.060580
H24   H     H_    0.568725 0.942027 0.347844 0.097559
H25   H     H_    0.373652 0.903274 0.322300 0.125486
H26   H     H_    0.078781 0.322101 0.658643 0.074381
H27   H     H_    0.555387 0.877777 0.288180 0.137937
H28   H     H_    0.144156 0.455236 0.286788 0.138677
H29   H     H_    0.178680 0.292286 0.130042 0.126944
H30   H     H_    0.554114 0.462376 0.758065 0.101937
H31   H     H_    0.325802 0.273222 0.883616 0.124595
H32   H     H_    0.257049 0.272407 0.968134 0.077098
H33   H     H_    0.244055 0.285367 0.045068 0.076660
H34   H     H_    0.040887 0.129427 0.399452 0.118911
H35   H     H_    0.674157 0.583690 0.243463 0.122947
H36   H     H_    0.806627 0.712553 0.108154 0.165833
H37   H     H_    0.036408 0.731448 0.962455 0.086152
H38   H     H_    0.260618 0.248043 0.663513 -0.021121
H39   H     H_    0.097520 0.728180 0.876620 0.129633
H40   H     H_    0.052651 0.540458 0.714786 0.121046
H41   H     H_    0.839865 0.551203 0.398824 0.080035
H42   H     H_    0.349658 0.435285 0.607339 0.070826
H43   H     H_    0.338228 0.303222 0.527969 0.068771
H44   H     H_    0.243953 0.024425 0.565204 0.094412
H45   H     H_    0.909484 0.717894 0.561923 0.001759
H46   H     H_    0.955120 0.981610 0.432595 0.074813
H47   H     H_    0.848099 0.704028 0.469745 0.059301
H48   H     H_    0.762193 0.109401 0.452007 0.100373
H49   H     H_    0.950650 0.230744 0.721970 0.139383
H50   H     H_    0.431231 0.899649 0.543871 0.103082
H51   H     H_    0.141018 0.165108 0.730269 0.143577
H52   H     H_    0.288344 0.280043 0.433161 0.002068
H53   H     H_    0.083085 0.275170 0.454596 0.065019
H54   H     H_    0.464084 0.147431 0.724777 0.053568
H55   H     H_    0.994599 0.941010 0.333421 0.301559
H56   H     H_    0.118286 0.722867 0.544686 0.074238
H57   H     H_    0.760826 0.688416 0.971618 0.000772
H58   H     H_    0.935171 0.867864 0.611359 0.141740
H59   H     H_    0.999114 0.882492 0.549357 0.052736
H60   H     H_    0.150116 0.870170 0.599387 0.135927
N1    N     N_R   0.949059 0.513670 0.202978 -0.419617
N2    N     N_R   0.263330 0.497132 0.796414 -0.425036
O1    O     O_2   0.918080 0.549800 0.616640 -0.462936
O2    O     O_2   0.255534 0.833376 0.457958 -0.498846
O3    O     O_3   0.156415 0.812341 0.365392 -0.599853
O4    O     O_3   0.150070 0.549720 0.556460 -0.493727
O5    O     O_3   0.546340 0.387390 0.478340 -0.486585
O6    O     O_2   0.398940 0.728800 0.517420 -0.469780
O7    O     O_3   0.593065 0.760821 0.597523 -0.638925
O8    O     O_2   0.422743 0.537752 0.322104 -0.487034
O9    O     O_3   0.455207 0.720059 0.323492 -0.574674
O10   O     O_2   0.052394 0.365763 0.205633 -0.596591
O11   O     O_2   0.356123 0.348044 0.803567 -0.608368
O12   O     O_3   0.610392 0.261370 0.403199 -0.638709
O13   O     O_2   0.856934 0.662469 0.192750 -0.621302
O14   O     O_2   0.179865 0.648804 0.796650 -0.589833
O15   O     O_3   0.658250 0.379560 0.591530 -0.485733
O16   O     O_2   0.831124 0.425509 0.674289 -0.498211
O17   O     O_3   0.081070 0.699598 0.618379 -0.623807
O18   O     O_3   0.639795 0.285883 0.681460 -0.612634
O19   O     O_2   0.790750 0.271170 0.482550 -0.470252
O20   O     O_3   0.062300 0.331660 0.568480 -0.493688
O21   O     O_2   0.936932 0.165742 0.542281 -0.494537
O22   O     O_2   0.392780 0.042768 0.677394 -0.580974
O23   O     O_3   0.052607 0.182581 0.633828 -0.588011
O24   O     O_3   0.920246 0.889081 0.338108 -0.781693
O25   O     O_2   0.731478 0.783184 0.027298 -0.560261
O26   O     O_2   0.271610 0.450170 0.383330 -0.457081
O27   O     O_3   0.039630 0.450200 0.443530 -0.500165
O28   O     O_3   0.531440 0.620360 0.408460 -0.476430
O29   O     O_3   0.105118 0.300612 0.380374 -0.625145
O30   O     O_3   0.643350 0.612530 0.521650 -0.472064
O31   O     O_3   0.127390 0.668260 0.431510 -0.472814
P1    P     P_3+3 0.090020 0.577590 0.608380 0.996826
P2    P     P_3+3 0.614340 0.285150 0.467650 0.973575
P3    P     P_3+3 0.081691 0.210572 0.572745 0.943532
P4    P     P_3+3 0.099670 0.422330 0.391610 0.994495
P5    P     P_3+3 0.112283 0.789933 0.426231 0.963262
P6    P     P_3+3 0.657900 0.395249 0.656214 0.963190
P7    P     P_3+3 0.584135 0.729518 0.533856 0.942410
P8    P     P_3+3 0.539080 0.614364 0.343854 0.965294

loop_
_geom_bond_atom_site_label_1
_geom_bond_atom_site_label_2
_ccdc_geom_bond_type
C47   H43   S    
C53   C54   A    
O1    P1    D    
C7    H28   S    
C54   C59   A    
C5    P8    S    
O21   P3    D    
C1    H15   S    
C23   H10   S    
C12   H1    S    
C40   H12   S    
C19   C24   A    
Ba2   O30   S    
O5    P2    S    
C3    H35   S    
C52   H56   S    
C24   C25   A    
C16   H16   S    
C63   H6    S    
O7    P7    S    
C17   C19   A    
C22   C24   A    
C32   C33   S    
C35   C38   A    
C36   C37   A    
C55   C57   A    
C27   N2    Am   
O6    P7    D    
C52   C61   S    
C34   H13   S    
C40   H23   S    
C53   C60   A    
O9    P8    S    
C66   H21   S    
C44   H48   S    
Ba1   O20   S    
Ba1   Ba2   S    
C6    C14   D    
C61   H60   S    
C1    H4    S    
C22   C27   A    
C11   C38   A    
C17   C35   A    
C8    N1    S    
C9    C13   A    
C25   C42   A    
C46   P2    S    
C28   H52   S    
Ba1   P1    S    
Ba2   O27   S    
C43   C65   S    
C62   H3    S    
C2    N1    Am   
Ba1   O4    S    
C7    C8    S    
C60   H50   S    
C4    O23   S    
H55   O24   S    
Ba2   O26   S    
C37   C43   A    
C42   H39   S    
C61   H59   S    
C57   C58   A    
C57   H47   S    
C12   O18   S    
C15   C31   D    
Ba1   O1    S    
O26   P4    D    
C31   C32   D    
C52   O17   S    
C46   C51   A    
C4    C16   S    
C68   O10   D    
C49   H44   S    
C63   H7    S    
C39   H36   S    
C49   C50   A    
Ba2   O6    S    
Ba1   O27   S    
C31   P1    S    
C13   C39   A    
C67   H24   S    
C3    C5    S    
C18   C37   A    
C6    C7    D    
C41   H37   S    
C62   O12   S    
C48   C49   A    
O19   P2    D    
Ba2   O4    S    
C56   H18   S    
C58   C59   A    
C26   N2    Am   
C45   H17   S    
C11   H29   S    
C9    C36   A    
C41   C42   A    
C48   P3    S    
C35   C36   A    
C6    P4    S    
C65   H57   S    
C12   H8    S    
C29   C30   S    
O30   P7    S    
Ba1   P2    S    
C34   H11   S    
O3    P5    S    
C52   H45   S    
C17   C20   A    
C59   H46   S    
O16   P6    D    
C66   O9    S    
C65   O25   D    
O17   P1    S    
C58   P5    S    
C29   H30   S    
C10   C11   A    
C28   H53   S    
C56   H20   S    
C23   O7    S    
O29   P4    S    
C1    C12   S    
C46   C47   A    
Ba1   O30   S    
O8    P8    D    
C4    H26   S    
C53   C55   A    
C32   H40   S    
C29   C33   D    
Ba1   O15   S    
C1    C64   S    
C15   H42   S    
C18   C41   A    
Ba1   O5    S    
C50   C51   A    
C64   O22   D    
C55   P7    S    
O4    P1    S    
C10   C68   A    
C5    C14   S    
C39   C43   A    
C45   O3    S    
C23   C34   S    
C23   H9    S    
Ba2   O5    S    
C66   C67   S    
C61   H58   S    
C67   H25   S    
C40   H34   S    
Ba2   O31   S    
O20   P3    S    
C9    C10   A    
C16   H51   S    
C26   O14   D    
C20   H32   S    
O12   P2    S    
C62   C63   S    
C2    C13   A    
O31   P5    S    
C3    C8    D    
C50   C60   A    
C45   C56   S    
C21   H31   S    
C34   H14   S    
C2    O13   D    
Ba2   P4    S    
C44   C51   A    
C68   N1    Am   
C66   H22   S    
O28   P8    S    
O27   P4    S    
Ba1   O19   S    
C64   H54   S    
C62   H2    S    
C56   H19   S    
C33   N2    S    
C21   C22   A    
O18   P6    S    
C18   C19   A    
C30   P6    S    
Ba2   O28   S    
C47   C48   A    
C45   O24   S    
C44   C54   A    
C25   C26   A    
C15   C30   S    
C4    H38   S    
C20   C21   A    
C28   C40   S    
O23   P3    S    
C28   O29   S    
O2    P5    D    
C16   H49   S    
C63   H5    S    
O15   P6    S    
C14   H41   S    
C67   H27   S    
C38   H33   S    
C27   O11   D    
