data_mof_unit_12411.cif
_audit_creation_date              2012-12-10T16:59:53-0500
_audit_creation_method            fapswitch 2.2
_symmetry_space_group_name_H-M    P1
_symmetry_Int_Tables_number       1
_space_group_crystal_system       triclinic
_cell_length_a                    15.09619
_cell_length_b                    15.15792
_cell_length_c                    10.048654
_cell_angle_alpha                 89.534672
_cell_angle_beta                  88.710963
_cell_angle_gamma                 90.231288
_cell_volume                      2298.72355134

loop_
_atom_site_label
_atom_site_type_symbol
_atom_type_description
_atom_site_fract_x
_atom_site_fract_y
_atom_site_fract_z
_atom_type_partial_charge
C1    C     C_R   0.385732 0.877150 0.501401 0.935809
C2    C     C_2   0.742748 0.191022 0.404135 -0.288582
C3    C     C_2   0.210716 0.276194 0.389966 -0.325671
C4    C     C_2   0.246564 0.686175 0.408994 -0.261240
C5    C     C_2   0.698022 0.829303 0.493555 0.348739
C6    C     C_2   0.674934 0.194983 0.492412 0.355254
C7    C     C_2   0.165081 0.298319 0.500290 0.321022
C8    C     C_2   0.176267 0.695097 0.491823 0.332973
C9    C     C_2   0.273799 0.205480 0.391125 -0.137228
C10   C     C_2   0.311918 0.755930 0.397232 -0.125208
C11   C     C_2   0.771097 0.704267 0.391609 -0.141283
C12   C     C_R   0.382839 0.120166 0.500087 0.896997
C13   C     C_2   0.807628 0.260785 0.394616 -0.143790
C14   C     C_2   0.322351 0.191506 0.498578 -0.276622
C15   C     C_2   0.333292 0.798921 0.507068 -0.263193
C16   C     C_2   0.802607 0.670867 0.503701 -0.250594
C17   C     C_2   0.834797 0.298057 0.505895 -0.270837
C18   C     C_2   0.569856 0.014530 0.922687 -0.138963
C19   C     C_2   0.064431 0.530091 0.922720 -0.163200
C20   C     C_2   0.572287 0.995307 0.070958 0.106256
C21   C     C_2   0.070863 0.512611 0.069880 0.130185
C22   C     C_3   0.792463 0.930628 0.588196 0.122391
C23   C     C_R   0.885996 0.377017 0.501313 0.902741
C24   C     C_3   0.885436 0.936774 0.642176 -0.851613
C25   C     C_3   0.572225 0.294445 0.576699 0.112919
C26   C     C_3   0.565953 0.387239 0.632391 -0.822908
C27   C     C_3   0.091122 0.190341 0.616133 0.125525
C28   C     C_3   0.094834 0.129375 0.736823 -0.819779
C29   C     C_3   0.109927 0.773747 0.666696 0.106272
C30   C     C_3   0.112295 0.864440 0.730383 -0.852208
C31   C     C_3   0.659285 0.967450 0.131613 -0.318229
C32   C     C_3   0.741799 0.972811 0.039332 -0.453395
C33   C     C_3   0.824180 0.941779 0.111443 -0.858626
C34   C     C_R   0.878345 0.615532 0.500773 0.917400
C35   C     C_3   0.163509 0.514335 0.123960 -0.365600
C36   C     C_3   0.222480 0.443706 0.058929 -0.377231
C37   C     C_3   0.314877 0.443830 0.117720 -0.901764
C38   C     C_R   0.616591 0.120663 0.498469 0.745807
C39   C     C_R   0.621347 0.884322 0.498940 0.772228
C40   C     C_R   0.115547 0.621987 0.498570 0.790708
C41   C     C_R   0.114801 0.377826 0.499786 0.804421
C42   C     C_2   0.700163 0.767108 0.399470 -0.290761
H1    H     H_    0.648993 0.762371 0.325364 0.135960
H2    H     H_    0.310799 0.775933 0.605053 0.167983
H3    H     H_    0.771716 0.684065 0.600236 0.192385
H4    H     H_    0.818313 0.270067 0.603383 0.189967
H5    H     H_    0.629688 0.035729 0.870106 0.163469
H6    H     H_    0.119554 0.563014 0.871764 0.160114
H7    H     H_    0.446881 0.972781 0.900612 0.160547
H8    H     H_    0.954009 0.461683 0.900323 0.162893
H9    H     H_    0.444750 0.022923 0.104279 0.152784
H10   H     H_    0.940457 0.505822 0.104730 0.148601
H11   H     H_    0.746888 0.966377 0.657230 0.156759
H12   H     H_    0.749340 0.136737 0.334537 0.124593
H13   H     H_    0.793026 0.963581 0.488405 0.111607
H14   H     H_    0.932486 0.901626 0.574864 0.268825
H15   H     H_    0.905789 0.007053 0.648136 0.199799
H16   H     H_    0.887321 0.906566 0.743166 0.259981
H17   H     H_    0.531636 0.249885 0.642196 0.159863
H18   H     H_    0.544449 0.295502 0.474746 0.124207
H19   H     H_    0.605491 0.433678 0.568657 0.257876
H20   H     H_    0.495753 0.408921 0.634908 0.203007
H21   H     H_    0.591606 0.388400 0.735099 0.258110
H22   H     H_    0.091020 0.148720 0.525140 0.143435
H23   H     H_    0.203605 0.312015 0.296960 0.163011
H24   H     H_    0.028406 0.228717 0.622628 0.126996
H25   H     H_    0.094508 0.168768 0.829552 0.257033
H26   H     H_    0.036479 0.084594 0.739332 0.199362
H27   H     H_    0.156093 0.089057 0.731662 0.261348
H28   H     H_    0.142957 0.726818 0.735448 0.139904
H29   H     H_    0.039479 0.754396 0.653848 0.171083
H30   H     H_    0.083575 0.914471 0.662797 0.266692
H31   H     H_    0.073538 0.863316 0.825636 0.213322
H32   H     H_    0.181834 0.883397 0.750621 0.254406
H33   H     H_    0.836317 0.983986 0.199130 0.254363
H34   H     H_    0.257414 0.626512 0.351557 0.118647
H35   H     H_    0.815899 0.872167 0.145118 0.267232
H36   H     H_    0.882724 0.946096 0.042740 0.253316
H37   H     H_    0.732747 0.930230 0.951018 0.242848
H38   H     H_    0.752851 0.042144 0.005837 0.226886
H39   H     H_    0.672199 0.009101 0.218898 0.235022
H40   H     H_    0.651727 0.897657 0.164134 0.215325
H41   H     H_    0.347907 0.508504 0.098962 0.262307
H42   H     H_    0.310885 0.431086 0.226698 0.258535
H43   H     H_    0.355548 0.391333 0.070429 0.260783
H44   H     H_    0.191780 0.377548 0.074537 0.230384
H45   H     H_    0.282070 0.166817 0.301121 0.172598
H46   H     H_    0.229393 0.456015 0.950025 0.232316
H47   H     H_    0.192920 0.580746 0.105040 0.176129
H48   H     H_    0.163285 0.502472 0.231593 0.263349
H49   H     H_    0.340297 0.772583 0.299898 0.163027
H50   H     H_    0.796503 0.685524 0.293888 0.168613
H51   H     H_    0.830364 0.282802 0.296469 0.171410
H52   H     H_    0.319109 0.233463 0.585565 0.193030
N1    N     N_2   0.501330 0.000000 0.852150 -0.203921
N2    N     N_2   0.001330 0.500000 0.852150 -0.199395
N3    N     N_2   0.501360 0.000000 0.147810 -0.214810
N4    N     N_2   0.001360 0.500000 0.147810 -0.209609
O1    O     O_R   0.409520 0.909540 0.613040 -0.617195
O2    O     O_R   0.590440 0.909540 0.613100 -0.598231
O3    O     O_R   0.090440 0.590460 0.613100 -0.641789
O4    O     O_R   0.090440 0.409540 0.613100 -0.574303
O5    O     O_R   0.590480 0.090460 0.386960 -0.641514
O6    O     O_R   0.590480 0.909540 0.386960 -0.657328
O7    O     O_R   0.090480 0.590460 0.386960 -0.628353
O8    O     O_R   0.090480 0.409540 0.386960 -0.658036
O9    O     O_3   0.767543 0.840758 0.580990 -0.612381
O10   O     O_3   0.661891 0.267729 0.574730 -0.612220
O11   O     O_3   0.165350 0.247277 0.615608 -0.603413
O12   O     O_R   0.409520 0.090460 0.613040 -0.607147
O13   O     O_3   0.154333 0.778313 0.541740 -0.609642
O14   O     O_R   0.909520 0.409540 0.613040 -0.619496
O15   O     O_R   0.909520 0.590460 0.613040 -0.611129
O16   O     O_R   0.409560 0.909540 0.386900 -0.604707
O17   O     O_R   0.409560 0.090460 0.386900 -0.609466
O18   O     O_R   0.909560 0.409540 0.386900 -0.613720
O19   O     O_R   0.909560 0.590460 0.386900 -0.608525
O20   O     O_R   0.590440 0.090460 0.613100 -0.614019
Zn1   Zn    Zn3+2 0.499970 0.000000 0.650990 0.938552
Zn2   Zn    Zn3+2 0.999970 0.500000 0.650990 0.941191
Zn3   Zn    Zn3+2 0.500030 0.000000 0.349010 0.915886
Zn4   Zn    Zn3+2 0.000030 0.500000 0.349010 0.923557

loop_
_geom_bond_atom_site_label_1
_geom_bond_atom_site_label_2
_ccdc_geom_bond_type
H9    N3    S    
C5    C42   D    
O17   Zn3   S    
C28   H27   S    
O19   Zn4   S    
H8    N2    S    
C18   H5    S    
C1    O1    A    
C12   O12   A    
C39   O6    A    
C3    H23   S    
C36   H46   S    
C34   O15   A    
C23   O14   A    
C38   O5    A    
C31   H40   S    
O18   Zn4   S    
C37   H43   S    
C36   C37   S    
C28   H26   S    
C26   H19   S    
C15   H2    S    
C3    C7    D    
C10   C15   D    
C30   H32   S    
C33   H36   S    
C22   O9    S    
C41   O4    A    
C11   C42   S    
N4    Zn4   S    
C2    C13   S    
O20   Zn1   S    
N3    Zn3   S    
C16   C34   S    
C40   O3    A    
O16   Zn3   S    
C11   H50   S    
C33   H33   S    
C20   N3    D    
C35   C36   S    
C24   H15   S    
C6    C38   S    
C37   H42   S    
C1    C15   S    
C25   H18   S    
C4    C8    D    
C12   O17   A    
C34   O19   A    
C23   O18   A    
C18   N1    D    
C2    C6    D    
C29   O13   S    
C22   H11   S    
C41   O8    A    
C28   H25   S    
C17   H4    S    
C2    H12   S    
C8    O13   S    
O14   Zn2   S    
C9    C14   D    
C19   H6    S    
O6    Zn3   S    
C36   H44   S    
C25   C26   S    
C7    O11   S    
C13   H51   S    
O12   Zn1   S    
C26   H21   S    
C29   C30   S    
C3    C9    S    
C32   H38   S    
O15   Zn2   S    
C11   C16   D    
C31   C32   S    
O8    Zn4   S    
O2    Zn1   S    
C17   C23   S    
H7    N1    S    
C35   H47   S    
C12   C14   S    
C10   H49   S    
C5    C39   S    
C22   C24   S    
C1    O16   A    
C4    C10   S    
O5    Zn3   S    
O4    Zn2   S    
C29   H28   S    
C5    O9    S    
C30   H31   S    
C19   C21   S    
O3    Zn2   S    
N2    Zn2   S    
C16   H3    S    
C30   H30   S    
C22   H13   S    
C21   C35   S    
C24   H14   S    
C25   H17   S    
C31   H39   S    
C13   C17   D    
N1    Zn1   S    
C32   C33   S    
C26   H20   S    
C27   H24   S    
C9    H45   S    
C32   H37   S    
C21   N4    D    
C33   H35   S    
C39   O2    A    
H10   N4    S    
O7    Zn4   S    
C18   C20   S    
C7    C41   S    
C4    H34   S    
C27   H22   S    
O1    Zn1   S    
C38   O20   A    
C35   H48   S    
C27   O11   S    
C24   H16   S    
C42   H1    S    
C27   C28   S    
C6    O10   S    
C37   H41   S    
C8    C40   S    
C14   H52   S    
C19   N2    D    
C25   O10   S    
C40   O7    A    
C29   H29   S    
C20   C31   S    
