data_mof_unit_38080.cif
_audit_creation_date              2013-03-05T16:48:05-0500
_audit_creation_method            fapswitch 2.2
_symmetry_space_group_name_H-M    P1
_symmetry_Int_Tables_number       1
_space_group_crystal_system       triclinic
_cell_length_a                    19.173901
_cell_length_b                    8.919331
_cell_length_c                    8.107222
_cell_angle_alpha                 90.020653
_cell_angle_beta                  89.99826
_cell_angle_gamma                 89.998691
_cell_volume                      1386.48379719

loop_
_atom_site_label
_atom_site_type_symbol
_atom_site_description
_atom_site_fract_x
_atom_site_fract_y
_atom_site_fract_z
_atom_type_partial_charge
O1    O     O_R   0.500000 0.285350 0.636850 -0.614480
O2    O     O_R   0.500000 0.714650 0.363150 -0.614482
O3    O     O_R   0.500000 0.714650 0.636850 -0.598915
O4    O     O_R   0.500000 0.285350 0.363150 -0.598921
C1    C     C_R   0.499999 0.218015 0.500008 0.961908
C2    C     C_R   0.499998 0.781984 0.499992 0.961908
O5    O     O_R   0.398140 0.500000 0.636920 -0.599987
O6    O     O_R   0.601860 0.500000 0.363080 -0.599991
O7    O     O_R   0.601860 0.500000 0.636920 -0.599985
O8    O     O_R   0.398140 0.500000 0.363080 -0.599989
C3    C     C_R   0.365400 0.500001 0.500002 0.947429
C4    C     C_R   0.634600 0.500000 0.499997 0.947449
Zn1   Zn    Zn3+2 0.500000 0.500000 0.682780 1.057429
Zn2   Zn    Zn3+2 0.500000 0.500000 0.317220 1.057425
C5    C     C_1   0.499998 0.065214 0.500015 -0.106946
C6    C     C_1   0.499998 0.934786 0.499985 -0.106945
N1    N     N_1   0.500000 0.500000 0.073640 -0.004253
N2    N     N_1   0.500000 0.500000 0.926360 -0.004251
C7    C     C_R   0.254249 0.622795 0.568159 0.122842
C8    C     C_R   0.745759 0.377221 0.431866 0.122812
C9    C     C_R   0.745745 0.622823 0.568082 0.122837
C10   C     C_R   0.254246 0.377243 0.431816 0.122822
C11   C     C_R   0.181212 0.623230 0.569233 0.119580
C12   C     C_R   0.818797 0.376814 0.430743 0.119612
C13   C     C_R   0.818782 0.623266 0.569143 0.119585
C14   C     C_R   0.181208 0.376847 0.430671 0.119609
C15   C     C_R   0.145196 0.500047 0.499942 0.019126
C16   C     C_R   0.854804 0.500048 0.499932 0.019140
C17   C     C_R   0.290053 0.500010 0.500004 -0.205701
C18   C     C_R   0.709947 0.500013 0.499988 -0.205687
N3    N     N_R   0.034593 0.417843 0.612856 -0.157334
N4    N     N_R   0.965408 0.582265 0.387029 -0.157364
N5    N     N_R   0.965404 0.417845 0.612854 -0.157345
N6    N     N_R   0.034597 0.582267 0.387032 -0.157365
C19   C     C_R   0.930137 0.500058 0.499941 0.292907
C20   C     C_R   0.069864 0.500057 0.499945 0.292909
I1    I     I_    0.310809 0.811348 0.664842 -0.311281
I2    I     I_    0.689207 0.188619 0.335301 -0.311308
I3    I     I_    0.689175 0.811391 0.664719 -0.311285
I4    I     I_    0.310803 0.188659 0.335186 -0.311296
C21   C     C_3   0.143190 0.755231 0.645727 -0.792934
H1    H     H_    0.085690 0.743769 0.646435 0.231457
H2    H     H_    0.159594 0.768468 0.776257 0.259488
H3    H     H_    0.155879 0.859139 0.576569 0.253935
C22   C     C_3   0.856831 0.244787 0.354304 -0.792894
H4    H     H_    0.914333 0.256265 0.353543 0.231445
H5    H     H_    0.844158 0.140912 0.423547 0.253911
H6    H     H_    0.840417 0.231484 0.223787 0.259481
C23   C     C_3   0.856796 0.755313 0.645543 -0.792949
H7    H     H_    0.840391 0.768615 0.776070 0.259493
H8    H     H_    0.914296 0.743866 0.646242 0.231465
H9    H     H_    0.844097 0.859177 0.576317 0.253927
C24   C     C_3   0.143179 0.244881 0.354093 -0.792880
H10   H     H_    0.159624 0.231646 0.223590 0.259482
H11   H     H_    0.155821 0.140948 0.423265 0.253914
H12   H     H_    0.085680 0.256398 0.353260 0.231437

loop_
_geom_bond_atom_site_label_1
_geom_bond_atom_site_label_2
_geom_bond_distance
_ccdc_geom_bond_type
O3    Zn1   1.950541 S    
C7    C11   1.400434 A    
N3    N5    1.326621 A    
C7    I1    2.148955 S    
C10   C17   1.405562 A    
C11   C15   1.413939 A    
C15   C20   1.444418 S    
C8    I2    2.148867 S    
C9    C18   1.405480 A    
C11   C21   1.517128 S    
O6    C4    1.275248 A    
O3    C2    1.261847 A    
C10   I4    2.148926 S    
C21   H3    1.110348 S    
C23   H9    1.110337 S    
C24   H11   1.110392 S    
N1    N2    1.194031 T    
O4    Zn2   1.950541 S    
C8    C18   1.405533 A    
C24   H10   1.110245 S    
C13   C16   1.413939 A    
O5    C3    1.275252 A    
C21   H2    1.110252 S    
Zn2   N1    1.974757 S    
C14   C15   1.413908 A    
O2    C2    1.261347 A    
Zn1   N2    1.974757 S    
O1    C1    1.261347 A    
C12   C22   1.517228 S    
N5    C19   1.354049 A    
N6    C20   1.354028 A    
C22   H5    1.110381 S    
C10   C14   1.400459 A    
O2    Zn2   1.950277 S    
O7    C4    1.275252 A    
C24   H12   1.107280 S    
C1    C5    1.362886 S    
O1    Zn1   1.950278 S    
O8    C3    1.275251 A    
C2    C6    1.362886 S    
C5    C6    1.163331 T    
C7    C17   1.405515 A    
N4    C19   1.354042 A    
C8    C12   1.400469 A    
O5    Zn1   1.988141 S    
C14   C24   1.517266 S    
C3    C17   1.444700 S    
C23   H7    1.110272 S    
C21   H1    1.107233 S    
C22   H6    1.110272 S    
O7    Zn1   1.988117 S    
N3    C20   1.354058 A    
C9    C13   1.400435 A    
O6    Zn2   1.988139 S    
C4    C18   1.444696 S    
N4    N6    1.326627 A    
C22   H4    1.107310 S    
C12   C16   1.413876 A    
C16   C19   1.444424 S    
O8    Zn2   1.988119 S    
O4    C1    1.261846 A    
C23   H8    1.107235 S    
C13   C23   1.517103 S    
C9    I3    2.148962 S    
