data_mof_unit_68282.cif
_audit_creation_date              2012-10-26T19:56:20-0400
_audit_creation_method            fapswitch 2.2
_symmetry_space_group_name_H-M    P1
_symmetry_Int_Tables_number       1
_space_group_crystal_system       triclinic
_cell_length_a                    11.450365
_cell_length_b                    10.681979
_cell_length_c                    9.66547
_cell_angle_alpha                 90.299361
_cell_angle_beta                  90.964071
_cell_angle_gamma                 90.446247
_cell_volume                      1181.98820388

loop_
_atom_site_label
_atom_site_type_symbol
_atom_type_description
_atom_site_fract_x
_atom_site_fract_y
_atom_site_fract_z
_atom_type_partial_charge
C1    C     C_R   0.502274 0.260550 0.499413 0.607466
C2    C     C_3   0.391346 0.043817 0.519883 -0.035251
C3    C     C_3   0.495081 0.876323 0.502064 0.003992
C4    C     C_3   0.501455 0.123635 0.497745 0.006886
C5    C     C_3   0.460306 0.962180 0.622395 -0.026877
C6    C     C_3   0.535874 0.037788 0.377346 -0.024441
C7    C     C_3   0.484168 0.609779 0.048906 0.095398
C8    C     C_3   0.515892 0.391211 0.950778 0.051347
C9    C     C_3   0.402417 0.540715 0.944424 0.232341
C10   C     C_3   0.597773 0.459794 0.054789 0.243095
C11   C     C_3   0.581839 0.571662 0.950852 0.021428
C12   C     C_R   0.496321 0.739390 0.500558 0.590348
C13   C     C_3   0.417678 0.429569 0.047684 0.032434
C14   C     C_R   0.262291 0.500939 0.498738 0.619748
C15   C     C_R   0.737614 0.499044 0.501086 0.605074
C16   C     C_R   0.127326 0.600210 0.075224 0.226327
C17   C     C_R   0.869065 0.402362 0.923424 0.225467
C18   C     C_R   0.110593 0.570593 0.211371 -0.159593
C19   C     C_R   0.887748 0.430999 0.787517 -0.158284
C20   C     C_R   0.093918 0.446293 0.253221 0.009432
C21   C     C_R   0.904831 0.554917 0.744876 -0.034026
C22   C     C_R   0.097170 0.347969 0.154479 0.368943
C23   C     C_R   0.872566 0.500135 0.501450 -0.032883
C24   C     C_R   0.899270 0.654103 0.841998 0.317290
C25   C     C_R   0.116464 0.378138 0.013194 -0.061228
C26   C     C_R   0.878628 0.625105 0.983317 -0.042741
C27   C     C_R   0.126292 0.504368 0.975849 -0.156754
C28   C     C_R   0.869336 0.499042 0.022034 -0.167584
C29   C     C_R   0.935478 0.419498 0.414339 0.177010
C30   C     C_R   0.064105 0.580564 0.584704 0.182083
C31   C     C_2   0.458178 0.736282 0.109298 0.389729
C32   C     C_2   0.542102 0.265072 0.889850 0.353992
C33   C     C_2   0.646327 0.675367 0.880588 0.289856
C34   C     C_R   0.127191 0.499981 0.497580 -0.037746
C35   C     C_2   0.350956 0.318675 0.098246 0.293790
C36   C     C_2   0.127176 0.283952 0.899473 0.282932
C37   C     C_2   0.865182 0.720319 0.095269 0.364929
C38   C     C_2   0.727405 0.912128 0.457346 0.305273
C39   C     C_2   0.269178 0.088722 0.541628 0.314483
C40   C     C_2   0.410994 0.924577 0.758038 0.373693
C41   C     C_2   0.580922 0.075593 0.239668 0.389585
C42   C     C_R   0.940862 0.568925 0.600275 0.040273
C43   C     C_R   0.058762 0.431331 0.398277 0.044314
C44   C     C_3   0.571471 0.042829 0.601391 -0.110778
C45   C     C_3   0.424868 0.957040 0.398568 -0.106474
C46   C     C_3   0.605111 0.956324 0.479707 -0.041184
Cl1   Cl    Cl    0.319173 0.651567 0.854922 -0.532207
Cl2   Cl    Cl    0.679272 0.347778 0.145280 -0.524249
Cl3   Cl    Cl    0.132145 0.760809 0.032842 -0.418940
Cl4   Cl    Cl    0.864093 0.241696 0.965992 -0.406225
Cl5   Cl    Cl    0.091416 0.190440 0.210570 -0.310383
Cl6   Cl    Cl    0.901804 0.810591 0.782724 -0.327263
Cl7   Cl    Cl    0.867168 0.279135 0.361945 -0.497848
Cl8   Cl    Cl    0.131809 0.720879 0.638218 -0.500790
Cu1   Cu    Cu3+1 0.500030 0.499990 0.643150 1.061921
Cu2   Cu    Cu3+1 0.499970 0.500010 0.356850 1.133521
H1    H     H_    0.128021 0.527694 0.867553 0.204763
H2    H     H_    0.322205 0.246542 0.027134 0.194606
H3    H     H_    0.139523 0.315658 0.794105 0.128016
H4    H     H_    0.848531 0.689668 0.200117 0.116426
H5    H     H_    0.796899 0.980191 0.443233 0.175306
H6    H     H_    0.199219 0.021070 0.555012 0.170504
H7    H     H_    0.320744 0.894224 0.762723 0.196888
H8    H     H_    0.672345 0.099910 0.229293 0.199121
H9    H     H_    0.867187 0.476709 0.130617 0.197266
H10   H     H_    0.104102 0.647148 0.284876 0.164374
H11   H     H_    0.895291 0.353947 0.714805 0.172656
H12   H     H_    0.632913 0.077200 0.683310 0.186945
H13   H     H_    0.363448 0.922304 0.316776 0.179672
H14   H     H_    0.368604 0.764085 0.124158 0.152282
H15   H     H_    0.631016 0.241756 0.864499 0.167313
H16   H     H_    0.680319 0.660961 0.779320 0.167713
N1    N     N_3   0.500090 0.499970 0.858290 -0.308153
N2    N     N_3   0.499910 0.500030 0.141710 -0.268373
O1    O     O_R   0.500060 0.316850 0.620870 -0.500180
O2    O     O_2   0.463727 0.191119 0.861596 -0.469997
O3    O     O_2   0.656822 0.779384 0.931421 -0.365780
O4    O     O_2   0.331028 0.304468 0.219927 -0.413331
O5    O     O_2   0.123562 0.171444 0.920426 -0.332558
O6    O     O_2   0.872091 0.832547 0.073636 -0.289820
O7    O     O_2   0.749616 0.800678 0.454956 -0.477144
O8    O     O_2   0.247612 0.200315 0.544342 -0.458239
O9    O     O_2   0.470220 0.931477 0.863704 -0.341097
O10   O     O_2   0.515778 0.077025 0.138646 -0.373978
O11   O     O_R   0.499940 0.683150 0.379130 -0.495946
O12   O     O_R   0.500000 0.316860 0.379090 -0.414049
O13   O     O_R   0.500000 0.683140 0.620910 -0.484248
O14   O     O_R   0.319670 0.500010 0.620890 -0.429190
O15   O     O_R   0.680330 0.499990 0.379110 -0.427373
O16   O     O_R   0.319620 0.500010 0.379110 -0.487905
O17   O     O_R   0.680380 0.499990 0.620890 -0.566134
O18   O     O_2   0.536984 0.805493 0.149193 -0.411006

loop_
_geom_bond_atom_site_label_1
_geom_bond_atom_site_label_2
_ccdc_geom_bond_type
C24   Cl6   S    
Cu1   Cu2   S    
C8    C13   S    
C6    C45   S    
C36   H3    S    
C7    C11   S    
C30   Cl8   S    
C3    C46   S    
C23   C42   A    
C12   O11   A    
C35   H2    S    
C23   C29   A    
C19   C21   A    
C24   C26   A    
C13   C35   S    
C22   C25   A    
Cu1   O14   S    
C9    C13   S    
C14   O16   A    
Cu1   O17   S    
C3    C12   S    
C33   H16   S    
C2    C39   S    
C31   H14   S    
C6    C41   S    
C19   H11   S    
C7    N2    S    
C38   H5    S    
Cu1   O1    S    
C16   C27   A    
C15   C23   S    
C29   C43   A    
C40   O9    D    
C9    N1    S    
C44   C46   S    
C32   H15   S    
C2    C45   S    
C37   O6    D    
Cu2   N2    S    
C30   C34   A    
C45   H13   S    
C8    C32   S    
C11   C33   S    
C7    C31   S    
C16   Cl3   S    
C4    C6    S    
C27   H1    S    
C4    C44   S    
C41   O10   D    
C3    C45   S    
C1    O1    A    
C2    C4    S    
C14   C34   S    
C15   O15   A    
Cu2   O12   S    
C40   H7    S    
C16   C18   A    
Cu2   O15   S    
C5    C44   S    
C20   C22   A    
C9    Cl1   S    
C38   O7    D    
C10   Cl2   S    
C44   H12   S    
C2    C5    S    
C18   H10   S    
C20   C43   S    
C1    O12   A    
C7    C9    S    
C39   H6    S    
C6    C46   S    
C12   O13   A    
C17   C28   A    
C34   C43   A    
C39   O8    D    
C3    C5    S    
C36   O5    D    
C17   Cl4   S    
C32   O2    D    
C26   C37   S    
C25   C27   A    
C35   O4    D    
C26   C28   A    
C1    C4    S    
C28   H9    S    
C14   O14   A    
C10   N2    S    
C33   O3    D    
Cu2   O11   S    
C29   Cl7   S    
Cu2   O16   S    
C8    N1    S    
C17   C19   A    
C18   C20   A    
Cu1   O13   S    
C11   N1    S    
C38   C46   S    
C37   H4    S    
C10   C11   S    
C25   C36   S    
C15   O17   A    
C21   C42   S    
Cu1   N1    S    
C13   N2    S    
C8    C10   S    
C31   O18   D    
C21   C24   A    
C30   C42   A    
C41   H8    S    
C5    C40   S    
C22   Cl5   S    
