data_mof_unit_10717.cif
_audit_creation_date              2013-03-05T15:46:21-0500
_audit_creation_method            fapswitch 2.2
_symmetry_space_group_name_H-M    P1
_symmetry_Int_Tables_number       1
_space_group_crystal_system       triclinic
_cell_length_a                    10.032188
_cell_length_b                    10.675979
_cell_length_c                    10.982363
_cell_angle_alpha                 91.039098
_cell_angle_beta                  94.647092
_cell_angle_gamma                 84.52003
_cell_volume                      1166.9596696

loop_
_atom_site_label
_atom_site_type_symbol
_atom_site_description
_atom_site_fract_x
_atom_site_fract_y
_atom_site_fract_z
_atom_type_partial_charge
O1    O     O_R   0.568950 0.489660 0.307530 -0.608732
O2    O     O_R   0.348880 0.522640 0.340350 -0.611165
C1    C     C_R   0.444670 0.507808 0.268703 0.937922
O3    O     O_R   0.610060 0.300270 0.483590 -0.630743
O4    O     O_R   0.389990 0.333260 0.516410 -0.611658
C2    C     C_R   0.503708 0.262985 0.523492 0.897383
Zn1   Zn    Zn3+2 0.646940 0.477980 0.478090 1.012404
Zn2   Zn    Zn3+2 0.353060 0.522020 0.521910 1.040127
O5    O     O_R   0.651120 0.477360 0.659650 -0.628059
O6    O     O_R   0.431050 0.510340 0.692470 -0.546280
O7    O     O_R   0.610010 0.666740 0.483590 -0.552473
O8    O     O_R   0.389940 0.699730 0.516410 -0.599087
C3    C     C_R   0.554541 0.495988 0.732332 0.964765
C4    C     C_R   0.508553 0.741156 0.512747 0.881270
C5    C     C_R   0.761130 0.126247 0.596802 -0.124025
H1    H     H_    0.759496 0.218112 0.640575 0.168801
C6    C     C_R   0.878131 0.078228 0.549692 -0.161877
H2    H     H_    0.961243 0.134848 0.549543 0.219705
C7    C     C_R   0.887109 0.957284 0.504094 -0.159032
H3    H     H_    0.982764 0.917446 0.474765 0.224549
C8    C     C_R   0.782122 0.881193 0.514829 0.347633
C9    C     C_R   0.651370 0.934921 0.545050 -0.019368
C10   C     C_R   0.643074 0.064791 0.572761 0.066285
C11   C     C_R   0.516667 0.133781 0.569531 -0.182329
C12   C     C_R   0.408373 0.075434 0.605335 -0.117297
C13   C     C_R   0.417802 0.943509 0.602642 -0.105724
C14   C     C_R   0.528537 0.873672 0.550757 -0.199682
H4    H     H_    0.617784 0.517530 0.103403 0.179819
C15   C     C_2   0.413450 0.516788 0.139955 -0.275401
C16   C     C_2   0.513001 0.523651 0.067603 -0.252358
H5    H     H_    0.681260 0.466546 0.902033 0.142403
C17   C     C_2   0.580719 0.498932 0.863856 -0.449117
C18   C     C_2   0.482612 0.536141 0.937921 0.410420
H6    H     H_    0.308725 0.519708 0.105201 0.204215
H7    H     H_    0.917380 0.478143 0.625851 0.196898
H8    H     H_    0.118829 0.410919 0.426692 0.146568
N1    N     N_2   0.157290 0.551390 0.551110 -0.153878
C19   C     C_2   0.080571 0.471765 0.498660 -0.045155
H9    H     H_    0.869414 0.438930 0.360322 0.184048
N2    N     N_2   0.842740 0.448550 0.448960 -0.174739
C20   C     C_2   0.939938 0.462153 0.531730 -0.024859
H10   H     H_    0.119065 0.605481 0.621145 0.232438
C21   C     C_2   0.298876 0.150827 0.664107 0.939025
O9    O     O_2   0.182817 0.126893 0.643663 -0.644894
O10   O     O_R   0.329409 0.247511 0.745929 -0.769991
H11   H     H_    0.246658 0.287048 0.784024 0.374271
N3    N     N_R   0.824496 0.751883 0.520189 0.212111
O11   O     O_R   0.837649 0.699426 0.626970 -0.425196
O12   O     O_R   0.890155 0.701520 0.431377 -0.430778
C22   C     C_2   0.328210 0.879462 0.675906 1.008441
O13   O     O_2   0.374237 0.832688 0.772542 -0.578131
O14   O     O_R   0.193800 0.871453 0.634896 -0.765778
H12   H     H_    0.143558 0.826607 0.694817 0.361366
N4    N     N_R   0.348084 0.585938 0.895579 0.245459
O15   O     O_R   0.300619 0.692863 0.941021 -0.339303
O16   O     O_R   0.262119 0.508027 0.855563 -0.411219

loop_
_geom_bond_atom_site_label_1
_geom_bond_atom_site_label_2
_geom_bond_distance
_ccdc_geom_bond_type
O4    Zn2   2.014583 S    
C22   O14   1.396648 S    
Zn1   N2    2.009938 S    
C5    C6    1.371902 A    
N1    C19   1.296991 D    
C4    C14   1.495033 S    
N4    O15   1.301119 A    
C3    C17   1.447349 S    
H5    C17   1.087580 S    
C7    H3    1.082915 S    
Zn2   O8    1.970244 S    
C10   C11   1.402565 A    
C2    C11   1.468207 S    
C17   C18   1.353320 D    
C12   C21   1.482677 S    
H4    C16   1.088442 S    
C6    H2    1.075691 S    
N3    O12   1.300662 A    
O1    Zn1   1.971997 S    
C8    C9    1.442128 A    
C11   C12   1.389358 A    
H8    C19   1.084852 S    
Zn1   O7    2.014584 S    
C21   O10   1.396025 S    
C13   C14   1.429576 A    
C15   C16   1.333742 D    
C18   N4    1.445871 S    
O3    Zn1   1.970244 S    
C5    C10   1.412209 A    
N2    C20   1.294942 D    
C7    C8    1.403625 A    
O8    C4    1.312292 A    
C22   O13   1.218476 D    
O2    C1    1.287101 A    
C9    C14   1.455312 A    
C13   C22   1.475567 S    
C21   O9    1.218084 D    
O4    C2    1.301814 A    
H7    C20   1.083026 S    
O7    C4    1.287958 A    
N4    O16   1.300424 A    
O3    C2    1.285318 A    
Zn2   N1    2.009787 S    
C5    H1    1.083674 S    
N1    H10   1.030296 S    
O14   H12   1.013716 S    
C19   C20   1.498319 S    
Zn1   O5    1.991116 S    
H9    N2    1.031066 S    
C1    C15   1.426184 S    
C8    N3    1.405987 S    
O5    C3    1.303164 A    
C9    C10   1.410202 A    
C16   C18   1.438015 S    
C6    C7    1.373933 A    
C12   C13   1.402490 A    
O10   H11   1.012592 S    
C15   H6    1.086116 S    
Zn2   O6    1.971997 S    
O2    Zn2   1.991116 S    
N3    O11   1.300360 A    
O1    C1    1.282418 A    
O6    C3    1.276034 A    
