data_mof_unit_48247.cif
_audit_creation_date              2012-12-10T17:54:23-0500
_audit_creation_method            fapswitch 2.2
_symmetry_space_group_name_H-M    P1
_symmetry_Int_Tables_number       1
_space_group_crystal_system       triclinic
_cell_length_a                    27.740471
_cell_length_b                    10.67323
_cell_length_c                    9.873974
_cell_angle_alpha                 89.064952
_cell_angle_beta                  89.891153
_cell_angle_gamma                 91.662021
_cell_volume                      2921.86317075

loop_
_atom_site_label
_atom_site_type_symbol
_atom_type_description
_atom_site_fract_x
_atom_site_fract_y
_atom_site_fract_z
_atom_type_partial_charge
C1    C     C_R   0.502321 0.259229 0.502010 0.865862
C2    C     C_R   0.277988 0.489652 0.624368 -0.103867
C3    C     C_R   0.253030 0.493154 0.501735 0.324456
C4    C     C_R   0.101897 0.490097 0.501031 -0.053662
C5    C     C_R   0.126522 0.377063 0.514945 -0.021015
C6    C     C_R   0.100464 0.263674 0.526745 -0.139297
C7    C     C_R   0.128451 0.604179 0.488009 -0.022492
C8    C     C_R   0.353407 0.497462 0.500665 -0.046038
C9    C     C_R   0.646604 0.497778 0.499357 -0.043603
C10   C     C_R   0.973508 0.374400 0.525540 0.015155
C11   C     C_R   0.975695 0.600705 0.470269 0.058925
C12   C     C_R   0.406055 0.499349 0.500151 0.844882
C13   C     C_R   0.949271 0.486883 0.497292 0.069258
C14   C     C_R   0.945844 0.265784 0.561009 -0.282558
C15   C     C_R   0.895595 0.264207 0.560980 0.239382
C16   C     C_R   0.871090 0.374921 0.528822 -0.066503
C17   C     C_R   0.898134 0.485959 0.496340 -0.094739
C18   C     C_R   0.873992 0.596795 0.463027 0.000015
C19   C     C_R   0.823707 0.595895 0.463478 0.500188
C20   C     C_R   0.820333 0.379876 0.530147 0.511452
C21   C     C_R   0.721880 0.495362 0.375410 -0.104102
C22   C     C_R   0.671872 0.498671 0.375912 -0.213094
C23   C     C_R   0.493938 0.738283 0.499231 0.895011
C24   C     C_R   0.672049 0.493652 0.622124 -0.216111
C25   C     C_R   0.722079 0.490276 0.621226 -0.100354
C26   C     C_R   0.746928 0.491086 0.497947 0.320563
C27   C     C_R   0.024562 0.373936 0.518500 0.062561
C28   C     C_R   0.050833 0.489058 0.499940 0.070437
C29   C     C_R   0.026628 0.603162 0.480055 0.043811
C30   C     C_R   0.050468 0.261799 0.528018 -0.218068
C31   C     C_R   0.104324 0.716588 0.475275 -0.134302
C32   C     C_R   0.950163 0.708429 0.432723 -0.220010
C33   C     C_R   0.900307 0.706264 0.429436 -0.148077
C34   C     C_R   0.593955 0.499906 0.499867 0.880671
C35   C     C_R   0.054373 0.716407 0.471768 -0.218704
C36   C     C_R   0.505255 0.101469 0.760812 -0.167074
C37   C     C_R   0.489480 0.036304 0.876901 -0.257394
C38   C     C_R   0.462054 0.926044 0.865125 -0.140572
C39   C     C_R   0.454178 0.874000 0.738016 0.478292
C40   C     C_R   0.476361 0.932020 0.621239 -0.036220
C41   C     C_R   0.494647 0.055077 0.630108 0.062610
C42   C     C_R   0.501927 0.124241 0.506839 -0.092409
C43   C     C_R   0.500820 0.063863 0.382159 -0.212140
C44   C     C_R   0.493963 0.936739 0.378393 -0.193712
C45   C     C_R   0.176963 0.380228 0.515158 0.504706
C46   C     C_R   0.484436 0.869807 0.498311 -0.141557
C47   C     C_R   0.436239 0.336459 0.143275 -0.175160
C48   C     C_R   0.404801 0.256433 0.074144 -0.205583
C49   C     C_R   0.404792 0.256807 0.934016 -0.179115
C50   C     C_R   0.436341 0.336902 0.862300 -0.160646
C51   C     C_R   0.468602 0.419491 0.929015 0.166340
C52   C     C_R   0.468591 0.419429 0.073852 0.168425
C53   C     C_R   0.529889 0.577400 0.070093 -0.131697
C54   C     C_R   0.529869 0.577378 0.926712 -0.095980
C55   C     C_R   0.178840 0.603016 0.489022 0.506847
C56   C     C_R   0.277910 0.498522 0.378577 -0.103150
C57   C     C_R   0.327993 0.500452 0.377815 -0.216701
C58   C     C_R   0.328076 0.491933 0.624061 -0.200536
H1    H     H_    0.346856 0.489217 0.720097 0.178870
H2    H     H_    0.258354 0.501151 0.283802 0.138232
H3    H     H_    0.123975 0.805684 0.467947 0.191296
H4    H     H_    0.967637 0.795750 0.401937 0.137988
H5    H     H_    0.653393 0.492830 0.718602 0.160860
H6    H     H_    0.882425 0.791441 0.400346 0.180628
H7    H     H_    0.741621 0.487380 0.716013 0.138365
H8    H     H_    0.038598 0.807347 0.465712 0.138403
H9    H     H_    0.506675 0.114131 0.287006 0.169106
H10   H     H_    0.527350 0.184821 0.776336 0.182595
H11   H     H_    0.497152 0.073801 0.976060 0.167492
H12   H     H_    0.258503 0.485556 0.719550 0.138778
H13   H     H_    0.446977 0.880496 0.955073 0.161115
H14   H     H_    0.498032 0.890746 0.282150 0.168046
H15   H     H_    0.554268 0.640532 0.122954 0.147684
H16   H     H_    0.433979 0.330232 0.250658 0.210173
H17   H     H_    0.380365 0.193563 0.129840 0.165427
H18   H     H_    0.380490 0.193920 0.880356 0.166706
H19   H     H_    0.434711 0.330280 0.755056 0.206830
H20   H     H_    0.554221 0.640544 0.871314 0.147764
H21   H     H_    0.118627 0.175340 0.534740 0.190286
H22   H     H_    0.653097 0.501804 0.279898 0.161713
H23   H     H_    0.741255 0.496018 0.280069 0.137596
H24   H     H_    0.962161 0.179487 0.591487 0.141127
H25   H     H_    0.033274 0.170086 0.533111 0.138972
H26   H     H_    0.346706 0.504431 0.281392 0.171034
N1    N     N_R   0.201756 0.492088 0.502206 -0.359328
N2    N     N_R   0.798250 0.488813 0.497094 -0.360741
N3    N     N_R   0.499540 0.498800 0.142780 -0.121153
N4    N     N_R   0.499520 0.498720 0.857170 -0.114644
O1    O     O_R   0.500000 0.316780 0.614690 -0.655965
O2    O     O_2   0.792940 0.277641 0.564156 -0.525893
O3    O     O_2   0.204843 0.711541 0.477038 -0.547163
O4    O     O_2   0.800225 0.701539 0.432027 -0.566888
O5    O     O_R   0.500000 0.316750 0.385360 -0.639644
O6    O     O_R   0.428760 0.500030 0.614650 -0.617770
O7    O     O_R   0.428750 0.500010 0.385320 -0.642409
O8    O     O_R   0.500000 0.683250 0.614640 -0.584061
O9    O     O_R   0.500000 0.683220 0.385310 -0.622215
O10   O     O_R   0.571250 0.499990 0.614680 -0.625310
O11   O     O_R   0.571240 0.499970 0.385350 -0.617799
O12   O     O_2   0.201148 0.272721 0.527759 -0.551354
Zn1   Zn    Zn3+2 0.500000 0.500020 0.653130 0.958361
Zn2   Zn    Zn3+2 0.500000 0.499980 0.346870 0.938429
O13   O     O_3   0.422933 0.771289 0.731214 -0.746469
H27   H     H_    0.411231 0.764175 0.636800 0.321773
N5    N     N_2   0.870347 0.149627 0.593726 -0.251776
H28   H     H_    0.884993 0.101615 0.674570 0.218028
C59   C     C_3   0.862175 0.069385 0.478831 -0.668191
H29   H     H_    0.839692 0.986289 0.510752 0.257669
H30   H     H_    0.897073 0.036914 0.438792 0.194708
H31   H     H_    0.842812 0.120199 0.397301 0.259107

loop_
_geom_bond_atom_site_label_1
_geom_bond_atom_site_label_2
_ccdc_geom_bond_type
C10   C27   A    
C21   C26   A    
C37   H11   S    
C3    N1    S    
C41   C42   A    
C31   H3    S    
C7    C55   A    
C19   N2    A    
N4    Zn1   S    
C53   C54   A    
C56   C57   A    
C40   C46   A    
N5    C59   S    
C36   C37   A    
C5    C6    A    
C9    C22   A    
C15   C16   A    
C23   O8    A    
C17   C18   A    
C18   C19   A    
C30   H25   S    
C55   O3    S    
C19   O4    S    
C8    C58   A    
O6    Zn1   S    
C16   C17   A    
C20   N2    A    
C59   H29   S    
C12   O7    A    
C8    C12   S    
O9    Zn2   S    
O7    Zn2   S    
C16   C20   A    
O1    Zn1   S    
C23   C46   S    
C21   C22   A    
C27   C30   A    
C59   H30   S    
C48   H17   S    
C12   O6    A    
C36   C41   A    
C4    C7    A    
C4    C28   A    
C44   C46   A    
C34   O11   A    
C57   H26   S    
C7    C31   A    
C51   C52   A    
C25   H7    S    
C24   C25   A    
C10   C14   A    
C39   C40   A    
C35   H8    S    
C58   H1    S    
C20   O2    S    
C45   O12   S    
C56   H2    S    
C55   N1    A    
C45   N1    A    
C43   C44   A    
C37   C38   A    
C8    C57   A    
N3    Zn2   S    
C3    C56   A    
C47   C48   A    
C26   N2    S    
C36   H10   S    
C50   C51   A    
C49   H18   S    
C53   N3    A    
C43   H9    S    
C40   C41   A    
C23   O9    A    
C21   H23   S    
C11   C32   A    
C24   H5    S    
C9    C34   S    
C59   H31   S    
C31   C35   A    
C42   C43   A    
C14   H24   S    
C50   H19   S    
O13   H27   S    
C51   N4    A    
C38   H13   S    
C28   C29   A    
C1    O1    A    
C6    C30   A    
C52   N3    A    
C53   H15   S    
C47   H16   S    
C4    C5    A    
C10   C13   A    
O5    Zn2   S    
C2    C58   A    
C9    C24   A    
C39   O13   S    
C47   C52   A    
O10   Zn1   S    
N5    H28   S    
C29   C35   A    
C13   C17   A    
C32   C33   A    
C15   N5    S    
C2    C3    A    
C25   C26   A    
C22   H22   S    
C2    H12   S    
C54   N4    A    
C11   C13   A    
C6    H21   S    
C38   C39   A    
C5    C45   A    
C33   H6    S    
C48   C49   A    
C34   O10   A    
C44   H14   S    
C18   C33   A    
C32   H4    S    
C1    C42   S    
O11   Zn2   S    
C11   C29   A    
C1    O5    A    
C49   C50   A    
C27   C28   A    
C14   C15   A    
O8    Zn1   S    
C54   H20   S    
