data_mof_unit_26421.cif
_audit_creation_date              2012-12-11T14:00:03-0500
_audit_creation_method            fapswitch 2.2
_symmetry_space_group_name_H-M    P1
_symmetry_Int_Tables_number       1
_space_group_crystal_system       triclinic
_cell_length_a                    11.435742
_cell_length_b                    11.410654
_cell_length_c                    18.694904
_cell_angle_alpha                 90.124523
_cell_angle_beta                  89.796606
_cell_angle_gamma                 120.538026
_cell_volume                      2101.09566306

loop_
_atom_site_label
_atom_site_type_symbol
_atom_type_description
_atom_site_fract_x
_atom_site_fract_y
_atom_site_fract_z
_atom_type_partial_charge
C1    C     C_R   0.541534 0.478971 0.852433 0.571750
C2    C     C_R   0.481176 0.541493 0.350181 0.556445
C3    C     C_R   0.068901 0.521823 0.353274 0.556566
C4    C     C_R   0.458165 0.938686 0.350224 0.560752
C5    C     C_2   0.016786 0.511426 0.584667 -0.104302
C6    C     C_2   0.552062 0.460178 0.565298 -0.104129
C7    C     C_2   0.508084 0.029995 0.572087 -0.090339
C8    C     C_2   0.511385 0.017659 0.414998 -0.102610
C9    C     C_2   0.512210 0.484413 0.412000 -0.108022
C10   C     C_2   0.028527 0.507117 0.427620 -0.090450
C11   C     C_2   0.085544 0.457791 0.472253 -0.148443
C12   C     C_R   0.519708 0.061698 0.851616 0.572689
C13   C     C_2   0.632442 0.554585 0.445210 -0.149845
C14   C     C_2   0.435480 0.054317 0.452011 -0.161392
C15   C     C_2   0.457817 0.086336 0.527565 -0.153542
C16   C     C_2   0.654506 0.525176 0.518709 -0.163355
C17   C     C_2   0.053379 0.435316 0.547769 -0.158727
C18   C     C_2   0.002692 0.502829 0.923596 -0.100511
C19   C     C_2   0.495038 0.499319 0.921976 -0.104442
C20   C     C_2   0.496404 0.993117 0.920304 -0.094265
C21   C     C_2   0.502962 0.003023 0.076390 -0.100790
C22   C     C_2   0.499215 0.494851 0.078033 -0.104600
C23   C     C_R   0.935858 0.457744 0.853322 0.569176
C24   C     C_2   0.993317 0.496256 0.079781 -0.094784
C25   C     C_2   0.004333 0.602574 0.043433 0.221806
C26   C     C_2   0.391726 0.404182 0.039251 0.216961
C27   C     C_2   0.596809 0.992435 0.036493 0.210254
C28   C     C_2   0.602676 0.004526 0.956596 0.221630
C29   C     C_2   0.404338 0.391613 0.960827 0.215567
C30   C     C_2   0.992079 0.596713 0.963552 0.210486
C31   C     C_3   0.102839 0.834315 0.068340 0.018677
C32   C     C_3   0.121893 0.925718 0.132655 -0.329981
C33   C     C_3   0.160367 0.307220 0.049963 0.007332
C34   C     C_R   0.478894 0.541449 0.147565 0.559416
C35   C     C_3   0.040469 0.199202 0.091957 -0.342946
C36   C     C_3   0.679122 0.851579 0.055257 0.013591
C37   C     C_3   0.789818 0.841468 0.093995 -0.331354
C38   C     C_3   0.834227 0.103252 0.931893 0.018025
C39   C     C_3   0.926126 0.122551 0.867765 -0.327543
C40   C     C_3   0.306908 0.159690 0.950192 0.006419
C41   C     C_3   0.199482 0.039849 0.908028 -0.341403
C42   C     C_3   0.851272 0.678798 0.944785 0.012409
C43   C     C_3   0.841371 0.789942 0.906133 -0.330423
C44   C     C_R   0.061655 0.519653 0.148425 0.570783
C45   C     C_R   0.457696 0.935890 0.146679 0.565590
C46   C     C_R   0.580035 0.451517 0.640070 0.562806
C47   C     C_R   0.522267 0.069691 0.646537 0.551555
C48   C     C_R   0.938543 0.458272 0.649667 0.553319
Cr1   Cr    Cr6+3 0.464030 0.233680 0.750360 1.021371
Cr2   Cr    Cr6+3 0.766320 0.230350 0.750360 1.005094
Cr3   Cr    Cr6+3 0.769650 0.535970 0.750360 1.018776
Cr4   Cr    Cr6+3 0.233680 0.464030 0.249640 1.022327
Cr5   Cr    Cr6+3 0.230350 0.766320 0.249640 1.005546
Cr6   Cr    Cr6+3 0.535970 0.769650 0.249640 1.023944
H1    H     H_    0.151856 0.422738 0.452076 0.154240
H2    H     H_    0.545828 0.965136 0.553460 0.100002
H3    H     H_    0.446721 0.415071 0.549379 0.101909
H4    H     H_    0.027342 0.604049 0.562117 0.103363
H5    H     H_    0.076069 0.875949 0.022272 0.147767
H6    H     H_    0.199709 0.837016 0.056763 0.141806
H7    H     H_    0.217088 0.025393 0.126729 0.135684
H8    H     H_    0.038475 0.945743 0.139036 0.091778
H9    H     H_    0.122326 0.875740 0.183302 0.209843
H10   H     H_    0.139032 0.279311 0.992847 0.155212
H11   H     H_    0.172336 0.409068 0.056421 0.145743
H12   H     H_    0.715556 0.644771 0.420534 0.154121
H13   H     H_    0.062998 0.206334 0.150039 0.195503
H14   H     H_    0.947938 0.204984 0.083236 0.139793
H15   H     H_    0.022713 0.100662 0.072826 0.113439
H16   H     H_    0.688973 0.837080 0.998122 0.144926
H17   H     H_    0.575449 0.770212 0.069077 0.158752
H18   H     H_    0.809954 0.891590 0.147209 0.182403
H19   H     H_    0.766148 0.736003 0.101759 0.153024
H20   H     H_    0.881089 0.890788 0.060286 0.096594
H21   H     H_    0.875239 0.076075 0.978050 0.147770
H22   H     H_    0.837007 0.200340 0.943451 0.141293
H23   H     H_    0.347135 0.050890 0.428336 0.153601
H24   H     H_    0.025284 0.218268 0.873624 0.136346
H25   H     H_    0.946939 0.039506 0.861736 0.092022
H26   H     H_    0.876460 0.122361 0.816957 0.211465
H27   H     H_    0.278447 0.138005 0.007266 0.154943
H28   H     H_    0.408517 0.171534 0.943886 0.144500
H29   H     H_    0.205328 0.947113 0.916696 0.140243
H30   H     H_    0.100903 0.021707 0.927034 0.113395
H31   H     H_    0.207049 0.062918 0.849970 0.197012
H32   H     H_    0.836371 0.688142 0.001952 0.145096
H33   H     H_    0.770293 0.575013 0.930731 0.157473
H34   H     H_    0.421522 0.151537 0.547910 0.148102
H35   H     H_    0.891522 0.810352 0.852889 0.184000
H36   H     H_    0.736213 0.766370 0.898408 0.153966
H37   H     H_    0.890676 0.881181 0.939901 0.096321
H38   H     H_    0.959983 0.399807 0.053908 0.013397
H39   H     H_    0.598153 0.552232 0.053331 0.006751
H40   H     H_    0.439591 0.037866 0.052812 0.012899
H41   H     H_    0.400057 0.959421 0.946243 0.013193
H42   H     H_    0.552433 0.598371 0.946632 0.006644
H43   H     H_    0.037522 0.439302 0.947106 0.012789
H44   H     H_    0.758807 0.571535 0.537155 0.133880
H45   H     H_    0.050243 0.346963 0.571587 0.157069
H46   H     H_    0.962670 0.543738 0.446092 0.086764
H47   H     H_    0.430997 0.389384 0.433597 0.092299
H48   H     H_    0.604058 0.028675 0.437341 0.109600
O1    O     O_R   0.434100 0.092480 0.829780 -0.542400
O2    O     O_R   0.362730 0.477510 0.175360 -0.445662
O3    O     O_R   0.114780 0.637270 0.175360 -0.459593
O4    O     O_R   0.522490 0.885220 0.175360 -0.455987
O5    O     O_R   0.432250 0.092620 0.670380 -0.524567
O6    O     O_R   0.907380 0.339630 0.670380 -0.516808
O7    O     O_R   0.660370 0.567750 0.670380 -0.498923
O8    O     O_R   0.092620 0.432250 0.329620 -0.519644
O9    O     O_R   0.339630 0.907380 0.329620 -0.520348
O10   O     O_R   0.567750 0.660370 0.329620 -0.513998
O11   O     O_R   0.475790 0.362860 0.676880 -0.505050
O12   O     O_R   0.907520 0.341620 0.829780 -0.556848
O13   O     O_R   0.637140 0.112930 0.676880 -0.499240
O14   O     O_R   0.887070 0.524210 0.676880 -0.521132
O15   O     O_R   0.362860 0.475790 0.323120 -0.509132
O16   O     O_R   0.112930 0.637140 0.323120 -0.500130
O17   O     O_R   0.524210 0.887070 0.323120 -0.499942
O18   O     O_3   0.666667 0.333333 0.749450 -0.292032
O19   O     O_3   0.333333 0.666667 0.250550 -0.268819
O20   O     O_3   0.996015 0.701674 0.083426 -0.563437
O21   O     O_3   0.276495 0.308142 0.075101 -0.556319
O22   O     O_3   0.695705 0.979434 0.071105 -0.565021
O23   O     O_R   0.658380 0.565900 0.829780 -0.547597
O24   O     O_3   0.701871 0.996570 0.916575 -0.562126
O25   O     O_3   0.308317 0.276365 0.925044 -0.555516
O26   O     O_3   0.979074 0.695872 0.928990 -0.564727
O27   O     O_R   0.092480 0.434100 0.170220 -0.543449
O28   O     O_R   0.341620 0.907520 0.170220 -0.558979
O29   O     O_R   0.565900 0.658380 0.170220 -0.552661
O30   O     O_R   0.477510 0.362730 0.824640 -0.439908
O31   O     O_R   0.637270 0.114780 0.824640 -0.456514
O32   O     O_R   0.885220 0.522490 0.824640 -0.455090

loop_
_geom_bond_atom_site_label_1
_geom_bond_atom_site_label_2
_ccdc_geom_bond_type
Cr1   O11   S    
C37   H20   S    
C4    C8    S    
C1    O30   A    
C33   H11   S    
Cr1   O5    S    
C38   H22   S    
C44   O3    A    
C47   O13   A    
Cr6   O29   S    
C2    O10   A    
C43   H35   S    
C5    H4    S    
Cr2   O18   S    
Cr4   O27   S    
C36   C37   S    
C36   O22   S    
C1    O23   A    
C32   H7    S    
C38   C39   S    
Cr3   O32   S    
Cr1   O18   S    
C5    C17   D    
C21   H40   S    
C3    O8    A    
C41   H29   S    
C46   O7    A    
Cr2   O13   S    
C14   H23   S    
C31   H5    S    
C9    C13   D    
C38   O24   S    
C11   C17   S    
C28   O24   S    
C4    O17   A    
C18   C30   D    
C18   H43   S    
Cr4   O8    S    
C25   O20   S    
C23   O32   A    
C36   H17   S    
C42   O26   S    
C48   O14   A    
Cr4   O15   S    
Cr5   O9    S    
C7    C15   D    
C21   C27   D    
C45   O28   A    
Cr3   O7    S    
Cr6   O17   S    
Cr2   O6    S    
C6    H3    S    
C7    H2    S    
C20   H41   S    
C24   H38   S    
C5    C48   S    
C2    O15   A    
C36   H16   S    
C21   C45   S    
C13   H12   S    
C22   C34   S    
Cr1   O30   S    
C30   O26   S    
C1    C19   S    
C43   H36   S    
Cr6   O4    S    
C18   C23   S    
Cr3   O23   S    
C39   H24   S    
C40   H28   S    
C24   C25   D    
C32   H9    S    
C12   O1    A    
Cr5   O16   S    
C20   C28   D    
C44   O27   A    
C40   O25   S    
C34   O2    A    
Cr2   O12   S    
C39   H25   S    
C31   H6    S    
C3    O16   A    
Cr4   O19   S    
C31   C32   S    
C35   H13   S    
C12   C20   S    
Cr3   O18   S    
Cr6   O10   S    
C10   H46   S    
C17   H45   S    
C38   H21   S    
C42   H32   S    
C40   C41   S    
C4    O9    A    
C34   O29   A    
C47   O5    A    
C12   O31   A    
C29   O25   S    
C22   C26   D    
C24   C44   S    
C22   H39   S    
C13   C16   S    
C42   C43   S    
C19   C29   D    
C11   H1    S    
C45   O4    A    
C25   C30   S    
C37   H19   S    
Cr4   O2    S    
C8    C14   D    
C6    C46   S    
C46   O11   A    
C40   H27   S    
Cr6   O19   S    
C31   O20   S    
Cr2   O31   S    
Cr1   O1    S    
C27   O22   S    
Cr5   O28   S    
C41   H31   S    
Cr3   O14   S    
C39   H26   S    
C32   H8    S    
C3    C10   S    
Cr5   O19   S    
C23   O12   A    
C41   H30   S    
C16   H44   S    
C48   O6    A    
C35   H14   S    
C33   H10   S    
C33   C35   S    
C43   H37   S    
C10   C11   D    
C6    C16   D    
Cr5   O3    S    
C35   H15   S    
C26   C29   S    
C9    H47   S    
C26   O21   S    
C37   H18   S    
C27   C28   S    
C33   O21   S    
C14   C15   S    
C42   H33   S    
C2    C9    S    
C8    H48   S    
C19   H42   S    
C7    C47   S    
C15   H34   S    
