data_mof_unit_18483.cif
_audit_creation_date              2012-12-10T19:07:39-0500
_audit_creation_method            fapswitch 2.2
_symmetry_space_group_name_H-M    P1
_symmetry_Int_Tables_number       1
_space_group_crystal_system       triclinic
_cell_length_a                    10.881683
_cell_length_b                    10.869298
_cell_length_c                    9.604602
_cell_angle_alpha                 88.608281
_cell_angle_beta                  88.712436
_cell_angle_gamma                 93.83793
_cell_volume                      1132.78371272

loop_
_atom_site_label
_atom_site_type_symbol
_atom_type_description
_atom_site_fract_x
_atom_site_fract_y
_atom_site_fract_z
_atom_type_partial_charge
C1    C     C_R   0.502645 0.262390 0.501370 0.799236
C2    C     C_R   0.932577 0.516551 0.623121 0.070131
C3    C     C_3   0.913574 0.424866 0.741285 0.057036
C4    C     C_3   0.051971 0.420881 0.742163 -0.456012
C5    C     C_R   0.496909 0.057644 0.625472 0.080371
C6    C     C_R   0.515363 0.129635 0.503156 -0.130238
C7    C     C_R   0.551205 0.070779 0.380791 -0.210990
C8    C     C_R   0.549553 0.941899 0.377797 -0.168718
C9    C     C_R   0.510984 0.870796 0.496800 -0.080068
C10   C     C_R   0.488798 0.930966 0.619694 0.012396
C11   C     C_3   0.385230 0.913184 0.724929 -0.032355
C12   C     C_R   0.262234 0.501841 0.500939 0.813348
C13   C     C_3   0.398029 0.052816 0.737692 0.099681
C14   C     C_R   0.591915 0.563371 0.069297 0.158121
C15   C     C_R   0.415262 0.428199 0.079491 0.269498
C16   C     C_R   0.416773 0.427315 0.930905 0.289417
C17   C     C_R   0.592776 0.561886 0.922516 0.211122
C18   C     C_3   0.631215 0.695464 0.909116 -0.499945
C19   C     C_3   0.624094 0.699230 0.066961 0.046567
C20   C     C_R   0.502478 0.737378 0.498350 0.788795
C21   C     C_R   0.737532 0.503640 0.498637 0.802817
C22   C     C_R   0.059661 0.513724 0.624763 0.058249
C23   C     C_R   0.129230 0.513621 0.500651 -0.092871
C24   C     C_R   0.068728 0.529617 0.373944 -0.203090
C25   C     C_R   0.940475 0.529638 0.372232 -0.156535
C26   C     C_R   0.871149 0.516477 0.497303 -0.119905
Cu1   Cu    Cu3+1 0.499990 0.499980 0.640670 0.998465
Cu2   Cu    Cu3+1 0.500010 0.500020 0.359330 0.977212
H1    H     H_    0.119397 0.536143 0.275473 0.164064
H2    H     H_    0.406625 0.859786 0.820049 0.145815
H3    H     H_    0.315031 0.099623 0.706071 0.181775
H4    H     H_    0.725839 0.711482 0.863446 0.227115
H5    H     H_    0.561986 0.749496 0.858433 0.177149
H6    H     H_    0.547235 0.752263 0.106114 0.133297
H7    H     H_    0.895976 0.533658 0.273030 0.197015
H8    H     H_    0.863126 0.337166 0.711573 0.148100
H9    H     H_    0.094235 0.459083 0.837588 0.228658
H10   H     H_    0.081078 0.329681 0.709440 0.214867
H11   H     H_    0.576932 0.123644 0.286500 0.156963
H12   H     H_    0.574411 0.898695 0.282021 0.179537
N1    N     N_R   0.500790 0.500930 0.147930 -0.237782
N2    N     N_R   0.500790 0.500890 0.852020 -0.218006
O1    O     O_R   0.500000 0.319640 0.618810 -0.528261
O2    O     O_R   0.500010 0.319680 0.381230 -0.571379
O3    O     O_R   0.319650 0.499970 0.618810 -0.537468
O4    O     O_R   0.319660 0.500010 0.381230 -0.568746
O5    O     O_R   0.499990 0.680320 0.618770 -0.593270
O6    O     O_R   0.500000 0.680360 0.381190 -0.576832
O7    O     O_R   0.680340 0.499990 0.618770 -0.565424
O8    O     O_R   0.680350 0.500030 0.381190 -0.564452
N3    N     N_2   0.441723 0.088711 0.874600 -0.393289
H13   H     H_    0.380929 0.059022 0.954158 0.256148
C27   C     C_3   0.569709 0.077068 0.909044 -0.647559
H14   H     H_    0.585669 0.109458 0.016230 0.206754
H15   H     H_    0.631374 0.135477 0.837001 0.240968
H16   H     H_    0.593048 0.979398 0.904374 0.217868
N4    N     N_2   0.317393 0.363213 0.156920 -0.367746
H17   H     H_    0.230905 0.388089 0.130676 0.238701
C28   C     C_3   0.324278 0.231279 0.175801 -0.568194
H18   H     H_    0.256508 0.181211 0.109273 0.216261
H19   H     H_    0.300498 0.204508 0.285809 0.221374
H20   H     H_    0.417868 0.202530 0.150095 0.221016
Br1   Br    Br    0.300111 0.319490 0.844354 -0.616170
Br2   Br    Br    0.782154 0.742759 0.147870 -0.588520
N5    N     N_2   0.863716 0.477776 0.866062 -0.389382
H21   H     H_    0.904543 0.562476 0.891620 0.275614
C29   C     C_3   0.846367 0.392091 0.983598 -0.659975
H22   H     H_    0.803519 0.437982 0.072354 0.234056
H23   H     H_    0.936383 0.360245 0.016759 0.225786
H24   H     H_    0.784276 0.311502 0.955967 0.227364
N6    N     N_2   0.269478 0.870831 0.663612 -0.421335
H25   H     H_    0.274916 0.792066 0.606760 0.263268
C30   C     C_3   0.164756 0.861291 0.759631 -0.665478
H26   H     H_    0.079716 0.836256 0.702004 0.236464
H27   H     H_    0.153582 0.950756 0.810347 0.239075
H28   H     H_    0.176768 0.788533 0.840594 0.222463

loop_
_geom_bond_atom_site_label_1
_geom_bond_atom_site_label_2
_ccdc_geom_bond_type
C21   C26   S    
C30   H27   S    
C30   H26   S    
C21   O7    A    
C7    C8    A    
C27   H14   S    
C12   C23   S    
Cu2   O4    S    
C5    C6    A    
C11   N6    S    
N4    C28   S    
C15   C16   A    
Cu2   N1    S    
N3    H13   S    
C18   C19   S    
C17   N2    A    
C9    C20   S    
C13   N3    S    
Cu2   O8    S    
C1    O1    A    
C11   H2    S    
C8    C9    A    
N5    C29   S    
C2    C22   A    
C23   C24   A    
C16   Br1   S    
C9    C10   A    
C5    C13   S    
Cu1   O3    S    
C28   H18   S    
C15   N4    S    
C14   C17   A    
C3    N5    S    
C21   O8    A    
C27   H15   S    
C28   H19   S    
C29   H22   S    
C24   C25   A    
C15   N1    A    
C12   O4    A    
N6    C30   S    
C25   C26   A    
Cu2   O2    S    
C1    C6    S    
C29   H23   S    
C4    C22   S    
C1    O2    A    
C19   Br2   S    
C17   C18   S    
C2    C26   A    
C24   H1    S    
C20   O6    A    
C25   H7    S    
C14   N1    A    
C4    H10   S    
C30   H28   S    
C18   H4    S    
C3    C4    S    
C16   N2    A    
C27   H16   S    
Cu1   O5    S    
Cu2   O6    S    
C28   H20   S    
C14   C19   S    
C13   H3    S    
C12   O3    A    
C19   H6    S    
C6    C7    A    
C29   H24   S    
C2    C3    S    
N6    H25   S    
C11   C13   S    
Cu1   N2    S    
N4    H17   S    
C3    H8    S    
C18   H5    S    
C20   O5    A    
C10   C11   S    
Cu1   O1    S    
C5    C10   A    
C4    H9    S    
N5    H21   S    
Cu1   Cu2   S    
C7    H11   S    
C22   C23   A    
C8    H12   S    
N3    C27   S    
Cu1   O7    S    
