data_mof_unit_50309.cif
_audit_creation_date              2013-03-05T15:55:24-0500
_audit_creation_method            fapswitch 2.2
_symmetry_space_group_name_H-M    P1
_symmetry_Int_Tables_number       1
_space_group_crystal_system       triclinic
_cell_length_a                    8.758963
_cell_length_b                    16.902727
_cell_length_c                    19.028265
_cell_angle_alpha                 99.526055
_cell_angle_beta                  94.126238
_cell_angle_gamma                 94.778351
_cell_volume                      2758.0816534

loop_
_atom_site_label
_atom_site_type_symbol
_atom_site_description
_atom_site_fract_x
_atom_site_fract_y
_atom_site_fract_z
_atom_type_partial_charge
P1    P     P_3+3 0.048660 0.430750 0.339650 0.504005
O1    O     O_2   0.875590 0.454550 0.328720 -0.386648
O2    O     O_3   0.127960 0.455900 0.416100 -0.317204
O3    O     O_3   0.634460 0.601950 0.371690 -0.385622
O4    O     O_2   0.749015 0.536422 0.254441 -0.318065
O5    O     O_3   0.000359 0.326049 0.328682 -0.576128
O6    O     O_3   0.590930 0.646754 0.229493 -0.512161
H1    H     H_    0.569761 0.733430 0.316750 0.144514
C1    C     C_3   0.525113 0.778713 0.217324 -0.007392
H2    H     H_    0.647093 0.787641 0.206365 0.159039
P2    P     P_3+3 0.638170 0.686040 0.555200 0.609583
P3    P     P_3+3 0.082852 0.750336 0.412743 0.620931
O7    O     O_2   0.810360 0.697790 0.534100 -0.305206
O8    O     O_3   0.049190 0.643760 0.407000 -0.340026
O9    O     O_2   0.961873 0.787168 0.459898 -0.272881
O10   O     O_3   0.697866 0.706921 0.649651 -0.595682
O11   O     O_3   0.044380 0.784587 0.332072 -0.543097
C2    C     C_3   0.968258 0.723975 0.279047 0.302974
H3    H     H_    0.847261 0.712738 0.290795 0.113080
H4    H     H_    0.024609 0.667202 0.275378 0.125341
C3    C     C_3   0.974838 0.755974 0.208461 -0.040732
H5    H     H_    0.907482 0.808803 0.209508 0.129895
C4    C     C_3   0.088977 0.716171 0.729516 -0.017320
H6    H     H_    0.973720 0.682727 0.726353 0.082276
C5    C     C_3   0.170841 0.728112 0.806421 0.020775
H7    H     H_    0.114610 0.685268 0.836940 0.109725
H8    H     H_    0.288819 0.714662 0.799771 0.218521
Ba1   Ba    Ba6+2 0.843980 0.537940 0.465850 1.768842
C6    C     C_3   0.115420 0.278982 0.301163 0.201003
H9    H     H_    0.228660 0.314677 0.303911 0.051689
C7    C     C_3   0.064275 0.236856 0.222545 -0.573271
H10   H     H_    0.937535 0.221409 0.217998 0.181849
C8    C     C_3   0.581274 0.718610 0.697553 0.659460
H11   H     H_    0.495063 0.667131 0.686841 0.139666
C9    C     C_3   0.508683 0.798688 0.697125 -0.688221
H12   H     H_    0.405187 0.796806 0.726713 0.233931
H13   H     H_    0.468465 0.805576 0.642508 0.190785
P4    P     P_3+3 0.141040 0.569320 0.660360 0.614779
O12   O     O_2   0.314110 0.545480 0.671320 -0.285922
O13   O     O_3   0.061730 0.544170 0.583900 -0.351504
O14   O     O_3   0.555240 0.398120 0.628310 -0.379088
O15   O     O_3   0.178739 0.675672 0.678897 -0.492857
P5    P     P_3+3 0.092501 0.247857 0.570442 0.571395
O16   O     O_3   0.629280 0.402460 0.464250 -0.349558
O17   O     O_3   0.140510 0.356300 0.593010 -0.345239
O18   O     O_2   0.182895 0.223342 0.505682 -0.374351
O19   O     O_3   0.175069 0.183881 0.625287 -0.537881
Ba2   Ba    Ba6+2 0.345840 0.462130 0.534150 1.733485
P6    P     P_3+3 0.596618 0.566827 0.278102 0.544556
C10   C     C_3   0.511820 0.709882 0.262372 0.100787
O20   O     O_3   0.560420 0.597610 0.535760 -0.321921
C11   C     C_3   0.612316 0.312649 0.306485 0.176319
H14   H     H_    0.620564 0.379479 0.315749 0.128188
H15   H     H_    0.721639 0.290459 0.324693 0.139944
C12   C     C_3   0.576331 0.280506 0.226753 -0.675161
H16   H     H_    0.462158 0.297584 0.209172 0.210254
H17   H     H_    0.573120 0.213707 0.217325 0.272494
P7    P     P_3+3 0.541459 0.302958 0.433945 0.466133
O21   O     O_2   0.379340 0.302240 0.465940 -0.344884
O22   O     O_3   0.490688 0.284230 0.341987 -0.581764
H18   H     H_    0.095301 0.777562 0.202979 0.146873
C13   C     C_3   0.181456 0.213218 0.699533 0.088635
H19   H     H_    0.286052 0.254700 0.715608 0.037859
H20   H     H_    0.093359 0.251941 0.713097 0.197300
C14   C     C_3   0.182395 0.144353 0.746108 0.416563
P8    P     P_3+3 0.585152 0.418522 0.722000 0.590698
C15   C     C_3   0.610383 0.262012 0.719867 0.725807
O23   O     O_2   0.451261 0.465421 0.745994 -0.316493
O24   O     O_3   0.545806 0.329752 0.755691 -0.556094
H21   H     H_    0.617949 0.139176 0.743363 0.263539
C16   C     C_3   0.607774 0.201149 0.771393 -0.557348
H22   H     H_    0.502748 0.202589 0.799377 0.217778
H23   H     H_    0.701665 0.217055 0.815155 0.308386
N1    N     N_R   0.124448 0.560748 0.976636 -0.007661
N2    N     N_R   0.173930 0.558019 0.044424 0.018517
C17   C     C_2   0.311440 0.487408 0.294114 -0.351622
C18   C     C_3   0.434836 0.485015 0.242343 0.010930
C19   C     C_2   0.370106 0.487672 0.165220 0.299271
C20   C     C_2   0.215156 0.485798 0.148154 -0.172663
C21   C     C_2   0.108909 0.477171 0.206232 -0.231242
C22   C     C_1   0.163855 0.469553 0.271789 0.181409
N3    N     N_R   0.081305 0.422421 0.028346 0.000966
N4    N     N_R   0.033790 0.424829 0.960221 0.023561
C23   C     C_R   0.052086 0.494309 0.932705 0.194550
C24   C     C_R   0.151176 0.489271 0.072479 0.331161
C25   C     C_R   0.088259 0.523055 0.805053 -0.362259
C26   C     C_R   0.028315 0.527665 0.732701 0.155831
C27   C     C_R   0.774215 0.474091 0.762241 0.168358
C28   C     C_R   0.830419 0.475748 0.834625 0.457307
C29   C     C_R   0.989216 0.498296 0.856244 -0.201840
C30   C     C_R   0.869451 0.505616 0.714990 -0.406740
H24   H     H_    0.985715 0.470124 0.192633 0.218163
H25   H     H_    0.349130 0.499310 0.350774 0.198712
C31   C     C_R   0.373304 0.744230 0.489845 0.161715
C32   C     C_R   0.530217 0.766077 0.513337 -0.100690
C33   C     C_R   0.586320 0.848942 0.511352 0.311257
C34   C     C_R   0.490292 0.900149 0.477434 0.120978
C35   C     C_R   0.341234 0.869279 0.448608 -0.303131
C36   C     C_R   0.282025 0.791736 0.453878 0.253801
C37   C     C_R   0.606216 0.146482 0.456952 -0.224512
C38   C     C_R   0.656223 0.229267 0.467403 0.192709
C39   C     C_R   0.705127 0.092002 0.479628 0.257397
N5    N     N_2   0.527969 0.985827 0.480471 0.004973
N6    N     N_2   0.663282 0.006619 0.468930 0.040047
C40   C     C_R   0.801118 0.258341 0.501837 -0.301303
H26   H     H_    0.493716 0.124729 0.430087 0.154447
H27   H     H_    0.267760 0.907791 0.424655 0.207660
C41   C     C_R   0.899080 0.206412 0.526109 0.350946
C42   C     C_R   0.853437 0.122820 0.512022 -0.106138
H28   H     H_    0.933139 0.081756 0.526735 0.206847
H29   H     H_    0.839661 0.321859 0.508905 0.189525
S1    S     S_3+6 0.196673 0.826514 0.863043 0.006746
O25   O     O_2   0.046780 0.859639 0.878904 -0.267901
O26   O     O_2   0.281751 0.817863 0.932408 -0.174443
O27   O     O_3   0.302422 0.892115 0.824459 -0.483113
H30   H     H_    0.326686 0.940577 0.861953 0.416421
C43   C     C_2   0.131545 0.215600 0.347626 0.655490
H31   H     H_    0.243622 0.196868 0.361122 0.053326
O28   O     O_2   0.017559 0.180261 0.365818 -0.611212
C44   C     C_2   0.134824 0.158890 0.200535 0.548177
H32   H     H_    0.060788 0.103465 0.182207 0.084487
O29   O     O_2   0.274109 0.157214 0.202740 -0.564376
C45   C     C_2   0.102673 0.290384 0.169557 0.648626
H33   H     H_    0.217608 0.320136 0.171586 -0.029876
O30   O     O_2   0.007118 0.298547 0.122094 -0.530855
S2    S     S_3+6 0.649284 0.710166 0.787689 -0.047458
O31   O     O_2   0.547839 0.749368 0.840679 -0.218212
O32   O     O_2   0.647520 0.622846 0.793496 -0.310843
O33   O     O_3   0.826391 0.754166 0.811518 -0.588290
H34   H     H_    0.857388 0.734282 0.856077 0.408854
C46   C     C_2   0.612162 0.872298 0.731469 0.900711
H35   H     H_    0.727189 0.867847 0.754298 0.041439
O34   O     O_2   0.566341 0.938791 0.734464 -0.468253
C47   C     C_2   0.347844 0.679921 0.268417 0.498171
H36   H     H_    0.266374 0.663444 0.221673 -0.012853
O35   O     O_2   0.309288 0.667167 0.325917 -0.618283
S3    S     S_3+6 0.486275 0.873906 0.265084 -0.064154
O36   O     O_2   0.595636 0.895767 0.331212 -0.298084
O37   O     O_2   0.510942 0.936706 0.218470 -0.231719
O38   O     O_3   0.304083 0.870082 0.287092 -0.567626
H37   H     H_    0.280322 0.926951 0.296477 0.379911
C48   C     C_2   0.692247 0.313268 0.182567 0.661617
H38   H     H_    0.786936 0.356719 0.207038 0.058757
O39   O     O_2   0.679577 0.291435 0.117822 -0.448865
C49   C     C_2   0.428816 0.760698 0.146383 0.751175
H39   H     H_    0.305381 0.748427 0.144005 -0.025941
O40   O     O_2   0.488167 0.762685 0.090541 -0.451308
S4    S     S_3+6 0.196646 0.190460 0.840469 0.035696
O41   O     O_2   0.040733 0.207241 0.864080 -0.180479
O42   O     O_2   0.295050 0.269549 0.852865 -0.242962
O43   O     O_3   0.273767 0.130377 0.892812 -0.433149
H40   H     H_    0.189201 0.089123 0.896823 0.369117
S5    S     S_3+6 0.017737 0.071003 0.727795 0.073365
O44   O     O_2   0.878805 0.100822 0.761097 -0.209287
O45   O     O_2   0.983173 0.048212 0.648455 -0.198997
O46   O     O_3   0.058591 0.987956 0.760548 -0.517523
H41   H     H_    0.013965 0.992687 0.807264 0.375186
C50   C     C_2   0.312738 0.093861 0.728259 0.503758
H42   H     H_    0.346438 0.083335 0.674128 0.107060
O47   O     O_2   0.371450 0.057280 0.771652 -0.454524
S6    S     S_3+6 0.806033 0.278566 0.703998 -0.075322
O48   O     O_2   0.848507 0.197913 0.670559 -0.272619
O49   O     O_2   0.832868 0.335499 0.652782 -0.392895
O50   O     O_3   0.910114 0.312369 0.782640 -0.525311
H43   H     H_    0.990944 0.352356 0.772513 0.337237
C51   C     C_2   0.520904 0.227393 0.648821 0.368775
H44   H     H_    0.441347 0.262282 0.624085 0.118268
O51   O     O_2   0.541848 0.161139 0.616377 -0.557679
S7    S     S_3+6 0.496713 0.481227 0.096108 0.046759
O52   O     O_2   0.506300 0.559294 0.068075 -0.154133
O53   O     O_2   0.654732 0.465551 0.122712 -0.252171
O54   O     O_3   0.428603 0.406400 0.028694 -0.440284
H45   H     H_    0.413758 0.357927 0.051345 0.364379
C52   C     C_2   0.252486 0.541288 0.831164 0.744262
H46   H     H_    0.299130 0.513387 0.873996 0.090904
O55   O     O_2   0.338094 0.588809 0.808063 -0.525096
S8    S     S_3+6 0.706139 0.451395 0.900069 0.106702
O56   O     O_2   0.539795 0.454652 0.878252 -0.184336
O57   O     O_2   0.727833 0.367763 0.913728 -0.211916
O58   O     O_3   0.751049 0.518518 0.976041 -0.409325
H47   H     H_    0.786559 0.486956 0.012342 0.402140
C53   C     C_2   0.795862 0.516601 0.645968 0.718180
H48   H     H_    0.719687 0.563130 0.644382 0.008537
O59   O     O_2   0.807119 0.468071 0.592087 -0.507166
S9    S     S_3+6 0.750959 0.898309 0.564813 0.033699
O60   O     O_2   0.873004 0.922746 0.518974 -0.230524
O61   O     O_2   0.701630 0.972945 0.608475 -0.240037
O62   O     O_3   0.828011 0.844515 0.620754 -0.514031
H49   H     H_    0.880753 0.887283 0.658306 0.379510
S10   S     S_3+6 0.273431 0.668714 0.522773 0.038296
O63   O     O_2   0.261802 0.593196 0.468629 -0.249410
O64   O     O_2   0.349653 0.653281 0.588797 -0.298046
O65   O     O_3   0.106679 0.699545 0.546321 -0.464559
H50   H     H_    0.037326 0.650840 0.532003 0.411731
S11   S     S_3+6 0.911210 0.682802 0.130821 0.017858
O66   O     O_2   0.935003 0.599733 0.144376 -0.275117
O67   O     O_2   0.744216 0.686104 0.109789 -0.148751
O68   O     O_3   0.012544 0.703031 0.063131 -0.486864
H51   H     H_    0.987989 0.757423 0.055887 0.374537
C54   C     C_2   0.067868 0.796725 0.710074 0.884216
H52   H     H_    0.992635 0.834235 0.739921 0.029126
O69   O     O_2   0.138597 0.822336 0.664156 -0.498207

loop_
_geom_bond_atom_site_label_1
_geom_bond_atom_site_label_2
_geom_bond_distance
_ccdc_geom_bond_type
P8    O23   1.524578 D    
C12   H16   1.107811 S    
S10   O63   1.493010 D    
C26   C30   1.411829 A    
C2    C3    1.531733 S    
S7    O52   1.501246 D    
C32   C33   1.452668 A    
S4    O43   1.682842 S    
C14   C50   1.506428 S    
O19   C13   1.413168 S    
S1    O26   1.503090 D    
S6    O48   1.494375 D    
C45   H33   1.082349 S    
C18   C19   1.543828 S    
C44   H32   1.085310 S    
O65   H50   0.969327 S    
S3    O37   1.503725 D    
S2    O31   1.500390 D    
C4    O15   1.412404 S    
C31   C36   1.400886 A    
O50   H43   0.989048 S    
C9    H13   1.100857 S    
S4    O42   1.503343 D    
P4    O15   1.771850 S    
P1    O2    1.542744 S    
C43   O28   1.221576 D    
P8    C27   1.879150 S    
P4    O12   1.608712 D    
C17   H25   1.085248 S    
Ba1   O20   3.066643 S    
C45   O30   1.219396 D    
P8    O24   1.745049 S    
Ba1   O13   2.822455 S    
P1    C22   1.863651 S    
O27   H30   0.990398 S    
O2    Ba2   2.823156 S    
C41   C42   1.411796 A    
P1    O1    1.608416 D    
C1    C49   1.511169 S    
C52   H46   1.079343 S    
C8    S2    1.806961 S    
P3    C36   1.888013 S    
C13   H20   1.071130 S    
C11   O22   1.395622 S    
S10   O65   1.658116 S    
S6    O49   1.495576 D    
C53   H48   1.075638 S    
C1    S3    1.783891 S    
C50   O47   1.220406 D    
Ba2   O20   2.833533 S    
Ba1   Ba2   4.775377 S    
C9    H12   1.101966 S    
C11   H15   1.110282 S    
C54   H52   1.078437 S    
S8    O57   1.503729 D    
P3    O11   1.748496 S    
P1    Ba1   3.461775 S    
C14   S5    1.795931 S    
C4    H6    1.107817 S    
P3    O9    1.541886 D    
O7    Ba1   2.846003 S    
O68   H51   0.990505 S    
C28   S8    1.787526 S    
S5    O45   1.497181 D    
C1    H2    1.106076 S    
P4    Ba2   3.462539 S    
C5    S1    1.813166 S    
C11   C12   1.525172 S    
S11   O68   1.680317 S    
C40   H29   1.081670 S    
C12   C48   1.492542 S    
C3    H5    1.108780 S    
C51   O51   1.220899 D    
S7    O53   1.498939 D    
O4    P6    1.540389 D    
C23   C29   1.532286 S    
C33   S9    1.765820 S    
S1    O25   1.500615 D    
C49   O40   1.220183 D    
C44   O29   1.220548 D    
C34   C35   1.402289 A    
P7    O22   1.743832 S    
C53   O59   1.217957 D    
C38   C40   1.396910 A    
C40   C41   1.386575 A    
N1    N2    1.340285 A    
C15   C16   1.534037 S    
P1    O5    1.759207 S    
P2    O20   1.563941 S    
C17   C18   1.512474 S    
O6    P6    1.761062 S    
C25   C29   1.439641 A    
O16   P7    1.775525 S    
C16   H23   1.110193 S    
C25   C26   1.454455 A    
C2    H3    1.106282 S    
S9    O62   1.653648 S    
C47   O35   1.215208 D    
S2    O33   1.661359 S    
P7    O21   1.584668 D    
C6    C43   1.506679 S    
C4    C54   1.491246 S    
Ba1   O16   2.834189 S    
C19   S7    1.775854 S    
C35   H27   1.082330 S    
S11   O66   1.497428 D    
P6    C18   1.899103 S    
O62   H49   0.986147 S    
C25   C52   1.477704 S    
C21   H24   1.083375 S    
C31   S10   1.716002 S    
C6    H9    1.110387 S    
O10   C8    1.421513 S    
P2    O10   1.803365 S    
C15   S6    1.768829 S    
N4    C23   1.365020 A    
C27   C30   1.407330 A    
O43   H40   0.990152 S    
S8    O58   1.683074 S    
C33   C34   1.449549 A    
C13   H19   1.098259 S    
C37   C39   1.412566 A    
O11   C2    1.399796 S    
P7    C38   1.829269 S    
C34   N5    1.448955 S    
C11   H14   1.109491 S    
C3    S11   1.784598 S    
C14   S4    1.826275 S    
C39   N6    1.436152 S    
P5    O17   1.818273 S    
H21   C16   1.107766 S    
C15   C51   1.514441 S    
P3    O8    1.784868 S    
C35   C36   1.390926 A    
N3    N4    1.340861 A    
C12   H17   1.111196 S    
C10   C47   1.501471 S    
C51   H44   1.080744 S    
S7    O54   1.681728 S    
C48   O39   1.220363 D    
O2    Ba1   3.079790 S    
C46   H35   1.081622 S    
C28   C29   1.423566 A    
H1    C10   1.114035 S    
C49   H39   1.080032 S    
C20   C24   1.519303 S    
S6    O50   1.682475 S    
O54   H45   0.990553 S    
Ba2   O21   2.846139 S    
N2    C24   1.362747 A    
O33   H34   0.990934 S    
O17   Ba2   2.847070 S    
P2    C32   1.954533 S    
O13   Ba2   3.080779 S    
O46   H41   0.990485 S    
S2    O32   1.497085 D    
C13   C14   1.575569 S    
C19   C20   1.369113 D    
C3    H18   1.105279 S    
S10   O64   1.452203 D    
C7    H10   1.112841 S    
C1    C10   1.556859 S    
O6    C10   1.405240 S    
N1    C23   1.362389 A    
C21   C22   1.334696 D    
C46   O34   1.218504 D    
C17   C22   1.325193 D    
O14   P8    1.754995 S    
C5    H8    1.088105 S    
N3    C24   1.361351 A    
S3    O36   1.500366 D    
O3    P6    1.779320 S    
C47   H36   1.082349 S    
C37   H26   1.082787 S    
P4    C26   1.940619 S    
O8    Ba1   2.846222 S    
C5    H7    1.106891 S    
C9    C46   1.501456 S    
C7    C45   1.499466 S    
C16   H22   1.095587 S    
C6    C7    1.563141 S    
C42   H28   1.079087 S    
P4    O13   1.542939 S    
P2    O7    1.593412 D    
S9    O60   1.501324 D    
C50   H42   1.082389 S    
P2    Ba1   3.491549 S    
O38   H37   0.990471 S    
S3    O38   1.677529 S    
S5    O46   1.681679 S    
C37   C38   1.408080 A    
C8    C9    1.543603 S    
O14   Ba2   2.871262 S    
C8    H11   1.085618 S    
C2    H4    1.109537 S    
P5    C41   1.863753 S    
C4    C5    1.556737 S    
C31   C32   1.413349 A    
P5    O18   1.530717 D    
C52   O55   1.210217 D    
C7    C44   1.511349 S    
S9    O61   1.504667 D    
C20   C21   1.512389 S    
O5    C6    1.412246 S    
C27   C28   1.423927 A    
C54   O69   1.221900 D    
S8    O56   1.494019 D    
O3    Ba1   2.871921 S    
C30   C53   1.467566 S    
N5    N6    1.253011 D    
C48   H38   1.083440 S    
C39   C42   1.415829 A    
O1    Ba1   2.797089 S    
C15   O24   1.414443 S    
S5    O44   1.497963 D    
C43   H31   1.082735 S    
P5    O19   1.782348 S    
S4    O41   1.502629 D    
S1    O27   1.680090 S    
O58   H47   0.988503 S    
O16   Ba2   3.065648 S    
O12   Ba2   2.797718 S    
S11   O67   1.496504 D    
