data_mof_unit_39038.cif
_audit_creation_date              2012-10-26T20:33:16-0400
_audit_creation_method            fapswitch 2.2
_symmetry_space_group_name_H-M    P1
_symmetry_Int_Tables_number       1
_space_group_crystal_system       triclinic
_cell_length_a                    17.718339
_cell_length_b                    10.796591
_cell_length_c                    9.58086
_cell_angle_alpha                 90.620098
_cell_angle_beta                  90.341614
_cell_angle_gamma                 91.597758
_cell_volume                      1831.94024365

loop_
_atom_site_label
_atom_site_type_symbol
_atom_type_description
_atom_site_fract_x
_atom_site_fract_y
_atom_site_fract_z
_atom_type_partial_charge
C1    C     C_R   0.502100 0.262518 0.499875 0.564285
C2    C     C_R   0.114448 0.492841 0.502202 0.022677
C3    C     C_R   0.493555 0.064505 0.623837 0.006459
C4    C     C_R   0.355606 0.500029 0.499872 0.571735
C5    C     C_R   0.510115 0.129692 0.502252 0.011004
C6    C     C_R   0.539436 0.065164 0.387664 -0.116558
C7    C     C_R   0.538345 0.935697 0.387174 -0.140703
C8    C     C_R   0.510035 0.871056 0.503221 0.008842
C9    C     C_R   0.493784 0.937253 0.624495 0.009568
C10   C     C_3   0.426551 0.928390 0.717497 -0.247314
C11   C     C_3   0.426379 0.069096 0.716996 -0.243663
C12   C     C_R   0.885470 0.491638 0.499252 0.036980
C13   C     C_R   0.531752 0.597195 0.075252 0.123016
C14   C     C_R   0.458682 0.411951 0.068707 0.346765
C15   C     C_R   0.460490 0.413467 0.920893 0.029607
C16   C     C_R   0.501909 0.737605 0.500674 0.540426
C17   C     C_R   0.531620 0.597187 0.928334 0.143810
C18   C     C_3   0.611437 0.643779 0.923640 -0.265246
C19   C     C_3   0.611709 0.643390 0.082162 -0.271931
C20   C     C_R   0.644446 0.498989 0.500216 0.531734
C21   C     C_R   0.847016 0.497286 0.625935 -0.088847
C22   C     C_R   0.768373 0.499104 0.626557 -0.129091
C23   C     C_1   0.966019 0.491333 0.498748 0.032974
C24   C     C_R   0.727531 0.495865 0.500262 0.012862
C25   C     C_R   0.766945 0.488684 0.373548 -0.124933
C26   C     C_R   0.845544 0.486895 0.373153 -0.112858
C27   C     C_1   0.033677 0.491713 0.499466 0.065815
C28   C     C_R   0.154519 0.487394 0.629275 0.283256
C29   C     C_R   0.233418 0.490158 0.627120 -0.104413
C30   C     C_R   0.272560 0.497958 0.500196 -0.038323
C31   C     C_R   0.231790 0.502841 0.374458 -0.108261
C32   C     C_R   0.153187 0.500426 0.375704 -0.150711
Cu1   Cu    Cu3+1 0.500000 0.499980 0.640670 0.950896
Cu2   Cu    Cu3+1 0.500000 0.500020 0.359330 1.032686
H1    H     H_    0.877807 0.500449 0.724055 0.159763
H2    H     H_    0.650181 0.574388 0.126181 0.143818
H3    H     H_    0.739828 0.502916 0.725739 0.119748
H4    H     H_    0.617193 0.737709 0.129238 0.126623
H5    H     H_    0.737276 0.483867 0.274683 0.120720
H6    H     H_    0.875130 0.481894 0.274667 0.125878
H7    H     H_    0.264353 0.485903 0.724617 0.191512
H8    H     H_    0.260520 0.508724 0.275180 0.186377
H9    H     H_    0.122494 0.504685 0.277777 0.134772
H10   H     H_    0.560775 0.114012 0.297542 0.175512
H11   H     H_    0.346108 0.204865 0.307884 0.357785
H12   H     H_    0.557085 0.886756 0.295046 0.132943
H13   H     H_    0.138748 0.460876 0.008671 0.368067
H14   H     H_    0.376395 0.884270 0.664826 0.150939
H15   H     H_    0.440754 0.889787 0.821207 0.161368
H16   H     H_    0.376088 0.107120 0.664285 0.154383
H17   H     H_    0.440601 0.111245 0.820499 0.191315
H18   H     H_    0.431366 0.342292 0.859474 0.165579
H19   H     H_    0.649791 0.575063 0.877937 0.145113
H20   H     H_    0.616413 0.738313 0.879191 0.136705
N1    N     N_R   0.500470 0.500930 0.147930 -0.254908
N2    N     N_R   0.500480 0.500890 0.852020 -0.274293
O1    O     O_R   0.500000 0.319640 0.618810 -0.517361
O2    O     O_2   0.458712 0.172928 0.133009 -0.341135
O3    O     O_3   0.364035 0.290236 0.286441 -0.490608
O4    O     O_2   0.060291 0.589528 0.811124 -0.282660
O5    O     O_2   0.056797 0.363107 0.790621 -0.272345
O6    O     O_3   0.169923 0.469309 0.923656 -0.515626
O7    O     O_R   0.500010 0.319680 0.381230 -0.427157
O8    O     O_R   0.391250 0.499990 0.618840 -0.513171
O9    O     O_R   0.391260 0.500020 0.381250 -0.436279
O10   O     O_R   0.499990 0.680320 0.618770 -0.498291
O11   O     O_R   0.500000 0.680360 0.381190 -0.509301
O12   O     O_R   0.608740 0.499980 0.618750 -0.506983
O13   O     O_R   0.608750 0.500010 0.381160 -0.519283
O14   O     O_2   0.344376 0.247871 0.027018 -0.300333
S1    S     S_3+6 0.406138 0.279490 0.130893 0.016533
S2    S     S_3+6 0.107435 0.477155 0.791341 0.011738

loop_
_geom_bond_atom_site_label_1
_geom_bond_atom_site_label_2
_ccdc_geom_bond_type
Cu2   O11   S    
Cu1   O1    S    
C6    C7    A    
C3    C9    A    
C19   H4    S    
C23   C27   T    
C9    C10   S    
C4    O8    A    
C31   C32   A    
C17   N2    A    
C13   C17   A    
C2    C27   S    
C15   N2    A    
H13   O6    S    
C15   H18   S    
C14   N1    A    
O6    S2    S    
C7    C8    A    
C8    C16   S    
C11   H16   S    
C28   S2    S    
C21   C22   A    
C25   H5    S    
C10   H15   S    
C12   C23   S    
C26   H6    S    
C29   C30   A    
C16   O10   A    
Cu1   N2    S    
Cu1   O8    S    
C1    C5    S    
C5    C6    A    
C1    O7    A    
O5    S2    D    
C2    C32   A    
Cu2   O7    S    
C31   H8    S    
C32   H9    S    
Cu1   O10   S    
Cu1   Cu2   S    
C1    O1    A    
C19   H2    S    
C10   H14   S    
C30   C31   A    
C20   O13   A    
C22   C24   A    
O2    S1    D    
C21   H1    S    
C3    C11   S    
C10   C11   S    
C18   H20   S    
C28   C29   A    
C7    H12   S    
C3    C5    A    
Cu2   N1    S    
O14   S1    D    
C11   H17   S    
C24   C25   A    
C6    H10   S    
C17   C18   S    
C18   C19   S    
C14   S1    S    
O3    S1    S    
C16   O11   A    
O4    S2    D    
C4    O9    A    
H11   O3    S    
C13   C19   S    
C2    C28   A    
C18   H19   S    
C29   H7    S    
C25   C26   A    
C14   C15   A    
C22   H3    S    
Cu2   O13   S    
C12   C21   A    
C20   O12   A    
C4    C30   S    
C20   C24   S    
Cu1   O12   S    
C12   C26   A    
C8    C9    A    
C13   N1    A    
Cu2   O9    S    
