data_mof_unit_37215.cif
_audit_creation_date              2013-03-05T16:00:50-0500
_audit_creation_method            fapswitch 2.2
_symmetry_space_group_name_H-M    P1
_symmetry_Int_Tables_number       1
_space_group_crystal_system       triclinic
_cell_length_a                    21.220207
_cell_length_b                    21.242175
_cell_length_c                    13.989987
_cell_angle_alpha                 89.875778
_cell_angle_beta                  89.973713
_cell_angle_gamma                 90.025359
_cell_volume                      6306.1573099

loop_
_atom_site_label
_atom_site_type_symbol
_atom_site_description
_atom_site_fract_x
_atom_site_fract_y
_atom_site_fract_z
_atom_type_partial_charge
O1    O     O_R   0.066090 0.433930 0.580280 -0.626954
O2    O     O_R   0.933910 0.566070 0.419720 -0.626951
O3    O     O_R   0.933910 0.566070 0.580280 -0.626426
O4    O     O_R   0.066090 0.433930 0.419720 -0.626437
O5    O     O_R   0.933910 0.433930 0.419720 -0.630237
O6    O     O_R   0.066090 0.566070 0.580280 -0.630248
O7    O     O_R   0.066090 0.566070 0.419720 -0.629041
O8    O     O_R   0.933910 0.433930 0.580280 -0.629038
O9    O     O_R   0.566090 0.933930 0.580280 -0.629659
O10   O     O_R   0.433910 0.066070 0.419720 -0.629680
O11   O     O_R   0.433910 0.066070 0.580280 -0.628411
O12   O     O_R   0.566090 0.933930 0.419720 -0.628434
O13   O     O_R   0.433910 0.933930 0.419720 -0.625195
O14   O     O_R   0.566090 0.066070 0.580280 -0.625184
O15   O     O_R   0.566090 0.066070 0.419720 -0.627742
O16   O     O_R   0.433910 0.933930 0.580280 -0.627746
C1    C     C_R   0.086677 0.413105 0.500039 0.895061
C2    C     C_R   0.913325 0.586896 0.499961 0.895059
C3    C     C_R   0.913102 0.413376 0.500068 0.895051
C4    C     C_R   0.086898 0.586624 0.499932 0.895062
C5    C     C_R   0.586996 0.913442 0.500033 0.894889
C6    C     C_R   0.413005 0.086559 0.499966 0.894877
C7    C     C_R   0.413092 0.913378 0.500071 0.894649
C8    C     C_R   0.586908 0.086622 0.499928 0.894629
Zn1   Zn    Zn3+2 0.000000 0.500000 0.607200 0.948832
Zn2   Zn    Zn3+2 0.000000 0.500000 0.392800 0.948835
Zn3   Zn    Zn3+2 0.500000 1.000000 0.607200 0.951599
Zn4   Zn    Zn3+2 0.500000 0.000000 0.392800 0.951576
C9    C     C_R   0.165801 0.648959 0.585202 -0.221593
C10   C     C_R   0.834121 0.351119 0.414834 -0.221569
C11   C     C_R   0.843808 0.658771 0.587024 -0.220101
C12   C     C_R   0.156324 0.341360 0.412971 -0.220086
C13   C     C_R   0.665925 0.148867 0.585141 -0.221735
C14   C     C_R   0.334152 0.851055 0.414824 -0.221729
C15   C     C_R   0.339974 0.154859 0.587016 -0.221013
C16   C     C_R   0.659919 0.845035 0.412974 -0.221035
C17   C     C_R   0.135006 0.634300 0.499881 -0.093522
C18   C     C_R   0.864994 0.365701 0.500120 -0.093498
C19   C     C_R   0.866299 0.635722 0.499983 -0.096417
C20   C     C_R   0.133710 0.364288 0.500014 -0.096408
C21   C     C_R   0.635054 0.134274 0.499856 -0.094617
C22   C     C_R   0.364946 0.865726 0.500142 -0.094644
C23   C     C_R   0.364083 0.133456 0.500000 -0.095013
C24   C     C_R   0.635924 0.866551 0.499997 -0.095016
C25   C     C_R   0.149884 0.665266 0.414718 -0.216489
C26   C     C_R   0.850193 0.334657 0.585249 -0.216517
C27   C     C_R   0.844404 0.659685 0.413115 -0.211369
C28   C     C_R   0.155492 0.340212 0.586876 -0.211408
C29   C     C_R   0.649897 0.165281 0.414705 -0.214205
C30   C     C_R   0.350025 0.834796 0.585327 -0.214213
C31   C     C_R   0.341160 0.156390 0.413128 -0.212203
C32   C     C_R   0.658968 0.843738 0.586868 -0.212174
C33   C     C_R   0.195759 0.711494 0.414216 0.072237
C34   C     C_R   0.804320 0.288429 0.585751 0.072247
C35   C     C_R   0.799500 0.706824 0.412573 0.068509
C36   C     C_R   0.200400 0.293076 0.587412 0.068524
C37   C     C_R   0.695796 0.211489 0.414183 0.069053
C38   C     C_R   0.304124 0.788589 0.585850 0.069046
C39   C     C_R   0.294160 0.201424 0.412565 0.069843
C40   C     C_R   0.705974 0.798710 0.587425 0.069851
C41   C     C_R   0.226903 0.726716 0.500206 -0.007311
C42   C     C_R   0.773096 0.273285 0.499794 -0.007322
C43   C     C_R   0.776343 0.730027 0.500229 -0.006543
C44   C     C_R   0.223676 0.269992 0.499756 -0.006542
C45   C     C_R   0.727021 0.226632 0.500141 -0.006959
C46   C     C_R   0.272979 0.773368 0.499859 -0.006945
C47   C     C_R   0.269932 0.223558 0.500191 -0.006630
C48   C     C_R   0.730085 0.776459 0.499794 -0.006625
C49   C     C_R   0.211808 0.695333 0.586493 0.011720
C50   C     C_R   0.788112 0.304748 0.413542 0.011732
C51   C     C_R   0.798783 0.706054 0.588221 0.010088
C52   C     C_R   0.201355 0.294084 0.411768 0.010100
C53   C     C_R   0.711974 0.195203 0.586410 0.013458
C54   C     C_R   0.288105 0.804718 0.413555 0.013445
C55   C     C_R   0.292738 0.199935 0.588180 0.009393
C56   C     C_R   0.707159 0.799963 0.411803 0.009380
C57   C     C_R   0.210568 0.742737 0.329077 -0.319815
C58   C     C_R   0.789590 0.257106 0.670855 -0.319834
C59   C     C_R   0.777217 0.730576 0.325657 -0.315014
C60   C     C_R   0.222566 0.269209 0.674323 -0.315046
C61   C     C_R   0.710520 0.242828 0.329080 -0.316930
C62   C     C_R   0.289320 0.757330 0.670989 -0.316937
C63   C     C_R   0.271622 0.224892 0.325656 -0.315791
C64   C     C_R   0.728634 0.775363 0.674336 -0.315785
C65   C     C_R   0.757311 0.288912 0.327781 0.526995
C66   C     C_R   0.242528 0.711249 0.672286 0.526982
C67   C     C_R   0.224445 0.270531 0.324531 0.525496
C68   C     C_R   0.775814 0.729728 0.675456 0.525520
C69   C     C_R   0.257404 0.788777 0.327756 0.521450
C70   C     C_R   0.742755 0.211064 0.672177 0.521479
C71   C     C_R   0.731739 0.777891 0.324596 0.528462
C72   C     C_R   0.268043 0.221892 0.675379 0.528501
H1    H     H_    0.153804 0.624171 0.650530 0.199128
H2    H     H_    0.846059 0.375969 0.349534 0.199084
H3    H     H_    0.861426 0.639793 0.653827 0.204866
H4    H     H_    0.138798 0.360430 0.346173 0.204843
H5    H     H_    0.653954 0.124056 0.650459 0.201316
H6    H     H_    0.346183 0.875804 0.349477 0.201365
H7    H     H_    0.358099 0.136359 0.653815 0.203190
H8    H     H_    0.641700 0.863437 0.346172 0.203231
H9    H     H_    0.125543 0.653701 0.348869 0.157607
H10   H     H_    0.874597 0.346162 0.651069 0.157586
H11   H     H_    0.862188 0.641680 0.345804 0.160409
H12   H     H_    0.137611 0.358121 0.654187 0.160408
H13   H     H_    0.625489 0.153781 0.348890 0.160493
H14   H     H_    0.374369 0.846356 0.651172 0.160507
H15   H     H_    0.359957 0.139409 0.345829 0.158611
H16   H     H_    0.640262 0.860811 0.654172 0.158574
C73   C     C_R   0.944211 0.494935 0.798111 -0.059769
C74   C     C_R   0.055789 0.505064 0.201889 -0.059784
C75   C     C_R   0.055784 0.505149 0.797995 -0.061983
C76   C     C_R   0.944216 0.494850 0.202005 -0.061989
C77   C     C_R   0.444151 0.004354 0.798073 -0.055724
C78   C     C_R   0.555849 0.995645 0.201927 -0.055768
C79   C     C_R   0.555856 0.995753 0.798027 -0.058610
C80   C     C_R   0.444144 0.004247 0.201972 -0.058612
N1    N     N_R   0.000000 0.500000 0.750030 -0.107355
N2    N     N_R   0.000000 0.500000 0.249970 -0.107339
N3    N     N_R   0.500000 1.000000 0.750030 -0.105805
N4    N     N_R   0.500000 1.000000 0.249970 -0.105811
C81   C     C_R   0.057133 0.505342 0.898697 0.011084
C82   C     C_R   0.942867 0.494657 0.101303 0.011111
C83   C     C_R   0.942861 0.494742 0.898818 0.013215
C84   C     C_R   0.057139 0.505256 0.101182 0.013181
C85   C     C_R   0.557211 0.995591 0.898735 0.017001
C86   C     C_R   0.442789 0.004408 0.101265 0.016970
C87   C     C_R   0.442796 0.004512 0.898778 0.020598
C88   C     C_R   0.557204 0.995486 0.101222 0.020633
C89   C     C_R   0.999999 0.500019 0.949367 0.082916
C90   C     C_R   0.000001 0.499979 0.050634 0.082927
C91   C     C_R   0.500001 0.000022 0.949366 0.084025
C92   C     C_R   0.499999 0.999976 0.050634 0.084036
C93   C     C_R   0.113938 0.510671 0.949672 -0.201532
C94   C     C_R   0.886062 0.489327 0.050328 -0.201613
C95   C     C_R   0.886057 0.489398 0.949916 -0.198787
C96   C     C_R   0.113943 0.510599 0.050084 -0.198809
C97   C     C_R   0.614087 0.991090 0.949752 -0.200771
C98   C     C_R   0.385913 0.008909 0.050248 -0.200700
C99   C     C_R   0.385917 0.009002 0.949833 -0.202638
C100  C     C_R   0.614082 0.990996 0.050167 -0.202775
H17   H     H_    0.185876 0.731511 0.263449 0.161958
H18   H     H_    0.814342 0.268271 0.736453 0.161948
H19   H     H_    0.794758 0.712275 0.258429 0.166687
H20   H     H_    0.204935 0.287420 0.741553 0.166645
H21   H     H_    0.685771 0.231672 0.263475 0.164926
H22   H     H_    0.314008 0.768548 0.736622 0.164926
H23   H     H_    0.290802 0.208177 0.258499 0.166034
H24   H     H_    0.709546 0.792170 0.741501 0.166002
O17   O     O_3   0.769878 0.321307 0.244031 -0.607549
C101  C     C_3   0.810046 0.284195 0.186995 -0.346472
H25   H     H_    0.786223 0.240180 0.163568 0.166866
H26   H     H_    0.854776 0.272954 0.225003 0.160103
H27   H     H_    0.822488 0.311377 0.121860 0.200732
O18   O     O_3   0.229881 0.678935 0.756080 -0.607560
C102  C     C_3   0.189651 0.716099 0.812937 -0.346430
H28   H     H_    0.144956 0.727294 0.774801 0.160071
H29   H     H_    0.213443 0.760143 0.836312 0.166877
H30   H     H_    0.177150 0.688982 0.878109 0.200764
O19   O     O_3   0.204352 0.295356 0.238300 -0.603024
C103  C     C_3   0.160459 0.253457 0.197509 -0.336829
H31   H     H_    0.142196 0.274655 0.130495 0.201729
H32   H     H_    0.119480 0.245531 0.245859 0.156603
H33   H     H_    0.182938 0.207828 0.178617 0.163825
O20   O     O_3   0.796028 0.705024 0.761702 -0.602998
C104  C     C_3   0.839988 0.746975 0.802205 -0.336957
H34   H     H_    0.880900 0.754819 0.753695 0.156624
H35   H     H_    0.858340 0.725875 0.869234 0.201696
H36   H     H_    0.817546 0.792638 0.821011 0.163795
O21   O     O_3   0.270174 0.820991 0.243916 -0.615641
C105  C     C_3   0.309941 0.783472 0.186841 -0.329696
H37   H     H_    0.285678 0.739692 0.163445 0.167484
H38   H     H_    0.354578 0.771797 0.224802 0.168448
H39   H     H_    0.322611 0.810513 0.121676 0.199959
O22   O     O_3   0.730064 0.178770 0.755975 -0.615631
C106  C     C_3   0.690351 0.216234 0.813218 -0.329852
H40   H     H_    0.645677 0.227944 0.775380 0.168469
H41   H     H_    0.714635 0.259993 0.836657 0.167456
H42   H     H_    0.677743 0.189131 0.878352 0.199924
O23   O     O_3   0.708080 0.799059 0.238223 -0.598673
C107  C     C_3   0.749453 0.845064 0.201444 -0.349867
H43   H     H_    0.754753 0.885307 0.251721 0.153341
H44   H     H_    0.729285 0.863880 0.134043 0.199056
H45   H     H_    0.796327 0.824503 0.184262 0.166998
O24   O     O_3   0.291587 0.200608 0.761759 -0.598685
C108  C     C_3   0.250158 0.154565 0.798281 -0.350065
H46   H     H_    0.270237 0.135656 0.865682 0.198975
H47   H     H_    0.244911 0.114390 0.747867 0.153402
H48   H     H_    0.203267 0.175115 0.815391 0.167000
H49   H     H_    0.900852 0.491039 0.757782 0.138509
H50   H     H_    0.099148 0.508959 0.242218 0.138488
H51   H     H_    0.099142 0.509086 0.757583 0.138959
H52   H     H_    0.900858 0.490914 0.242417 0.138928
H53   H     H_    0.400745 0.007689 0.757719 0.130920
H54   H     H_    0.599254 0.992310 0.242281 0.130937
H55   H     H_    0.599264 0.992483 0.757631 0.133560
H56   H     H_    0.400736 0.007517 0.242369 0.133595
H57   H     H_    0.158332 0.514882 0.911914 0.157963
H58   H     H_    0.841668 0.485115 0.088086 0.157951
H59   H     H_    0.841657 0.485257 0.912253 0.151466
H60   H     H_    0.158343 0.514739 0.087747 0.151494
H61   H     H_    0.658541 0.987615 0.912025 0.144922
H62   H     H_    0.341459 0.012384 0.087975 0.144923
H63   H     H_    0.341469 0.012583 0.912136 0.135809
H64   H     H_    0.658531 0.987415 0.087864 0.135798

loop_
_geom_bond_atom_site_label_1
_geom_bond_atom_site_label_2
_geom_bond_distance
_ccdc_geom_bond_type
C63   C67   1.393970 A    
C75   H51   1.082781 S    
C104  H34   1.113951 S    
O8    Zn1   2.019766 S    
C102  H29   1.112750 S    
C40   C64   1.397734 A    
O21   C105  1.409820 S    
C14   C22   1.396765 A    
C23   C31   1.396126 A    
C74   N2    1.365418 A    
O15   Zn4   2.019762 S    
C73   N1    1.365420 A    
C12   C52   1.386651 A    
O10   C6    1.283894 A    
C26   H10   1.084945 S    
O13   C7    1.283211 A    
C35   C59   1.398125 A    
C7    C22   1.437889 S    
C105  H38   1.113937 S    
O12   Zn4   2.019492 S    
C54   C69   1.407886 A    
C35   C43   1.410852 A    
O20   C104  1.409726 S    
C39   C63   1.397732 A    
C53   C70   1.407887 A    
C38   C62   1.397981 A    
C95   H59   1.083347 S    
C108  H47   1.113890 S    
O6    Zn1   2.018387 S    
C75   C81   1.409134 A    
C105  H37   1.112724 S    
O10   Zn4   2.020386 S    
C28   H12   1.084812 S    
C29   C37   1.382501 A    
O24   C108  1.409671 S    
C42   C50   1.414296 A    
O3    C2    1.283599 A    
C20   C28   1.396398 A    
O14   C8    1.283210 A    
O22   C106  1.409820 S    
C82   C94   1.405503 A    
C32   C40   1.382286 A    
C62   H22   1.084263 S    
C77   N3    1.365455 A    
C33   C41   1.410958 A    
C41   C46   1.391815 A    
C38   C46   1.410962 A    
C59   H19   1.084275 S    
O19   C103  1.409722 S    
C73   H49   1.082744 S    
C60   H20   1.084272 S    
C101  H27   1.109432 S    
C71   O23   1.383031 S    
C93   C96   1.404766 A    
C36   C44   1.410851 A    
O13   Zn4   2.018390 S    
O11   Zn3   2.019492 S    
O14   Zn3   2.018387 S    
C15   C23   1.397286 A    
C59   C71   1.393748 A    
C107  H45   1.112897 S    
C61   C65   1.394103 A    
C74   C84   1.409167 A    
O16   C7    1.283473 A    
C24   C32   1.396129 A    
O16   Zn3   2.019766 S    
C11   C51   1.386654 A    
C25   C33   1.382407 A    
C104  H35   1.109317 S    
C80   C86   1.409198 A    
C83   C89   1.408457 A    
C102  H30   1.109430 S    
O1    Zn1   2.020387 S    
C8    C21   1.437880 S    
C87   C99   1.405583 A    
C15   H7    1.083767 S    
C88   C92   1.408595 A    
C21   C29   1.395785 A    
C10   C50   1.386751 A    
C107  H44   1.109465 S    
C106  H42   1.109380 S    
C9    C49   1.386739 A    
C64   H24   1.084285 S    
C97   C100  1.404803 A    
O8    C3    1.283459 A    
C27   H11   1.084815 S    
C77   C87   1.409146 A    
C84   C96   1.405569 A    
C30   C38   1.382490 A    
C103  H33   1.112770 S    
C94   H58   1.083390 S    
O3    Zn1   2.019492 S    
O2    Zn2   2.020386 S    
C72   O24   1.383031 S    
C45   C53   1.414310 A    
C37   C45   1.410964 A    
C9    H1    1.083948 S    
C73   C83   1.409169 A    
C108  H48   1.112894 S    
C29   H13   1.084912 S    
C34   C42   1.410960 A    
C85   C97   1.405637 A    
C68   O20   1.383155 S    
C19   C27   1.396400 A    
O12   C5    1.283420 A    
C74   H50   1.082744 S    
C58   C70   1.394146 A    
C51   C68   1.407908 A    
C83   C95   1.405571 A    
C1    C20   1.439580 S    
C103  H32   1.113952 S    
C60   C72   1.393756 A    
C33   C57   1.397846 A    
C2    C19   1.439586 S    
C44   C47   1.391847 A    
C76   C82   1.409134 A    
C3    C18   1.437655 S    
C76   H52   1.082781 S    
C5    C24   1.439110 S    
C78   C88   1.409148 A    
C85   C91   1.408537 A    
C39   C47   1.410784 A    
C6    C23   1.439105 S    
C86   C92   1.408537 A    
C57   C69   1.394139 A    
C26   C34   1.382419 A    
C84   C90   1.408458 A    
C16   H8    1.083767 S    
C48   C56   1.413991 A    
O7    Zn2   2.019762 S    
C100  H64   1.083464 S    
C40   C48   1.410788 A    
O18   C102  1.409764 S    
C43   C51   1.414044 A    
C25   H9    1.084945 S    
C55   C72   1.407983 A    
C22   C30   1.395789 A    
C63   H23   1.084281 S    
O4    C1    1.283594 A    
C13   C53   1.386798 A    
O15   C8    1.283469 A    
C12   H4    1.083755 S    
C14   C54   1.386786 A    
C106  H41   1.112723 S    
C79   N3    1.365458 A    
C12   C20   1.397339 A    
Zn4   N4    1.998191 S    
C101  H26   1.113923 S    
C15   C55   1.386638 A    
C31   C39   1.382283 A    
C17   C25   1.395688 A    
C91   C92   1.416731 A    
C30   H14   1.084910 S    
C52   C67   1.407906 A    
C107  H43   1.113889 S    
O9    Zn3   2.020387 S    
C27   C35   1.382581 A    
C89   C90   1.416724 A    
C41   C49   1.414290 A    
C28   C36   1.382588 A    
C79   H55   1.082795 S    
C43   C48   1.391845 A    
C86   C98   1.405636 A    
C93   H57   1.083388 S    
C78   H54   1.082812 S    
C42   C45   1.391825 A    
C77   H53   1.082812 S    
Zn2   N2    1.998191 S    
C81   C89   1.408521 A    
O2    C2    1.283963 A    
Zn1   N1    1.998190 S    
O4    Zn2   2.019492 S    
C94   C95   1.404766 A    
O5    C3    1.283109 A    
Zn3   N3    1.998190 S    
O23   C107  1.409674 S    
C104  H36   1.112771 S    
C65   O17   1.383288 S    
O6    C4    1.283110 A    
C70   O22   1.383305 S    
O11   C6    1.283422 A    
C61   H21   1.084262 S    
C36   C60   1.398123 A    
C75   N1    1.365438 A    
C13   C21   1.396758 A    
C103  H31   1.109316 S    
C87   C91   1.408594 A    
C58   H18   1.084267 S    
C88   C100  1.405582 A    
C69   O21   1.383304 S    
C10   H2    1.083950 S    
C106  H40   1.113935 S    
C62   C66   1.394093 A    
O17   C101  1.409766 S    
C76   N2    1.365440 A    
C4    C17   1.437664 S    
C98   H62   1.083362 S    
O9    C5    1.283898 A    
C108  H46   1.109465 S    
C64   C68   1.393969 A    
C97   H61   1.083362 S    
C11   H3    1.083758 S    
C79   C85   1.409197 A    
C14   H6    1.083929 S    
C67   O19   1.383157 S    
C13   H5    1.083933 S    
C44   C52   1.414042 A    
C66   O18   1.383287 S    
C37   C61   1.397984 A    
C57   H17   1.084269 S    
C18   C26   1.395685 A    
C16   C24   1.397287 A    
C98   C99   1.404803 A    
C56   C71   1.407985 A    
O5    Zn2   2.018390 S    
C80   H56   1.082793 S    
C80   N4    1.365459 A    
C16   C56   1.386630 A    
C47   C55   1.413990 A    
O1    C1    1.283966 A    
C32   H16   1.084869 S    
C31   H15   1.084868 S    
O7    C4    1.283462 A    
C9    C17   1.396749 A    
C102  H28   1.113923 S    
C11   C19   1.397341 A    
C101  H25   1.112750 S    
C99   H63   1.083463 S    
C96   H60   1.083349 S    
C10   C18   1.396741 A    
C81   C93   1.405504 A    
C50   C65   1.407878 A    
C82   C90   1.408520 A    
C78   N4    1.365453 A    
C49   C66   1.407878 A    
C34   C58   1.397849 A    
C105  H39   1.109378 S    
C46   C54   1.414306 A    
