data_mof_unit_23963.cif
_audit_creation_date              2012-10-26T21:05:25-0400
_audit_creation_method            fapswitch 2.2
_symmetry_space_group_name_H-M    P1
_symmetry_Int_Tables_number       1
_space_group_crystal_system       triclinic
_cell_length_a                    9.641776
_cell_length_b                    10.764889
_cell_length_c                    13.864975
_cell_angle_alpha                 92.635344
_cell_angle_beta                  84.304941
_cell_angle_gamma                 90.808624
_cell_volume                      1430.3988664

loop_
_atom_site_label
_atom_site_type_symbol
_atom_type_description
_atom_site_fract_x
_atom_site_fract_y
_atom_site_fract_z
_atom_type_partial_charge
C1    C     C_R   0.500167 0.737296 0.503663 0.538707
C2    C     C_R   0.588547 0.933756 0.442911 -0.135903
C3    C     C_R   0.586897 0.061781 0.442195 -0.138211
C4    C     C_R   0.476806 0.500201 0.682861 0.527509
C5    C     C_R   0.497010 0.129490 0.509497 0.031607
C6    C     C_R   0.873269 0.368893 0.351506 -0.105554
C7    C     C_R   0.949313 0.342630 0.262495 -0.018353
C8    C     C_R   0.093497 0.354849 0.256629 -0.132958
C9    C     C_R   0.157109 0.372741 0.342553 0.029151
C10   C     C_R   0.082933 0.435557 0.425140 0.168752
C11   C     C_R   0.933883 0.435390 0.426728 0.139669
C12   C     C_1   0.462233 0.499401 0.786305 -0.019564
C13   C     C_R   0.917456 0.562129 0.569940 0.008556
C14   C     C_R   0.064940 0.561650 0.570186 0.003489
C15   C     C_R   0.498875 0.263038 0.503153 0.525343
C16   C     C_R   0.523177 0.499558 0.317153 0.524927
C17   C     C_1   0.537592 0.497850 0.213672 -0.031061
C18   C     C_2   0.557544 0.494923 0.022623 -0.110748
C19   C     C_2   0.441970 0.498049 0.977276 -0.117011
C20   C     C_1   0.451727 0.498669 0.873371 -0.042999
C21   C     C_1   0.547912 0.496318 0.126561 -0.045257
C22   C     C_2   0.877556 0.292403 0.179361 0.234269
C23   C     C_R   0.330531 0.877303 0.657281 -0.105153
C24   C     C_2   0.250411 0.268593 0.351578 0.295752
C25   C     C_R   0.246782 0.945244 0.728027 -0.117976
C26   C     C_R   0.244966 0.074328 0.727239 -0.108780
C27   C     C_R   0.326895 0.136282 0.655708 -0.079520
C28   C     C_R   0.410798 0.069252 0.582078 0.051225
C29   C     C_R   0.412582 0.937959 0.582843 0.031017
C30   C     C_R   0.500251 0.871552 0.510893 0.005289
Cu1   Cu    Cu3+1 0.359340 0.500010 0.500010 0.955650
Cu2   Cu    Cu3+1 0.640660 0.499990 0.499990 0.935384
H1    H     H_    0.339629 0.500951 0.017929 0.144381
H2    H     H_    0.325345 0.236690 0.660188 0.142757
H3    H     H_    0.654170 0.108325 0.387465 0.112951
H4    H     H_    0.855581 0.613763 0.627189 0.121737
H5    H     H_    0.765257 0.278895 0.187326 0.094802
H6    H     H_    0.349520 0.262121 0.307129 0.082101
H7    H     H_    0.768393 0.335145 0.359691 0.159508
H8    H     H_    0.154589 0.320123 0.191197 0.152464
H9    H     H_    0.112297 0.612805 0.627595 0.112522
H10   H     H_    0.659899 0.492161 0.982006 0.150379
H11   H     H_    0.656517 0.882642 0.388491 0.138238
H12   H     H_    0.332135 0.777560 0.663032 0.126365
H13   H     H_    0.184499 0.897578 0.784499 0.120755
H14   H     H_    0.181251 0.126843 0.783097 0.133242
N1    N     N_R   0.852210 0.498790 0.499090 -0.237663
N2    N     N_R   0.148080 0.498710 0.499060 -0.237696
O1    O     O_R   0.381190 0.680360 0.500010 -0.494484
O2    O     O_2   0.211281 0.182686 0.402521 -0.492506
O3    O     O_R   0.618760 0.680340 0.500000 -0.494032
O4    O     O_R   0.364420 0.499990 0.637850 -0.517654
O5    O     O_R   0.601990 0.499960 0.637840 -0.492975
O6    O     O_R   0.381240 0.319660 0.500000 -0.474704
O7    O     O_R   0.618810 0.319640 0.499990 -0.520261
O8    O     O_R   0.398010 0.500040 0.362160 -0.508157
O9    O     O_R   0.635580 0.500010 0.362150 -0.513781
O10   O     O_2   0.942380 0.266177 0.101053 -0.505536

loop_
_geom_bond_atom_site_label_1
_geom_bond_atom_site_label_2
_ccdc_geom_bond_type
C22   O10   D    
C24   H6    S    
C16   O8    A    
C9    C24   S    
C6    C7    A    
C4    O5    A    
C4    C12   S    
C5    C28   A    
C9    C10   A    
Cu1   O4    S    
Cu2   O7    S    
C11   N1    A    
Cu1   Cu2   S    
C3    H3    S    
C2    H11   S    
C2    C30   A    
C12   C20   T    
C18   H10   S    
C2    C3    A    
C7    C8    A    
Cu1   O6    S    
C13   C14   A    
C10   N2    A    
C16   O9    A    
C1    O3    A    
C26   C27   A    
C29   C30   A    
Cu2   O9    S    
Cu1   O1    S    
C14   H9    S    
C23   C29   A    
C7    C22   S    
C1    C30   S    
C4    O4    A    
Cu1   N2    S    
C23   C25   A    
C27   H2    S    
C24   O2    D    
Cu1   O8    S    
Cu2   N1    S    
C5    C15   S    
C16   C17   S    
C10   C11   A    
C26   H14   S    
C18   C21   S    
C15   O6    A    
C25   H13   S    
Cu2   O5    S    
C6    C11   A    
C13   H4    S    
C18   C19   D    
C19   H1    S    
Cu2   O3    S    
C27   C28   A    
C13   N1    A    
C6    H7    S    
C28   C29   A    
C14   N2    A    
C8    H8    S    
C25   C26   A    
C22   H5    S    
C1    O1    A    
C17   C21   T    
C23   H12   S    
C19   C20   S    
C8    C9    A    
C3    C5    A    
C15   O7    A    
