data_mof_unit_47683.cif
_audit_creation_date              2012-12-10T18:13:37-0500
_audit_creation_method            fapswitch 2.2
_symmetry_space_group_name_H-M    P1
_symmetry_Int_Tables_number       1
_space_group_crystal_system       triclinic
_cell_length_a                    12.618365
_cell_length_b                    13.131869
_cell_length_c                    17.147796
_cell_angle_alpha                 89.926818
_cell_angle_beta                  99.068452
_cell_angle_gamma                 97.729364
_cell_volume                      2779.85082616

loop_
_atom_site_label
_atom_site_type_symbol
_atom_type_description
_atom_site_fract_x
_atom_site_fract_y
_atom_site_fract_z
_atom_type_partial_charge
C1    C     C_R   0.560521 0.691527 0.506355 0.933543
C2    C     C_R   0.482593 0.500826 0.732993 -0.024842
C3    C     C_R   0.317088 0.073437 0.371877 0.219842
C4    C     C_R   0.511668 0.495682 0.350350 0.980691
C5    C     C_R   0.404624 0.200900 0.471535 -0.100513
C6    C     C_R   0.688629 0.836399 0.568642 -0.209377
C7    C     C_R   0.711338 0.939772 0.589722 -0.095209
C8    C     C_R   0.641168 0.007427 0.557740 -0.128906
C9    C     C_R   0.549623 0.973302 0.499989 0.034904
C10   C     C_R   0.538207 0.872248 0.469030 0.012160
C11   C     C_R   0.470843 0.037084 0.470758 0.038150
C12   C     C_R   0.593486 0.566961 0.237328 0.384967
C13   C     C_R   0.391656 0.006063 0.403315 0.088968
C14   C     C_R   0.393020 0.911345 0.366625 -0.283599
C15   C     C_R   0.466505 0.846191 0.397487 0.357750
C16   C     C_R   0.439760 0.308706 0.490512 0.871747
C17   C     C_R   0.469880 0.131848 0.506791 -0.213255
C18   C     C_R   0.325065 0.171007 0.406631 -0.201339
C19   C     C_R   0.599688 0.801392 0.510838 -0.063894
C20   C     C_R   0.903663 0.347715 0.611361 0.256712
C21   C     C_R   0.208377 0.628484 0.405866 -0.006631
C22   C     C_R   0.105144 0.656546 0.385614 0.137969
C23   C     C_R   0.563365 0.532620 0.868935 -0.053204
C24   C     C_R   0.020542 0.606988 0.421231 -0.170007
C25   C     C_R   0.039110 0.529049 0.476675 0.013127
C26   C     C_R   0.145798 0.503416 0.494267 0.219442
C27   C     C_R   0.956729 0.476162 0.515571 -0.043523
C28   C     C_R   0.488008 0.503383 0.649682 0.874556
C29   C     C_R   0.983211 0.399151 0.571127 0.022707
C30   C     C_R   0.088860 0.375011 0.585719 -0.189894
C31   C     C_R   0.168131 0.426057 0.547720 -0.205516
C32   C     C_R   0.848719 0.496664 0.501754 -0.133403
C33   C     C_R   0.798887 0.373245 0.595771 0.441701
C34   C     C_R   0.571947 0.542272 0.789471 0.161442
C35   C     C_R   0.513897 0.498433 0.266580 -0.126575
C36   C     C_R   0.424792 0.446569 0.214891 0.150251
C37   C     C_R   0.411971 0.470772 0.135585 -0.170596
C38   C     C_R   0.488665 0.542005 0.107126 -0.001998
C39   C     C_R   0.579903 0.588655 0.157515 -0.135583
C40   C     C_3   0.343909 0.364796 0.242867 -0.876714
C41   C     C_3   0.234455 0.046870 0.298620 -0.900930
C42   C     C_3   0.674684 0.598885 0.766930 -0.821331
C43   C     C_3   0.087029 0.739969 0.327252 -0.856077
C44   C     C_R   0.387010 0.452546 0.756474 -0.226304
C45   C     C_R   0.379690 0.444124 0.835854 -0.127372
C46   C     C_R   0.467168 0.485509 0.891557 0.174941
C47   C     C_2   0.479654 0.559254 0.022963 0.394638
C48   C     C_2   0.459516 0.476945 0.974276 -0.339742
Cl1   Cl    Cl    0.480344 0.744683 0.334767 -0.604355
Cl2   Cl    Cl    0.699416 0.311982 0.647756 -0.564249
Cl3   Cl    Cl    0.933065 0.251782 0.681290 -0.573346
Cl4   Cl    Cl    0.707631 0.632096 0.298909 -0.605038
Cl5   Cl    Cl    0.501055 0.686930 0.989534 -0.573138
H1    H     H_    0.305907 0.406331 0.853863 0.162126
H2    H     H_    0.274760 0.666131 0.379073 0.189470
H3    H     H_    0.941956 0.631105 0.404765 0.185226
H4    H     H_    0.246822 0.403298 0.561599 0.207527
H5    H     H_    0.318778 0.419684 0.713374 0.158642
H6    H     H_    0.442634 0.399738 0.996300 0.147340
H7    H     H_    0.640826 0.641368 0.134683 0.203960
H8    H     H_    0.631396 0.561918 0.913596 0.161870
H9    H     H_    0.342145 0.433952 0.095625 0.154682
H10   H     H_    0.290248 0.321921 0.192564 0.242101
H11   H     H_    0.387566 0.308433 0.278793 0.227476
H12   H     H_    0.274645 0.226272 0.379750 0.163302
H13   H     H_    0.291530 0.399686 0.278514 0.263286
H14   H     H_    0.178447 0.977357 0.308489 0.244416
H15   H     H_    0.184889 0.109817 0.282581 0.248404
H16   H     H_    0.275905 0.033179 0.247865 0.253508
H17   H     H_    0.728554 0.637789 0.818904 0.238984
H18   H     H_    0.720567 0.544255 0.741543 0.276090
H19   H     H_    0.654882 0.658831 0.723320 0.224926
H20   H     H_    0.138031 0.812050 0.350703 0.231549
H21   H     H_    0.110150 0.718615 0.270216 0.253382
H22   H     H_    0.001034 0.753742 0.316449 0.272250
H23   H     H_    0.339162 0.887968 0.312234 0.197823
H24   H     H_    0.523587 0.156887 0.560570 0.188183
H25   H     H_    0.737816 0.783166 0.600038 0.161392
H26   H     H_    0.662651 0.086402 0.577621 0.185655
H27   H     H_    0.780562 0.966791 0.633943 0.184097
H28   H     H_    0.112065 0.316455 0.626913 0.205156
H29   H     H_    0.821079 0.552605 0.460284 0.197672
N1    N     N_R   0.774070 0.445420 0.541180 -0.161663
N2    N     N_R   0.226730 0.554050 0.459240 -0.153647
O1    O     O_R   0.631480 0.627510 0.519670 -0.611147
O2    O     O_R   0.455770 0.662400 0.493360 -0.602440
O3    O     O_R   0.598240 0.480510 0.398910 -0.589206
O4    O     O_R   0.422540 0.515400 0.372600 -0.595626
O5    O     O_R   0.544230 0.337600 0.506640 -0.566417
O6    O     O_R   0.368520 0.372490 0.480330 -0.655101
O7    O     O_R   0.577460 0.484600 0.627400 -0.567995
O8    O     O_R   0.401760 0.519490 0.601090 -0.643658
Zn1   Zn    Zn3+2 0.617320 0.476700 0.517570 1.017112
Zn2   Zn    Zn3+2 0.382680 0.523300 0.482430 0.955543

loop_
_geom_bond_atom_site_label_1
_geom_bond_atom_site_label_2
_ccdc_geom_bond_type
C43   H20   S    
C16   O6    A    
C27   C29   A    
C35   C36   A    
C34   C42   S    
C37   H9    S    
C7    C8    A    
C41   H14   S    
C4    O3    A    
C45   C46   A    
C18   H12   S    
C6    C19   A    
C29   C30   A    
C40   H10   S    
C36   C37   A    
C20   Cl3   S    
C10   C15   A    
C38   C39   A    
C6    H25   S    
C5    C17   A    
N1    Zn1   S    
C42   H17   S    
C3    C18   A    
C5    C16   S    
O2    Zn2   S    
O1    Zn1   S    
C11   C17   A    
C22   C43   S    
C44   H5    S    
C8    C9    A    
C8    H26   S    
C9    C10   A    
C3    C13   A    
C47   Cl5   S    
C2    C34   A    
C43   H21   S    
C4    C35   S    
C16   O5    A    
C23   C46   A    
C40   H13   S    
C13   C14   A    
C43   H22   S    
C17   H24   S    
C12   Cl4   S    
O6    Zn2   S    
C41   H15   S    
O4    Zn2   S    
C20   C29   A    
C1    O1    A    
C46   C48   S    
C1    C19   S    
C36   C40   S    
C24   C25   A    
C2    C44   A    
C21   H2    S    
C5    C18   A    
C25   C26   A    
C14   H23   S    
C37   C38   A    
O7    Zn1   S    
C33   N1    A    
C47   C48   D    
C21   N2    A    
C23   H8    S    
C10   C19   A    
C23   C34   A    
C42   H19   S    
C28   O8    A    
N2    Zn2   S    
C12   C35   A    
C9    C11   A    
C38   C47   S    
C20   C33   A    
C45   H1    S    
C22   C24   A    
C24   H3    S    
C44   C45   A    
C48   H6    S    
C41   H16   S    
C1    O2    A    
C32   N1    A    
C3    C41   S    
C26   N2    A    
C27   C32   A    
C6    C7    A    
C4    O4    A    
C25   C27   A    
C32   H29   S    
C40   H11   S    
C31   H4    S    
C30   H28   S    
C33   Cl2   S    
C11   C13   A    
O8    Zn2   S    
C30   C31   A    
C12   C39   A    
C39   H7    S    
O3    Zn1   S    
C42   H18   S    
C28   O7    A    
C15   Cl1   S    
O5    Zn1   S    
C26   C31   A    
C14   C15   A    
C2    C28   S    
C21   C22   A    
C7    H27   S    
