data_mof_unit_66258.cif
_audit_creation_date              2013-03-05T15:47:24-0500
_audit_creation_method            fapswitch 2.2
_symmetry_space_group_name_H-M    P1
_symmetry_Int_Tables_number       1
_space_group_crystal_system       triclinic
_cell_length_a                    10.23302
_cell_length_b                    10.827987
_cell_length_c                    14.140145
_cell_angle_alpha                 90.919649
_cell_angle_beta                  81.864232
_cell_angle_gamma                 95.115318
_cell_volume                      1544.8152466

loop_
_atom_site_label
_atom_site_type_symbol
_atom_site_description
_atom_site_fract_x
_atom_site_fract_y
_atom_site_fract_z
_atom_type_partial_charge
O1    O     O_R   0.431050 0.692470 0.507130 -0.590924
O2    O     O_R   0.568950 0.307530 0.492870 -0.605509
O3    O     O_R   0.651120 0.659650 0.484400 -0.565068
O4    O     O_R   0.348880 0.340350 0.515600 -0.572376
C1    C     C_R   0.555554 0.732238 0.496627 0.920613
C2    C     C_R   0.444462 0.267863 0.507820 0.924386
O5    O     O_R   0.389940 0.516410 0.637650 -0.586843
O6    O     O_R   0.610060 0.483590 0.362350 -0.566157
O7    O     O_R   0.610010 0.483590 0.614920 -0.571235
O8    O     O_R   0.389990 0.516410 0.385080 -0.561698
C3    C     C_R   0.499969 0.500195 0.670587 0.867991
C4    C     C_R   0.500053 0.499818 0.329416 0.878875
Zn1   Zn    Zn3+2 0.353060 0.521920 0.515180 1.106544
Zn2   Zn    Zn3+2 0.646940 0.478080 0.484820 1.106840
C5    C     C_1   0.499953 0.500237 0.772114 -0.102634
C6    C     C_1   0.500176 0.499788 0.227872 -0.101730
C7    C     C_1   0.500057 0.500195 0.857404 0.048377
C8    C     C_1   0.500208 0.499833 0.142565 0.048697
C9    C     C_1   0.500160 0.500074 0.957330 0.060169
C10   C     C_1   0.500203 0.499953 0.042627 0.060609
C11   C     C_2   0.586775 0.864151 0.502366 -0.298791
C12   C     C_2   0.413320 0.136341 0.519663 -0.295125
C13   C     C_2   0.487540 0.934738 0.527715 -0.124436
C14   C     C_2   0.512472 0.066514 0.525565 -0.148835
N1    N     N_2   0.842710 0.448890 0.464580 -0.055169
N2    N     N_2   0.157290 0.551110 0.535420 -0.048854
C15   C     C_2   0.923581 0.492007 0.523067 0.298424
C16   C     C_2   0.067442 0.471838 0.506853 0.301539
N3    N     N_R   0.125410 0.671982 0.555748 0.293993
O9    O     O_R   0.175349 0.732131 0.624432 -0.328321
O10   O     O_R   0.074579 0.733901 0.493826 -0.343807
N4    N     N_R   0.896066 0.419582 0.371612 0.297000
O11   O     O_R   0.837116 0.329541 0.327283 -0.306738
O12   O     O_R   0.980653 0.498764 0.321659 -0.339975
H1    H     H_    0.614630 0.105760 0.522821 0.216424
H2    H     H_    0.385247 0.895944 0.544547 0.236536
H3    H     H_    0.311455 0.096530 0.522330 0.206237
H4    H     H_    0.688792 0.903574 0.485276 0.195718
N5    N     N_R   0.103765 0.354412 0.468371 0.207595
O13   O     O_R   0.039915 0.252877 0.504549 -0.370673
O14   O     O_R   0.177146 0.349571 0.385672 -0.316802
N6    N     N_R   0.872213 0.546744 0.612080 0.208022
O15   O     O_R   0.901456 0.504709 0.691467 -0.366468
O16   O     O_R   0.823146 0.653497 0.612661 -0.316420

loop_
_geom_bond_atom_site_label_1
_geom_bond_atom_site_label_2
_geom_bond_distance
_ccdc_geom_bond_type
O7    Zn2   1.826020 S    
N3    O9    1.299766 A    
N1    C15   1.303529 D    
N2    C16   1.303283 D    
C9    C10   1.206200 T    
O6    C4    1.304316 A    
N4    O11   1.299954 A    
N1    N4    1.393298 S    
N3    O10   1.302566 A    
O5    C3    1.304517 A    
O7    C3    1.304066 A    
C15   N6    1.433935 S    
O2    C2    1.296566 A    
O3    Zn2   1.962774 S    
N6    O16   1.300130 A    
O1    C1    1.296674 A    
O8    C4    1.304196 A    
C6    C8    1.206215 T    
C7    C9    1.413137 S    
C8    C10   1.413161 S    
C11   C13   1.330573 D    
Zn2   N1    2.035392 S    
O2    Zn2   1.943824 S    
C12   C14   1.330744 D    
Zn1   N2    2.035393 S    
C14   H1    1.088462 S    
O1    Zn1   1.943824 S    
N6    O15   1.300998 A    
C13   C14   1.426968 S    
C2    C12   1.438514 S    
O5    Zn1   1.826809 S    
C1    C11   1.439133 S    
N5    O14   1.300216 A    
N2    N3    1.392669 S    
O4    C2    1.299419 A    
C13   H2    1.087704 S    
C15   C16   1.492517 S    
C5    C7    1.206178 T    
N5    O13   1.301040 A    
O6    Zn2   1.826808 S    
C16   N5    1.433782 S    
C12   H3    1.087702 S    
C3    C5    1.435571 S    
C11   H4    1.087602 S    
C4    C6    1.435660 S    
O4    Zn1   1.962771 S    
O3    C1    1.299553 A    
O8    Zn1   1.826021 S    
N4    O12   1.302805 A    
