data_mof_unit_8404.cif
_audit_creation_date              2012-12-10T17:39:23-0500
_audit_creation_method            fapswitch 2.2
_symmetry_space_group_name_H-M    P1
_symmetry_Int_Tables_number       1
_space_group_crystal_system       triclinic
_cell_length_a                    12.313037
_cell_length_b                    13.174196
_cell_length_c                    27.812168
_cell_angle_alpha                 77.767851
_cell_angle_beta                  101.145544
_cell_angle_gamma                 116.530735
_cell_volume                      3919.61328334

loop_
_atom_site_label
_atom_site_type_symbol
_atom_type_description
_atom_site_fract_x
_atom_site_fract_y
_atom_site_fract_z
_atom_type_partial_charge
C1    C     C_R   0.854881 0.286551 0.504279 0.779773
C2    C     C_R   0.083638 0.476738 0.730940 -0.105016
C3    C     C_R   0.993570 0.496592 0.746033 0.357226
C4    C     C_R   0.994492 0.497341 0.897818 -0.044170
C5    C     C_R   0.966246 0.394834 0.880123 -0.019443
C6    C     C_R   0.938800 0.293178 0.913170 -0.148191
C7    C     C_R   0.021272 0.599376 0.864146 -0.020945
C8    C     C_R   0.997138 0.498468 0.645276 -0.039923
C9    C     C_R   0.001552 0.499983 0.354766 -0.037320
C10   C     C_R   0.978183 0.396061 0.034102 0.041600
C11   C     C_R   0.019661 0.601243 0.016986 0.042727
C12   C     C_R   0.999162 0.499543 0.592401 0.797623
C13   C     C_R   0.999826 0.498908 0.050840 0.067539
C14   C     C_R   0.964388 0.298088 0.069768 -0.203170
C15   C     C_R   0.967332 0.299980 0.119735 -0.145849
C16   C     C_R   0.984838 0.399578 0.136335 -0.020480
C17   C     C_R   0.001568 0.499405 0.102082 -0.044286
C18   C     C_R   0.019909 0.599698 0.119209 -0.019209
C19   C     C_R   0.021000 0.598310 0.169907 0.531748
C20   C     C_R   0.986067 0.401673 0.186704 0.532427
C21   C     C_R   0.095596 0.485520 0.288900 -0.105513
C22   C     C_R   0.094827 0.485366 0.338987 -0.219366
C23   C     C_R   0.145087 0.713427 0.492757 0.805585
C24   C     C_R   0.909152 0.514619 0.319545 -0.223495
C25   C     C_R   0.910016 0.514502 0.269526 -0.103514
C26   C     C_R   0.003213 0.500059 0.253994 0.355868
C27   C     C_R   0.971863 0.394541 0.982649 0.042636
C28   C     C_R   0.996130 0.497844 0.949051 0.067652
C29   C     C_R   0.022138 0.601665 0.966037 0.041539
C30   C     C_R   0.941181 0.292710 0.963327 -0.204324
C31   C     C_R   0.049862 0.701442 0.881376 -0.145512
C32   C     C_R   0.035683 0.699844 0.035472 -0.204013
C33   C     C_R   0.036092 0.698908 0.085514 -0.148174
C34   C     C_R   0.000552 0.500077 0.407611 0.792558
C35   C     C_R   0.050617 0.702883 0.931209 -0.203038
C36   C     C_R   0.275448 0.021402 0.434129 -0.181189
C37   C     C_R   0.227973 0.834543 0.482570 -0.051262
C38   C     C_R   0.815484 0.085191 0.536513 -0.181793
C39   C     C_R   0.736719 0.970293 0.546199 -0.136787
C40   C     C_R   0.613356 0.932596 0.528858 -0.178925
C41   C     C_R   0.566549 0.009366 0.499497 0.080345
C42   C     C_R   0.650028 0.123758 0.484836 0.081866
C43   C     C_R   0.439877 0.976092 0.483721 0.074229
C44   C     C_R   0.400174 0.053311 0.449986 0.162689
C45   C     C_R   0.965490 0.396267 0.829444 0.531711
C46   C     C_R   0.485475 0.160389 0.431477 -0.233246
C47   C     C_R   0.608618 0.194498 0.447987 -0.192725
C48   C     C_R   0.351033 0.868479 0.500787 -0.247266
C49   C     C_R   0.189652 0.912069 0.450082 -0.188056
C50   C     C_R   0.773048 0.163529 0.507025 -0.103176
C51   C     C_R   0.346721 0.328716 0.578860 -0.294039
C52   C     C_R   0.759535 0.645315 0.433121 0.073298
C53   C     C_R   0.662973 0.676997 0.418652 -0.248668
C54   C     C_R   0.559493 0.622203 0.443795 -0.193984
C55   C     C_R   0.551409 0.534545 0.484043 -0.006566
C56   C     C_R   0.020102 0.597198 0.813797 0.533340
C57   C     C_R   0.653049 0.505289 0.497632 0.288008
C58   C     C_R   0.447037 0.475169 0.511360 -0.036298
C59   C     C_R   0.446841 0.388305 0.551437 0.173991
C60   C     C_R   0.546645 0.361447 0.564120 -0.280048
C61   C     C_R   0.647382 0.418781 0.537971 -0.189487
C62   C     C_R   0.342019 0.497762 0.500920 0.017881
C63   C     C_R   0.246738 0.355216 0.566740 0.071277
C64   C     C_R   0.905046 0.517090 0.710757 -0.104293
C65   C     C_R   0.906642 0.517960 0.660677 -0.224096
C66   C     C_R   0.085525 0.477634 0.680905 -0.216957
Cu1   Cu    Cu3+1 0.098270 0.475420 0.511360 0.938880
Cu2   Cu    Cu3+1 0.901730 0.524580 0.488640 0.926045
H1    H     H_    0.834941 0.532158 0.722224 0.141761
H2    H     H_    0.072253 0.781364 0.856328 0.187520
H3    H     H_    0.046293 0.779428 0.012223 0.139657
H4    H     H_    0.835980 0.525835 0.330582 0.158374
H5    H     H_    0.048904 0.776815 0.097659 0.185360
H6    H     H_    0.838035 0.525321 0.242766 0.143126
H7    H     H_    0.076127 0.785834 0.941161 0.140974
H8    H     H_    0.094480 0.886738 0.435504 0.151418
H9    H     H_    0.456939 0.218215 0.404037 0.148648
H10   H     H_    0.244714 0.079925 0.408291 0.141103
H11   H     H_    0.152529 0.461158 0.758042 0.142094
H12   H     H_    0.374943 0.808181 0.528015 0.149496
H13   H     H_    0.909453 0.113170 0.553182 0.154784
H14   H     H_    0.557917 0.842326 0.538178 0.130888
H15   H     H_    0.770785 0.910455 0.568635 0.148028
H16   H     H_    0.670708 0.275917 0.430309 0.176356
H17   H     H_    0.169064 0.309599 0.587730 0.124397
H18   H     H_    0.345915 0.262153 0.609520 0.144314
H19   H     H_    0.334060 0.562076 0.471127 0.123021
H20   H     H_    0.839523 0.688358 0.413419 0.127818
H21   H     H_    0.915146 0.212878 0.900399 0.185746
H22   H     H_    0.487572 0.650236 0.431004 0.137954
H23   H     H_    0.668351 0.744274 0.387841 0.152622
H24   H     H_    0.719045 0.392215 0.551023 0.208713
H25   H     H_    0.167396 0.474207 0.365247 0.157164
H26   H     H_    0.168178 0.474708 0.277134 0.142036
H27   H     H_    0.955852 0.222457 0.145413 0.187510
H28   H     H_    0.952961 0.218286 0.060603 0.140801
H29   H     H_    0.916402 0.210047 0.985777 0.139968
H30   H     H_    0.837092 0.533853 0.634116 0.163201
N1    N     N_R   0.992585 0.496598 0.797509 -0.467407
N2    N     N_R   0.003834 0.500100 0.202453 -0.466856
N3    N     N_R   0.246290 0.438210 0.528570 -0.180572
N4    N     N_R   0.754320 0.561170 0.471730 -0.207348
O1    O     O_R   0.972510 0.318140 0.514280 -0.577801
O2    O     O_2   0.968322 0.305804 0.219622 -0.544126
O3    O     O_2   0.047366 0.694981 0.781423 -0.542301
O4    O     O_2   0.039908 0.694540 0.186629 -0.543337
O5    O     O_R   0.806530 0.359640 0.495100 -0.604388
O6    O     O_R   0.082990 0.479270 0.579320 -0.583110
O7    O     O_R   0.917010 0.520770 0.560140 -0.599958
O8    O     O_R   0.193470 0.640360 0.504900 -0.586280
O9    O     O_R   0.027490 0.681860 0.485720 -0.584213
O10   O     O_R   0.082990 0.479230 0.439860 -0.583906
O11   O     O_R   0.917010 0.520730 0.420680 -0.595792
O12   O     O_2   0.937326 0.298135 0.812139 -0.542775
H31   H     H_    0.156270 0.462233 0.670184 0.159628
H32   H     H_    0.547224 0.295335 0.594838 0.159442

loop_
_geom_bond_atom_site_label_1
_geom_bond_atom_site_label_2
_ccdc_geom_bond_type
C10   C27   A    
C58   C62   A    
C21   C26   A    
C8    C66   A    
C34   O10   A    
C41   C42   A    
C63   N3    A    
Cu1   O1    S    
C53   C54   A    
C34   O11   A    
C57   N4    A    
C30   H29   S    
C35   H7    S    
C28   C29   A    
Cu2   N4    S    
C65   H30   S    
C54   H22   S    
C15   H27   S    
C5    C6    A    
C9    C22   A    
C21   H26   S    
C15   C16   A    
C25   H6    S    
C2    H11   S    
C54   C55   A    
C45   O12   S    
C31   H2    S    
C16   C17   A    
C53   H23   S    
Cu2   O5    S    
C43   C48   A    
C1    O1    A    
C61   H24   S    
C16   C20   A    
Cu2   O11   S    
C42   C47   A    
C62   N3    A    
C59   C60   A    
C21   C22   A    
C63   H17   S    
C27   C30   A    
C41   C43   A    
C7    C56   A    
C4    C7    A    
C51   H18   S    
C14   H28   S    
C12   O7    A    
C4    C28   A    
C44   C46   A    
C32   H3    S    
C24   H4    S    
C7    C31   A    
C66   H31   S    
Cu1   Cu2   S    
C40   H14   S    
C52   H20   S    
C51   C63   A    
C24   C25   A    
C45   N1    A    
C39   C40   A    
C12   O6    A    
C18   C19   A    
C58   C59   A    
C23   C37   S    
C5    C45   A    
C60   C61   A    
Cu2   O9    S    
C43   C44   A    
C37   C49   A    
Cu1   O8    S    
C20   N2    A    
C8    C12   S    
C52   N4    A    
C17   C18   A    
C49   H8    S    
C47   H16   S    
C37   C48   A    
C1    O5    A    
C38   C50   A    
C33   H5    S    
C40   C41   A    
C6    C30   A    
C42   C50   A    
C11   C32   A    
C55   C57   A    
C38   H13   S    
C10   C14   A    
C9    C34   S    
C22   H25   S    
C31   C35   A    
C36   C44   A    
C51   C59   A    
C23   O9    A    
C52   C53   A    
Cu1   N3    S    
C1    C50   S    
C23   O8    A    
C46   C47   A    
C4    C5    A    
C2    C66   A    
C10   C13   A    
C46   H9    S    
C19   N2    A    
C9    C24   A    
C57   C61   A    
C20   O2    S    
C6    H21   S    
C64   H1    S    
C62   H19   S    
C29   C35   A    
C13   C17   A    
C32   C33   A    
C48   H12   S    
C2    C3    A    
C25   C26   A    
C39   H15   S    
C36   H10   S    
C64   C65   A    
C11   C13   A    
C38   C39   A    
Cu2   O7    S    
C3    C64   A    
Cu1   O6    S    
C18   C33   A    
C56   O3    S    
C60   H32   S    
C19   O4    S    
C3    N1    S    
Cu1   O10   S    
C8    C65   A    
C11   C29   A    
C55   C58   A    
C27   C28   A    
C14   C15   A    
C56   N1    A    
C36   C49   A    
C26   N2    S    
