data_mof_unit_16005.cif
_audit_creation_date              2012-12-10T17:12:45-0500
_audit_creation_method            fapswitch 2.2
_symmetry_space_group_name_H-M    P1
_symmetry_Int_Tables_number       1
_space_group_crystal_system       triclinic
_cell_length_a                    23.415177
_cell_length_b                    10.652262
_cell_length_c                    10.02484
_cell_angle_alpha                 90.63859
_cell_angle_beta                  89.6958
_cell_angle_gamma                 90.077373
_cell_volume                      2500.24908106

loop_
_atom_site_label
_atom_site_type_symbol
_atom_type_description
_atom_site_fract_x
_atom_site_fract_y
_atom_site_fract_z
_atom_type_partial_charge
C1    C     C_R   0.499381 0.262284 0.498917 1.013863
C2    C     C_R   0.119722 0.610328 0.557476 0.570953
C3    C     C_R   0.240420 0.586065 0.413204 0.546029
C4    C     C_R   0.389570 0.497785 0.500242 0.942547
C5    C     C_R   0.299792 0.580205 0.415191 -0.326879
C6    C     C_R   0.327546 0.496575 0.500098 -0.166680
C7    C     C_R   0.295611 0.416861 0.584606 -0.080946
C8    C     C_R   0.236255 0.427713 0.585808 -0.223166
C9    C     C_R   0.208991 0.511301 0.500878 0.196258
C10   C     C_R   0.762430 0.492989 0.616955 -0.099994
C11   C     C_R   0.703166 0.489817 0.618154 -0.198988
C12   C     C_R   0.971811 0.309398 0.375440 0.516764
C13   C     C_R   0.672923 0.503740 0.498714 -0.031911
C14   C     C_R   0.702633 0.521787 0.378404 -0.199337
C15   C     C_R   0.761874 0.525565 0.377668 -0.091202
C16   C     C_R   0.506186 0.737481 0.500608 0.883557
C17   C     C_R   0.791739 0.510731 0.496780 0.303698
C18   C     C_2   0.526727 0.934197 0.388757 0.461729
C19   C     C_2   0.526512 0.866511 0.502574 -0.300378
C20   C     C_2   0.529496 0.070762 0.399209 -0.261892
C21   C     C_2   0.499040 0.129413 0.493920 -0.330695
C22   C     C_2   0.537596 0.558996 0.926952 -0.175898
C23   C     C_R   0.031363 0.314131 0.372376 -0.233819
C24   C     C_2   0.542244 0.542731 0.075444 -0.047939
C25   C     C_R   0.610665 0.500605 0.499634 0.859416
C26   C     C_R   0.880752 0.608788 0.555152 0.503281
C27   C     C_R   0.880703 0.413221 0.435360 0.525310
C28   C     C_R   0.940664 0.409794 0.434516 -0.153718
C29   C     C_R   0.970398 0.510632 0.495571 -0.073802
C30   C     C_R   0.940284 0.610535 0.556812 0.021761
C31   C     C_3   0.937079 0.110401 0.405781 0.176066
C32   C     C_3   0.982274 0.009122 0.384372 -0.868221
C33   C     C_3   0.487729 0.939866 0.175719 0.091377
C34   C     C_R   0.060855 0.413403 0.433586 -0.095824
C35   C     C_3   0.473168 0.854183 0.058429 -0.716425
C36   C     C_2   0.551148 0.917132 0.630247 0.878800
C37   C     C_2   0.478069 0.383851 0.894726 1.049255
C38   C     C_3   0.212121 0.618929 0.200190 0.069223
C39   C     C_3   0.175104 0.701214 0.112901 -0.732926
C40   C     C_2   0.321873 0.316928 0.666203 1.000384
C41   C     C_R   0.030448 0.511890 0.495674 -0.022006
C42   C     C_R   0.060058 0.611992 0.557567 -0.012503
C43   C     C_R   0.029545 0.710414 0.618484 -0.167270
C44   C     C_R   0.970170 0.709658 0.618140 -0.182022
C45   C     C_R   0.120445 0.416298 0.435228 0.528907
H1    H     H_    0.681153 0.475696 0.712103 0.170033
H2    H     H_    0.051387 0.788262 0.666480 0.193019
H3    H     H_    0.947801 0.787095 0.665869 0.189745
H4    H     H_    0.324236 0.641873 0.351177 0.171613
H5    H     H_    0.210523 0.367864 0.649012 0.194970
H6    H     H_    0.785690 0.480917 0.709004 0.147438
H7    H     H_    0.894652 0.067305 0.386582 0.206924
H8    H     H_    0.936636 0.141516 0.512622 0.117864
H9    H     H_    0.024702 0.043546 0.417318 0.252397
H10   H     H_    0.971017 0.925270 0.443717 0.231230
H11   H     H_    0.984518 0.981468 0.277334 0.278130
H12   H     H_    0.680209 0.533454 0.285149 0.162338
H13   H     H_    0.510117 0.023856 0.136262 0.158456
H14   H     H_    0.446954 0.968691 0.225153 0.145744
H15   H     H_    0.450291 0.769450 0.094175 0.239761
H16   H     H_    0.445431 0.904652 0.987336 0.223471
H17   H     H_    0.512917 0.824864 0.005996 0.276791
H18   H     H_    0.611329 0.024954 0.718572 0.356353
H19   H     H_    0.492034 0.216141 0.980431 0.327338
H20   H     H_    0.193797 0.522218 0.198227 0.171764
H21   H     H_    0.256048 0.616812 0.157117 0.154275
H22   H     H_    0.192561 0.798178 0.110844 0.265942
H23   H     H_    0.784688 0.539531 0.284744 0.148372
H24   H     H_    0.174354 0.662630 0.009545 0.221995
H25   H     H_    0.130758 0.703899 0.152771 0.253262
H26   H     H_    0.316829 0.210109 0.830875 0.361404
H27   H     H_    0.553353 0.122513 0.324385 0.187620
H28   H     H_    0.473653 0.079768 0.567491 0.167726
H29   H     H_    0.566531 0.625212 0.880450 0.176152
H30   H     H_    0.581576 0.571163 0.123789 0.163323
H31   H     H_    0.054391 0.238946 0.322398 0.212237
H32   H     H_    0.460959 0.496411 0.104632 0.165881
N1    N     N_R   0.852556 0.511209 0.495383 -0.360045
N2    N     N_R   0.148285 0.513219 0.497326 -0.338255
N3    N     N_2   0.500610 0.501330 0.852150 -0.168781
N4    N     N_2   0.500630 0.501360 0.147810 -0.180564
O1    O     O_R   0.499990 0.319060 0.613040 -0.587723
O2    O     O_R   0.583840 0.500020 0.613040 -0.632883
O3    O     O_R   0.583850 0.500060 0.386900 -0.625686
O4    O     O_2   0.851055 0.704121 0.611858 -0.557075
O5    O     O_3   0.944737 0.209088 0.313655 -0.572845
O6    O     O_3   0.523558 0.874554 0.264229 -0.584700
O7    O     O_2   0.530000 0.889268 0.737735 -0.627758
O8    O     O_R   0.598828 0.996350 0.626440 -0.775496
O9    O     O_2   0.428461 0.357451 0.869960 -0.618289
O10   O     O_R   0.513123 0.296338 0.957661 -0.813741
O11   O     O_3   0.212726 0.669333 0.331010 -0.594134
O12   O     O_2   0.850379 0.319828 0.377500 -0.519901
O13   O     O_2   0.365309 0.263723 0.627960 -0.627100
O14   O     O_R   0.295420 0.279922 0.784873 -0.788327
O15   O     O_2   0.150543 0.323089 0.375680 -0.563221
O16   O     O_2   0.149078 0.704081 0.617564 -0.538135
O17   O     O_R   0.500010 0.319100 0.386900 -0.618203
O18   O     O_R   0.416150 0.499940 0.613100 -0.580724
O19   O     O_R   0.416160 0.499980 0.386960 -0.627098
O20   O     O_R   0.499990 0.680900 0.613100 -0.592947
O21   O     O_R   0.500010 0.680940 0.386960 -0.555910
Zn1   Zn    Zn3+2 0.499990 0.499970 0.650990 1.028263
Zn2   Zn    Zn3+2 0.500010 0.500030 0.349010 0.982972

loop_
_geom_bond_atom_site_label_1
_geom_bond_atom_site_label_2
_ccdc_geom_bond_type
C36   O8    S    
O18   Zn1   S    
C1    C21   S    
C33   H13   S    
C21   H28   S    
C41   C42   A    
C31   H7    S    
C43   C44   A    
C27   N1    A    
C13   C25   S    
C7    C8    A    
C36   O7    D    
C12   C23   A    
C26   N1    A    
O2    Zn1   S    
C37   O9    D    
C12   C28   A    
C28   C29   A    
C2    C42   A    
C19   C36   S    
C16   C19   S    
C38   C39   S    
H26   O14   S    
C10   C17   A    
C38   O11   S    
O19   Zn2   S    
C18   C19   D    
C9    N2    S    
C2    N2    A    
C38   H21   S    
C2    O16   S    
C8    C9    A    
C25   O3    A    
O1    Zn1   S    
C23   H31   S    
C32   H10   S    
C3    O11   S    
C33   H14   S    
C31   O5    S    
C13   C14   A    
C30   C44   A    
C34   C41   A    
C10   H6    S    
C32   H9    S    
C37   N3    S    
C37   O10   S    
N3    Zn1   S    
C4    C6    S    
C1    O1    A    
C35   H15   S    
C24   N4    D    
C29   C30   A    
C3    C9    A    
C31   C32   S    
C38   H20   S    
H32   N4    S    
C7    C40   S    
C23   C34   A    
H18   O8    S    
C39   H24   S    
C45   N2    A    
C34   C45   A    
C31   H8    S    
O21   Zn2   S    
C16   O21   A    
C26   C30   A    
C4    O19   A    
O3    Zn2   S    
C22   C24   S    
C27   O12   S    
C42   C43   A    
C22   H29   S    
C40   O14   S    
C8    H5    S    
C15   C17   A    
C14   H12   S    
C29   C41   A    
C39   H22   S    
C40   O13   D    
C3    C5    A    
C1    O17   A    
C24   H30   S    
C6    C7    A    
C18   O6    S    
C12   O5    S    
C33   O6    S    
C22   N3    D    
C11   C13   A    
C5    C6    A    
C35   H16   S    
C26   O4    S    
O17   Zn2   S    
C15   H23   S    
C17   N1    S    
C33   C35   S    
C39   H25   S    
C35   H17   S    
C18   C20   S    
C5    H4    S    
C10   C11   A    
C16   O20   A    
C20   C21   D    
O20   Zn1   S    
C4    O18   A    
C27   C28   A    
C25   O2    A    
C14   C15   A    
C20   H27   S    
C11   H1    S    
H19   O10   S    
C45   O15   S    
C43   H2    S    
C32   H11   S    
C44   H3    S    
N4    Zn2   S    
