data_mof_unit_41389.cif
_audit_creation_date              2012-12-10T17:41:00-0500
_audit_creation_method            fapswitch 2.2
_symmetry_space_group_name_H-M    P1
_symmetry_Int_Tables_number       1
_space_group_crystal_system       triclinic
_cell_length_a                    14.811297
_cell_length_b                    15.351712
_cell_length_c                    9.890319
_cell_angle_alpha                 90.184567
_cell_angle_beta                  91.469718
_cell_angle_gamma                 90.061879
_cell_volume                      2248.0955188

loop_
_atom_site_label
_atom_site_type_symbol
_atom_type_description
_atom_site_fract_x
_atom_site_fract_y
_atom_site_fract_z
_atom_type_partial_charge
C1    C     C_R   0.389749 0.871983 0.499095 0.894983
C2    C     C_R   0.729418 0.204913 0.379923 -0.232450
C3    C     C_R   0.233273 0.297898 0.381933 -0.235642
C4    C     C_R   0.229861 0.704313 0.379550 -0.221282
C5    C     C_R   0.689732 0.813612 0.504492 -0.158470
C6    C     C_R   0.707888 0.166018 0.502086 -0.169380
C7    C     C_R   0.207094 0.331380 0.506347 -0.166090
C8    C     C_R   0.207684 0.665493 0.501283 -0.169571
C9    C     C_R   0.335160 0.001913 0.134470 -0.083044
C10   C     C_R   0.835191 0.504145 0.134548 -0.104342
C11   C     C_R   0.253682 0.003218 0.061435 -0.136751
C12   C     C_R   0.391217 0.128528 0.498700 0.906954
C13   C     C_R   0.753714 0.504927 0.061502 -0.179681
C14   C     C_R   0.253440 0.003387 0.921539 -0.168744
C15   C     C_R   0.753384 0.502105 0.921638 -0.178286
C16   C     C_R   0.334614 0.002196 0.853916 -0.128173
C17   C     C_R   0.834523 0.499561 0.853967 -0.136710
C18   C     C_R   0.418568 0.001569 0.924647 0.168122
C19   C     C_R   0.918506 0.499729 0.924634 0.156708
C20   C     C_R   0.418708 0.001425 0.069351 0.196689
C21   C     C_R   0.918662 0.501185 0.069395 0.190495
C22   C     C_R   0.577756 0.997069 0.074707 -0.089610
C23   C     C_R   0.890399 0.371699 0.498674 0.904578
C24   C     C_R   0.077660 0.502573 0.075025 -0.079880
C25   C     C_R   0.626352 0.114036 0.501472 0.880789
C26   C     C_R   0.618384 0.877442 0.501095 0.869241
C27   C     C_R   0.126169 0.614005 0.501207 0.885110
C28   C     C_R   0.125906 0.384803 0.502278 0.865966
C29   C     C_R   0.577644 0.996442 0.931586 -0.119026
C30   C     C_R   0.077403 0.504247 0.932237 -0.114991
C31   C     C_R   0.404698 0.258423 0.719190 -0.141755
C32   C     C_R   0.393735 0.743941 0.728869 -0.161448
C33   C     C_R   0.840616 0.715527 0.762334 -0.127159
C34   C     C_R   0.891879 0.629059 0.501263 0.921731
C35   C     C_R   0.902375 0.239671 0.719531 -0.145385
C36   C     C_R   0.395429 0.306699 0.836877 -0.097639
C37   C     C_R   0.389788 0.685182 0.835505 -0.108448
C38   C     C_R   0.788877 0.718261 0.877661 -0.120425
C39   C     C_R   0.897511 0.183164 0.828978 -0.102919
C40   C     C_R   0.698459 0.741037 0.867096 -0.162308
C41   C     C_R   0.831140 0.119261 0.830485 -0.130443
C42   C     C_R   0.320278 0.359136 0.851776 -0.135733
C43   C     C_R   0.327737 0.617548 0.830432 -0.127405
C44   C     C_R   0.662309 0.768154 0.742957 -0.157635
C45   C     C_R   0.304899 0.242114 0.374293 0.163592
C46   C     C_R   0.769080 0.111930 0.722821 -0.164943
C47   C     C_R   0.256275 0.366239 0.746670 -0.189574
C48   C     C_R   0.268479 0.609708 0.719726 -0.159774
C49   C     C_R   0.716091 0.771757 0.626621 0.092216
C50   C     C_R   0.769573 0.171359 0.613890 0.109208
C51   C     C_R   0.265087 0.320208 0.623283 0.113279
C52   C     C_R   0.268254 0.670992 0.613627 0.110758
C53   C     C_R   0.338343 0.262082 0.613684 0.071675
C54   C     C_R   0.334241 0.737129 0.614669 0.077693
C55   C     C_R   0.801002 0.732715 0.633125 0.068961
C56   C     C_R   0.301310 0.760318 0.374213 0.161117
C57   C     C_R   0.837960 0.235448 0.611222 0.071823
C58   C     C_R   0.346170 0.212361 0.494800 -0.189985
C59   C     C_R   0.342128 0.789259 0.496531 -0.190049
C60   C     C_R   0.841526 0.709866 0.509447 -0.185416
C61   C     C_R   0.843769 0.288448 0.494483 -0.190904
C62   C     C_R   0.819390 0.755812 0.391701 0.147801
C63   C     C_R   0.801027 0.260668 0.373129 0.164519
C64   C     C_R   0.743889 0.808141 0.390245 -0.228203
H1    H     H_    0.189928 0.003887 0.864842 0.154231
H2    H     H_    0.960408 0.282219 0.717779 0.173062
H3    H     H_    0.447097 0.303922 0.916130 0.163429
H4    H     H_    0.437510 0.690274 0.919905 0.156172
H5    H     H_    0.818068 0.699187 0.974001 0.180711
H6    H     H_    0.947707 0.186722 0.910324 0.162361
H7    H     H_    0.656799 0.739485 0.955432 0.150302
H8    H     H_    0.829772 0.073119 0.912973 0.147763
H9    H     H_    0.312594 0.396423 0.943895 0.143096
H10   H     H_    0.327075 0.569735 0.910615 0.132574
H11   H     H_    0.592040 0.784199 0.739649 0.148939
H12   H     H_    0.689862 0.502588 0.864966 0.155192
H13   H     H_    0.725499 0.055904 0.722408 0.158281
H14   H     H_    0.203108 0.410442 0.765113 0.160068
H15   H     H_    0.227577 0.552179 0.713778 0.139346
H16   H     H_    0.728778 0.845718 0.299941 0.186542
H17   H     H_    0.691233 0.191377 0.287310 0.201465
H18   H     H_    0.198186 0.314967 0.288289 0.198963
H19   H     H_    0.192498 0.690325 0.286357 0.205424
H20   H     H_    0.641275 0.994627 0.131060 0.144920
H21   H     H_    0.141183 0.504835 0.131444 0.140750
H22   H     H_    0.330110 0.000544 0.241639 0.212137
H23   H     H_    0.328409 0.000990 0.746597 0.210959
H24   H     H_    0.830079 0.503087 0.241680 0.211478
H25   H     H_    0.190418 0.003591 0.113896 0.162719
H26   H     H_    0.690466 0.506710 0.113935 0.157854
H27   H     H_    0.828291 0.499076 0.746633 0.213238
H28   H     H_    0.641001 0.992182 0.880767 0.138333
H29   H     H_    0.140571 0.510750 0.883006 0.116658
H30   H     H_    0.466501 0.221808 0.709119 0.166911
H31   H     H_    0.447149 0.790733 0.735927 0.161164
H32   H     H_    0.911426 0.699570 0.775458 0.174437
I1    I     I_    0.351948 0.220849 0.175818 -0.430366
I2    I     I_    0.346591 0.783147 0.174897 -0.428124
I3    I     I_    0.905852 0.761992 0.223909 -0.422151
I4    I     I_    0.844289 0.284477 0.172941 -0.407627
N1    N     N_R   0.498810 0.000000 0.142780 -0.113318
N2    N     N_R   0.998810 0.500000 0.142780 -0.112702
N3    N     N_R   0.498740 0.000000 0.857170 -0.129315
N4    N     N_R   0.998740 0.500000 0.857170 -0.126866
O1    O     O_R   0.408390 0.908380 0.614690 -0.655314
O2    O     O_R   0.591620 0.908390 0.614640 -0.643262
O3    O     O_R   0.091620 0.591610 0.614640 -0.632342
O4    O     O_R   0.091620 0.408390 0.614640 -0.649645
O5    O     O_R   0.591610 0.091610 0.385310 -0.611536
O6    O     O_R   0.591610 0.908390 0.385310 -0.614657
O7    O     O_R   0.091610 0.591610 0.385310 -0.612592
O8    O     O_R   0.091610 0.408390 0.385310 -0.612496
O9    O     O_R   0.408390 0.091620 0.614690 -0.644171
O10   O     O_R   0.908390 0.408380 0.614690 -0.647335
O11   O     O_R   0.908390 0.591620 0.614690 -0.654773
O12   O     O_R   0.408370 0.908380 0.385360 -0.603408
O13   O     O_R   0.408370 0.091620 0.385360 -0.604607
O14   O     O_R   0.908370 0.408380 0.385360 -0.600939
O15   O     O_R   0.908370 0.591620 0.385360 -0.607977
O16   O     O_R   0.591620 0.091610 0.614640 -0.635837
Zn1   Zn    Zn3+2 0.500010 0.000000 0.653130 0.915197
Zn2   Zn    Zn3+2 0.000010 0.500000 0.653130 0.915297
Zn3   Zn    Zn3+2 0.499980 0.000000 0.346870 0.967760
Zn4   Zn    Zn3+2 0.999980 0.500000 0.346870 0.969292

loop_
_geom_bond_atom_site_label_1
_geom_bond_atom_site_label_2
_ccdc_geom_bond_type
C44   C49   A    
C33   C55   A    
C25   O16   A    
C40   H7    S    
C13   H26   S    
C36   C42   A    
C17   H27   S    
C56   I2    S    
C4    C8    A    
C26   O2    A    
C23   O14   A    
C36   H3    S    
C39   C41   A    
C22   C29   A    
O15   Zn4   S    
C28   O8    A    
C10   H24   S    
N1    Zn3   S    
C22   N1    A    
C48   H15   S    
O12   Zn3   S    
O8    Zn4   S    
C30   H29   S    
C3    C7    A    
C1    C59   S    
O6    Zn3   S    
C11   C14   A    
C6    C25   S    
N4    Zn2   S    
C37   H4    S    
C29   N3    A    
C60   C62   A    
C61   C63   A    
C62   C64   A    
C39   H6    S    
C16   H23   S    
C41   C46   A    
C1    O12   A    
C24   H21   S    
C8    C52   A    
C40   C44   A    
C24   N2    A    
C25   O5    A    
C18   N3    A    
C12   C58   S    
C43   H10   S    
C15   H12   S    
C38   H5    S    
C27   O7    A    
O11   Zn2   S    
C55   C60   A    
C4    C56   A    
C34   C60   S    
C64   H16   S    
C5    C49   A    
C2    C6    A    
N2    Zn4   S    
C32   C54   A    
C52   C54   A    
C54   C59   A    
C10   C21   A    
C45   C58   A    
O5    Zn3   S    
C47   C51   A    
C20   N1    A    
C35   H2    S    
C34   O11   A    
C49   C55   A    
C3    C45   A    
C6    C50   A    
C7    C28   S    
C12   O13   A    
C5    C64   A    
C51   C53   A    
C22   H20   S    
C37   C43   A    
C44   H11   S    
C35   C39   A    
C63   I4    S    
C9    H22   S    
C19   N4    A    
C11   H25   S    
C9    C20   A    
C27   O3    A    
C3    H18   S    
O1    Zn1   S    
O14   Zn4   S    
C32   C37   A    
C31   C53   A    
C9    C11   A    
C41   H8    S    
C21   N2    A    
C13   C15   A    
C14   C16   A    
N3    Zn1   S    
C33   H32   S    
O16   Zn1   S    
C12   O9    A    
C43   C48   A    
C23   C61   S    
C34   O15   A    
C15   C17   A    
C26   O6    A    
C2    C63   A    
C42   H9    S    
C19   C21   A    
O7    Zn4   S    
C50   C57   A    
O4    Zn2   S    
C10   C13   A    
C46   H13   S    
C53   C58   A    
C57   C61   A    
C31   H30   S    
C46   C50   A    
C33   C38   A    
O3    Zn2   S    
C56   C59   A    
C35   C57   A    
O13   Zn3   S    
C7    C51   A    
C45   I1    S    
C23   O10   A    
C38   C40   A    
C62   I3    S    
C4    H19   S    
C28   O4    A    
O2    Zn1   S    
C17   C19   A    
C14   H1    S    
C18   C20   A    
C42   C47   A    
C24   C30   A    
C5    C26   S    
O10   Zn2   S    
C48   C52   A    
C32   H31   S    
O9    Zn1   S    
C16   C18   A    
C30   N4    A    
C8    C27   S    
C31   C36   A    
C2    H17   S    
C47   H14   S    
C29   H28   S    
C1    O1    A    
