data_mof_unit_51780.cif
_audit_creation_date              2012-12-11T16:28:21-0500
_audit_creation_method            fapswitch 2.2
_symmetry_space_group_name_H-M    P1
_symmetry_Int_Tables_number       1
_space_group_crystal_system       monoclinic
_cell_length_a                    16.475624
_cell_length_b                    7.250101
_cell_length_c                    15.312426
_cell_angle_alpha                 90.0
_cell_angle_beta                  94.538127
_cell_angle_gamma                 90.0
_cell_volume                      1823.33403037

loop_
_atom_site_label
_atom_site_type_symbol
_atom_type_description
_atom_site_fract_x
_atom_site_fract_y
_atom_site_fract_z
_atom_type_partial_charge
O1    O     O_R   0.663460 0.361760 0.165970 -0.518988
O2    O     O_R   0.336540 0.638240 0.834030 -0.518988
O3    O     O_R   0.836540 0.861760 0.334030 -0.518988
O4    O     O_R   0.163460 0.138240 0.665970 -0.518988
O5    O     O_R   0.827100 0.689870 0.163730 -0.523133
O6    O     O_R   0.172900 0.310130 0.836270 -0.523133
O7    O     O_R   0.672900 0.189870 0.336270 -0.523133
O8    O     O_R   0.327100 0.810130 0.663730 -0.523133
H1    H     H_    0.206639 0.127635 0.515020 0.140783
H2    H     H_    0.793361 0.872365 0.484980 0.140783
H3    H     H_    0.293361 0.627635 0.984980 0.140783
H4    H     H_    0.706639 0.372364 0.015020 0.140783
C1    C     C_R   0.853149 0.522952 0.143454 0.750823
C2    C     C_R   0.146851 0.477048 0.856546 0.750823
C3    C     C_R   0.646851 0.022952 0.356546 0.750823
C4    C     C_R   0.353149 0.977048 0.643453 0.750823
O9    O     O_R   0.663490 0.691370 0.155500 -0.541301
O10   O     O_R   0.336510 0.308630 0.844500 -0.541301
O11   O     O_R   0.836510 0.191370 0.344500 -0.541301
O12   O     O_R   0.163490 0.808630 0.655500 -0.541301
O13   O     O_R   0.671770 0.863320 0.325740 -0.527642
O14   O     O_R   0.328230 0.136680 0.674260 -0.527642
O15   O     O_R   0.828230 0.363320 0.174260 -0.527642
O16   O     O_R   0.171770 0.636680 0.825740 -0.527642
C5    C     C_R   0.634923 0.522119 0.135130 0.684438
C6    C     C_R   0.365077 0.477881 0.864870 0.684438
C7    C     C_R   0.865077 0.022119 0.364869 0.684438
C8    C     C_R   0.134923 0.977881 0.635130 0.684438
H5    H     H_    0.128801 0.195576 0.245783 0.178276
H6    H     H_    0.871198 0.804425 0.754217 0.178276
H7    H     H_    0.371199 0.695577 0.254217 0.178276
H8    H     H_    0.628801 0.304423 0.745783 0.178275
O17   O     O_3   0.752910 0.528800 0.305860 -0.375770
O18   O     O_3   0.247090 0.471200 0.694140 -0.375770
O19   O     O_3   0.747090 0.028800 0.194140 -0.375770
O20   O     O_3   0.252910 0.971200 0.805860 -0.375770
V1    V     V_3+5 0.749460 0.803010 0.239640 1.528240
V2    V     V_3+5 0.250540 0.196990 0.760360 1.528240
V3    V     V_3+5 0.750540 0.303010 0.260360 1.528240
V4    V     V_3+5 0.249460 0.696990 0.739640 1.528240
C9    C     C_1   0.468773 0.994535 0.530037 0.042537
C10   C     C_1   0.531227 0.005465 0.469963 0.042536
C11   C     C_1   0.031227 0.494535 0.969962 0.042537
C12   C     C_1   0.968773 0.505465 0.030037 0.042537
C13   C     C_R   0.037961 0.087853 0.325405 -0.035903
C14   C     C_R   0.962039 0.912148 0.674595 -0.035903
C15   C     C_R   0.462039 0.587853 0.174595 -0.035903
C16   C     C_R   0.537961 0.412147 0.825405 -0.035903
C17   C     C_R   0.114237 0.162775 0.311874 -0.140519
C18   C     C_R   0.885763 0.837226 0.688125 -0.140519
C19   C     C_R   0.385763 0.662776 0.188125 -0.140519
C20   C     C_R   0.614237 0.337224 0.811875 -0.140520
C21   C     C_R   0.174134 0.181924 0.380765 0.008450
C22   C     C_R   0.825865 0.818076 0.619235 0.008450
C23   C     C_R   0.325866 0.681925 0.119234 0.008450
C24   C     C_R   0.674134 0.318074 0.880765 0.008450
C25   C     C_R   0.157609 0.120733 0.464014 -0.199444
C26   C     C_R   0.842391 0.879267 0.535986 -0.199444
C27   C     C_R   0.342391 0.620734 0.035986 -0.199444
C28   C     C_R   0.657609 0.379266 0.964014 -0.199444
C29   C     C_R   0.079526 0.055012 0.481847 0.052830
C30   C     C_R   0.920474 0.944987 0.518152 0.052830
C31   C     C_R   0.420474 0.555013 0.018152 0.052830
C32   C     C_R   0.579526 0.444987 0.981848 0.052830
C33   C     C_R   0.016345 0.050006 0.412510 0.014719
C34   C     C_R   0.983655 0.949994 0.587490 0.014719
C35   C     C_R   0.483655 0.550007 0.087490 0.014719
C36   C     C_R   0.516345 0.449993 0.912510 0.014719
C37   C     C_R   0.064714 0.994405 0.567615 -0.135955
C38   C     C_R   0.935286 0.005595 0.432385 -0.135955
C39   C     C_R   0.435286 0.494405 0.932385 -0.135955
C40   C     C_R   0.564714 0.505595 0.067615 -0.135955
C41   C     C_1   0.415843 0.985865 0.581318 -0.077846
C42   C     C_1   0.584157 0.014135 0.418682 -0.077846
C43   C     C_1   0.084157 0.485865 0.918682 -0.077846
C44   C     C_1   0.915843 0.514135 0.081318 -0.077846
C45   C     C_2   0.744365 0.742398 0.634878 0.793367
O21   O     O_2   0.729207 0.695168 0.708565 -0.548232
O22   O     O_R   0.684636 0.723877 0.565242 -0.679206
H9    H     H_    0.631852 0.670901 0.584243 0.300534
C46   C     C_2   0.255635 0.257603 0.365122 0.793366
O23   O     O_2   0.270792 0.304835 0.291435 -0.548232
O24   O     O_R   0.315364 0.276120 0.434757 -0.679206
H10   H     H_    0.368149 0.329097 0.415757 0.300534
C47   C     C_2   0.755635 0.242396 0.865122 0.793368
O25   O     O_2   0.770792 0.195164 0.791435 -0.548232
O26   O     O_R   0.815364 0.223878 0.934757 -0.679206
H11   H     H_    0.868148 0.170901 0.915757 0.300534
C48   C     C_2   0.244365 0.757604 0.134878 0.793368
O27   O     O_2   0.229208 0.804836 0.208565 -0.548233
O28   O     O_R   0.184636 0.776121 0.065243 -0.679206
H12   H     H_    0.131852 0.829098 0.084243 0.300534
C49   C     C_2   0.990878 0.022051 0.245339 0.731865
O29   O     O_2   0.970621 0.860177 0.239462 -0.551886
O30   O     O_R   0.976554 0.139990 0.173665 -0.667320
H13   H     H_    0.946026 0.077105 0.121801 0.296283
C50   C     C_2   0.009121 0.977949 0.754661 0.731865
O31   O     O_2   0.029379 0.139823 0.760538 -0.551886
O32   O     O_R   0.023445 0.860010 0.826335 -0.667320
H14   H     H_    0.053973 0.922895 0.878198 0.296283
C51   C     C_2   0.509121 0.522051 0.254661 0.731865
O33   O     O_2   0.529379 0.360177 0.260538 -0.551885
O34   O     O_R   0.523445 0.639990 0.326335 -0.667320
H15   H     H_    0.553973 0.577105 0.378198 0.296283
C52   C     C_2   0.490878 0.477949 0.745339 0.731865
O35   O     O_2   0.470621 0.639822 0.739462 -0.551886
O36   O     O_R   0.476555 0.360010 0.673665 -0.667320
H16   H     H_    0.446027 0.422895 0.621801 0.296283

loop_
_geom_bond_atom_site_label_1
_geom_bond_atom_site_label_2
_ccdc_geom_bond_type
C26   C30   A    
O26   H11   S    
C51   O33   D    
C15   C51   S    
C23   C27   A    
C9    C10   S    
O30   H13   S    
O10   C6    A    
C13   C49   S    
C50   O31   D    
H5    C17   S    
C47   O25   D    
C52   O36   S    
C30   C38   A    
C49   O29   D    
O18   V4    S    
C32   C36   A    
H2    C26   S    
C14   C34   A    
C16   C20   A    
O5    V1    S    
O12   V4    S    
C17   C21   A    
C34   C37   A    
C33   C38   A    
O14   V2    S    
C1    O15   A    
C21   C46   S    
C35   C40   A    
C2    O16   A    
C12   C44   T    
H8    C20   S    
O4    C8    A    
O17   V3    S    
O24   H10   S    
O36   H16   S    
O6    V2    S    
C48   O28   S    
O11   C7    A    
O5    C1    A    
C22   C45   S    
O7    C3    A    
H6    C18   S    
O8    C4    A    
C16   C52   S    
O1    C5    A    
C6    C39   S    
H3    C27   S    
C15   C35   A    
C50   O32   S    
C46   O23   D    
C45   O22   S    
C11   C43   T    
C31   C35   A    
C10   C42   T    
C30   C34   A    
C47   O26   S    
C4    C41   S    
O28   H12   S    
C21   C25   A    
C15   C19   A    
O12   C8    A    
C19   C23   A    
C45   O21   D    
C24   C28   A    
C11   C12   S    
O2    V4    S    
O6    C2    A    
O32   H14   S    
C1    C44   S    
C13   C17   A    
C8    C37   S    
O2    C6    A    
C5    C40   S    
C18   C22   A    
C16   C36   A    
C31   C39   A    
C7    C38   S    
O11   V3    S    
C14   C50   S    
O4    V2    S    
C13   C33   A    
O9    V1    S    
C22   C26   A    
C29   C37   A    
C4    O14   A    
O19   V1    S    
H7    C19   S    
C46   O24   S    
C25   C29   A    
C52   O35   D    
C14   C18   A    
C27   C31   A    
C28   C32   A    
O9    C5    A    
C2    C43   S    
O20   V2    S    
O10   V2    S    
C23   C48   S    
C24   C47   S    
C49   O30   S    
C36   C39   A    
O15   V3    S    
O3    C7    A    
O16   V4    S    
H1    C25   S    
C32   C40   A    
O1    V3    S    
C9    C41   T    
O22   H9    S    
H4    C28   S    
C29   C33   A    
C3    O13   A    
C3    C42   S    
O13   V1    S    
O3    V1    S    
C51   O34   S    
O34   H15   S    
O7    V3    S    
O8    V4    S    
C48   O27   D    
C20   C24   A    
