data_mof_unit_51902.cif
_audit_creation_date              2012-12-11T15:44:53-0500
_audit_creation_method            fapswitch 2.2
_symmetry_space_group_name_H-M    P1
_symmetry_Int_Tables_number       1
_space_group_crystal_system       triclinic
_cell_length_a                    19.129629
_cell_length_b                    11.071997
_cell_length_c                    18.837814
_cell_angle_alpha                 90.307497
_cell_angle_beta                  89.999013
_cell_angle_gamma                 89.902669
_cell_volume                      3989.84597152

loop_
_atom_site_label
_atom_site_type_symbol
_atom_type_description
_atom_site_fract_x
_atom_site_fract_y
_atom_site_fract_z
_atom_type_partial_charge
C1    C     C_R   0.760874 0.534090 0.646776 0.537519
C2    C     C_R   0.184608 0.075031 0.545828 -0.168274
C3    C     C_R   0.495121 0.945499 0.965311 0.013544
C4    C     C_R   0.959490 0.238526 0.972267 -0.152940
C5    C     C_R   0.968073 0.241286 0.046443 -0.171464
C6    C     C_R   0.459489 0.738526 0.972267 -0.152940
C7    C     C_R   0.468073 0.741286 0.046443 -0.171464
C8    C     C_3   0.065737 0.530959 0.029924 -0.242921
C9    C     C_3   0.052901 0.530886 0.950791 -0.277316
C10   C     C_3   0.565737 0.030959 0.029924 -0.242922
C11   C     C_3   0.552901 0.030885 0.950790 -0.277316
C12   C     C_R   0.761380 0.531476 0.852552 0.538553
C13   C     C_R   0.311663 0.541905 0.459118 -0.161387
C14   C     C_R   0.239630 0.530124 0.147479 0.537463
C15   C     C_R   0.261380 0.031476 0.852552 0.538553
C16   C     C_R   0.739630 0.030124 0.147479 0.537463
C17   C     C_R   0.772368 0.128613 0.853878 0.548465
C18   C     C_R   0.227386 0.126348 0.146961 0.543570
C19   C     C_R   0.272368 0.628613 0.853878 0.548465
C20   C     C_R   0.727386 0.626348 0.146961 0.543570
C21   C     C_R   0.964443 0.346908 0.856159 0.542055
C22   C     C_R   0.029004 0.347107 0.147500 0.530598
C23   C     C_R   0.464443 0.846908 0.856159 0.542055
C24   C     C_R   0.684608 0.575031 0.545828 -0.168274
C25   C     C_R   0.529004 0.847107 0.147500 0.530598
C26   C     C_R   0.753797 0.086785 0.422161 0.010663
C27   C     C_R   0.249879 0.088105 0.577933 0.005803
C28   C     C_R   0.253797 0.586785 0.422161 0.010663
C29   C     C_R   0.749879 0.588105 0.577933 0.005804
C30   C     C_R   0.702514 0.150648 0.458836 0.040983
C31   C     C_R   0.308246 0.113187 0.535992 0.040687
C32   C     C_R   0.202514 0.650648 0.458836 0.040983
C33   C     C_R   0.808246 0.613187 0.535992 0.040687
C34   C     C_R   0.708419 0.162440 0.532690 0.019898
C35   C     C_3   0.691806 0.283261 0.450144 -0.278144
C36   C     C_R   0.301648 0.121711 0.462423 0.001555
C37   C     C_R   0.208419 0.662440 0.532690 0.019898
C38   C     C_R   0.801648 0.621710 0.462423 0.001555
C39   C     C_3   0.660775 0.264980 0.940973 -0.365628
C40   C     C_3   0.375513 0.102503 0.087413 -0.395415
C41   C     C_3   0.160775 0.764980 0.940973 -0.365628
C42   C     C_3   0.875513 0.602503 0.087413 -0.395415
C43   C     C_3   0.348976 0.227511 0.539932 -0.275787
C44   C     C_3   0.191806 0.783261 0.450144 -0.278144
C45   C     C_3   0.848976 0.727510 0.539932 -0.275787
C46   C     C_3   0.700935 0.296106 0.528961 -0.235821
C47   C     C_3   0.341225 0.236916 0.460544 -0.265857
C48   C     C_3   0.200935 0.796106 0.528961 -0.235821
C49   C     C_R   0.239537 0.534040 0.353314 0.544318
C50   C     C_3   0.841226 0.736915 0.460544 -0.265857
C51   C     C_R   0.760739 0.101212 0.570407 0.007896
C52   C     C_R   0.237286 0.100476 0.429767 0.006674
C53   C     C_R   0.260739 0.601212 0.570407 0.007896
C54   C     C_R   0.737285 0.600476 0.429767 0.006675
C55   C     C_R   0.003406 0.343050 0.428992 -0.037279
C56   C     C_R   0.010300 0.331600 0.579123 -0.042519
C57   C     C_R   0.503406 0.843050 0.428992 -0.037279
C58   C     C_R   0.510300 0.831600 0.579123 -0.042519
C59   C     C_R   0.982296 0.123163 0.425581 -0.089142
C60   C     C_R   0.260874 0.034090 0.646776 0.537519
C61   C     C_R   0.005255 0.109051 0.571168 -0.090256
C62   C     C_R   0.482296 0.623164 0.425581 -0.089141
C63   C     C_R   0.505255 0.609051 0.571168 -0.090256
C64   C     C_R   0.984384 0.011436 0.458675 -0.150357
C65   C     C_R   0.996730 0.004045 0.531150 -0.155308
C66   C     C_R   0.484384 0.511436 0.458674 -0.150357
C67   C     C_R   0.496730 0.504045 0.531150 -0.155309
C68   C     C_R   0.003614 0.223809 0.538740 0.016885
C69   C     C_R   0.996692 0.230277 0.463756 0.008130
C70   C     C_R   0.503614 0.723809 0.538740 0.016885
C71   C     C_R   0.739537 0.034040 0.353314 0.544318
C72   C     C_R   0.496691 0.730277 0.463756 0.008130
C73   C     C_R   0.026299 0.439148 0.543944 0.014504
C74   C     C_R   0.010122 0.449720 0.471448 0.024859
C75   C     C_R   0.526299 0.939148 0.543944 0.014504
C76   C     C_R   0.510121 0.949720 0.471448 0.024859
C77   C     C_R   0.775235 0.130237 0.644049 0.547037
C78   C     C_R   0.224669 0.129884 0.355845 0.546904
C79   C     C_R   0.275235 0.630237 0.644049 0.547037
C80   C     C_R   0.724669 0.629884 0.355845 0.546904
C81   C     C_R   0.050773 0.540810 0.581894 -0.067697
C82   C     C_R   0.812970 0.041980 0.532026 -0.156243
C83   C     C_R   0.002034 0.567900 0.444279 -0.067831
C84   C     C_R   0.550773 0.040810 0.581894 -0.067697
C85   C     C_R   0.502034 0.067900 0.444279 -0.067832
C86   C     C_R   0.045811 0.655019 0.552904 -0.117930
C87   C     C_R   0.021310 0.668555 0.484181 -0.139916
C88   C     C_R   0.545811 0.155019 0.552904 -0.117930
C89   C     C_R   0.521310 0.168554 0.484181 -0.139916
C90   C     C_R   0.748705 0.062631 0.073672 0.000703
C91   C     C_R   0.255203 0.074086 0.925324 -0.003574
C92   C     C_R   0.248705 0.562631 0.073672 0.000703
C93   C     C_R   0.178646 0.077744 0.472688 -0.150858
C94   C     C_R   0.755203 0.574086 0.925324 -0.003574
C95   C     C_R   0.779354 0.977365 0.028480 0.028719
C96   C     C_R   0.191295 0.061401 0.958198 -0.005587
C97   C     C_R   0.279354 0.477365 0.028480 0.028719
C98   C     C_R   0.691295 0.561401 0.958198 -0.005588
C99   C     C_R   0.779256 0.989438 0.956134 -0.004832
C100  C     C_R   0.185442 0.067964 0.030395 0.007923
C101  C     C_R   0.279256 0.489438 0.956134 -0.004832
C102  C     C_R   0.685442 0.567964 0.030395 0.007923
C103  C     C_R   0.706438 0.166396 0.968972 -0.038415
C104  C     C_R   0.312970 0.541981 0.532026 -0.156243
C105  C     C_R   0.310072 0.093462 0.043187 -0.045327
C106  C     C_R   0.206438 0.666395 0.968972 -0.038415
C107  C     C_R   0.810072 0.593462 0.043187 -0.045327
C108  C     C_R   0.709252 0.154361 0.043211 -0.151914
C109  C     C_R   0.315535 0.085304 0.968486 -0.139341
C110  C     C_R   0.209252 0.654361 0.043211 -0.151914
C111  C     C_R   0.815535 0.585304 0.968486 -0.139341
C112  C     C_3   0.849675 0.919632 0.028971 -0.265167
C113  C     C_3   0.124654 0.126768 0.945304 -0.278353
C114  C     C_3   0.349675 0.419632 0.028971 -0.265166
C115  C     C_R   0.678645 0.577745 0.472688 -0.150858
C116  C     C_3   0.624654 0.626768 0.945304 -0.278354
C117  C     C_3   0.848291 0.926943 0.948599 -0.273145
C118  C     C_3   0.117753 0.134078 0.025240 -0.236334
C119  C     C_3   0.348291 0.426943 0.948599 -0.273145
C120  C     C_3   0.617753 0.634079 0.025240 -0.236334
C121  C     C_R   0.749274 0.090640 0.924649 0.020980
C122  C     C_R   0.242962 0.089902 0.074319 0.036507
C123  C     C_R   0.249274 0.590640 0.924649 0.020980
C124  C     C_R   0.742962 0.589902 0.074319 0.036507
C125  C     C_R   0.973372 0.344469 0.648320 0.531940
C126  C     C_R   0.811663 0.041905 0.459118 -0.161387
C127  C     C_R   0.029434 0.347121 0.354175 0.529273
C128  C     C_R   0.473372 0.844469 0.648320 0.531940
C129  C     C_R   0.529434 0.847121 0.354175 0.529273
C130  C     C_R   0.996775 0.344717 0.078093 0.008717
C131  C     C_R   0.979035 0.339303 0.930955 0.019318
C132  C     C_R   0.496775 0.844717 0.078093 0.008717
C133  C     C_R   0.479035 0.839303 0.930955 0.019318
C134  C     C_R   0.005283 0.447327 0.036573 0.010172
C135  C     C_R   0.995121 0.445499 0.965311 0.013545
C136  C     C_R   0.505283 0.947327 0.036573 0.010172
Cr1   Cr    Cr6+3 0.885860 0.491680 0.749630 1.008009
Cr2   Cr    Cr6+3 0.112430 0.179310 0.249850 1.001157
Cr3   Cr    Cr6+3 0.387570 0.679310 0.750150 0.997979
Cr4   Cr    Cr6+3 0.612430 0.679310 0.249850 1.001157
Cr5   Cr    Cr6+3 0.114140 0.491680 0.250370 1.006599
Cr6   Cr    Cr6+3 0.385860 0.991680 0.749630 1.008009
Cr7   Cr    Cr6+3 0.614140 0.991680 0.250370 1.006599
Cr8   Cr    Cr6+3 0.730490 0.332970 0.748720 0.990404
Cr9   Cr    Cr6+3 0.269510 0.332970 0.251280 0.993182
Cr10  Cr    Cr6+3 0.230490 0.832970 0.748720 0.990404
Cr11  Cr    Cr6+3 0.769510 0.832970 0.251280 0.993182
Cr12  Cr    Cr6+3 0.887570 0.179310 0.750150 0.997979
H1    H     H_    0.857272 0.000775 0.557994 0.156057
H2    H     H_    0.366901 0.084467 0.944322 0.146636
H3    H     H_    0.179320 0.714518 0.077225 0.126323
H4    H     H_    0.866902 0.584467 0.944322 0.146636
H5    H     H_    0.847392 0.826655 0.048788 0.160175
H6    H     H_    0.084573 0.068035 0.920037 0.139694
H7    H     H_    0.347392 0.326655 0.048788 0.160175
H8    H     H_    0.584573 0.568036 0.920037 0.139694
H9    H     H_    0.890232 0.977713 0.053893 0.127203
H10   H     H_    0.132480 0.216171 0.919851 0.134231
H11   H     H_    0.390232 0.477714 0.053893 0.127203
H12   H     H_    0.127315 0.065235 0.449991 0.168049
H13   H     H_    0.632481 0.716172 0.919851 0.134231
H14   H     H_    0.890834 0.982979 0.926852 0.149989
H15   H     H_    0.121791 0.227927 0.045980 0.151359
H16   H     H_    0.390834 0.482979 0.926852 0.149989
H17   H     H_    0.621791 0.727928 0.045980 0.151359
H18   H     H_    0.842863 0.837119 0.922567 0.140087
H19   H     H_    0.074204 0.078749 0.046452 0.144221
H20   H     H_    0.342863 0.337119 0.922567 0.140087
H21   H     H_    0.574204 0.578749 0.046452 0.144221
H22   H     H_    0.940142 0.157689 0.947287 0.132614
H23   H     H_    0.357272 0.500775 0.557994 0.156057
H24   H     H_    0.958135 0.161155 0.077448 0.114222
H25   H     H_    0.440142 0.657690 0.947287 0.132614
H26   H     H_    0.458134 0.661155 0.077448 0.114222
H27   H     H_    0.114882 0.484239 0.044808 0.159092
H28   H     H_    0.032543 0.618295 0.930707 0.135415
H29   H     H_    0.614882 0.984238 0.044808 0.159092
H30   H     H_    0.532543 0.118294 0.930707 0.135415
H31   H     H_    0.055896 0.619905 0.055719 0.139498
H32   H     H_    0.096041 0.489439 0.919379 0.136878
H33   H     H_    0.555896 0.119904 0.055719 0.139498
H34   H     H_    0.627315 0.565235 0.449991 0.168049
H35   H     H_    0.596041 0.989438 0.919379 0.136878
H36   H     H_    0.853321 0.995956 0.431659 0.144743
H37   H     H_    0.139278 0.052660 0.577159 0.136484
H38   H     H_    0.353321 0.495956 0.431659 0.144743
H39   H     H_    0.639278 0.552660 0.577159 0.136484
H40   H     H_    0.138258 0.805560 0.431583 0.141272
H41   H     H_    0.903230 0.711863 0.558137 0.157107
H42   H     H_    0.638258 0.305560 0.431583 0.141272
H43   H     H_    0.403230 0.211864 0.558137 0.157107
H44   H     H_    0.734203 0.327302 0.419255 0.136353
H45   H     H_    0.058457 0.732858 0.585055 0.095098
H46   H     H_    0.320639 0.298954 0.569937 0.132672
H47   H     H_    0.234203 0.827302 0.419255 0.136353
H48   H     H_    0.820640 0.798953 0.569937 0.132672
H49   H     H_    0.750472 0.342523 0.543221 0.159048
H50   H     H_    0.306474 0.311257 0.444057 0.174382
H51   H     H_    0.250473 0.842524 0.543221 0.159048
H52   H     H_    0.806475 0.811257 0.444057 0.174382
H53   H     H_    0.653939 0.330881 0.556457 0.145449
H54   H     H_    0.390705 0.229693 0.430437 0.123481
H55   H     H_    0.153939 0.830881 0.556457 0.145449
H56   H     H_    0.016410 0.757190 0.461899 0.091414
H57   H     H_    0.890705 0.729691 0.430437 0.123481
H58   H     H_    0.974028 0.931226 0.427668 0.095127
H59   H     H_    0.998019 0.917119 0.556880 0.100283
H60   H     H_    0.474028 0.431226 0.427668 0.095127
H61   H     H_    0.498019 0.417119 0.556880 0.100282
H62   H     H_    0.967558 0.124451 0.370202 0.131011
H63   H     H_    0.017062 0.098725 0.626928 0.128440
H64   H     H_    0.467558 0.624451 0.370201 0.131010
H65   H     H_    0.517062 0.598725 0.626928 0.128440
H66   H     H_    0.978195 0.584692 0.393284 0.133427
H67   H     H_    0.558456 0.232858 0.585055 0.095098
H68   H     H_    0.069937 0.532634 0.635796 0.123989
H69   H     H_    0.478195 0.084692 0.393284 0.133427
H70   H     H_    0.569937 0.032634 0.635796 0.123989
H71   H     H_    0.695501 0.338950 0.926929 0.194242
H72   H     H_    0.630187 0.234019 0.894339 0.145118
H73   H     H_    0.623134 0.299069 0.981340 0.102883
H74   H     H_    0.373546 0.176620 0.126788 0.151411
H75   H     H_    0.384175 0.016251 0.115813 0.148396
H76   H     H_    0.420923 0.123953 0.053456 0.123693
H77   H     H_    0.195501 0.838950 0.926929 0.194242
H78   H     H_    0.516410 0.257190 0.461899 0.091414
H79   H     H_    0.130187 0.734019 0.894338 0.145118
H80   H     H_    0.123133 0.799068 0.981340 0.102883
H81   H     H_    0.873546 0.676620 0.126788 0.151411
H82   H     H_    0.884175 0.516251 0.115813 0.148396
H83   H     H_    0.920923 0.623953 0.053456 0.123693
H84   H     H_    0.679320 0.214518 0.077225 0.126323
O1    O     O_R   0.957020 0.451640 0.669920 -0.514967
O2    O     O_R   0.168040 0.093290 0.169870 -0.519911
O3    O     O_R   0.331960 0.593290 0.830130 -0.526242
O4    O     O_R   0.668040 0.593290 0.169870 -0.519911
O5    O     O_R   0.945600 0.250580 0.824860 -0.516763
O6    O     O_R   0.054400 0.250580 0.175140 -0.511932
O7    O     O_R   0.445600 0.750580 0.824860 -0.516763
O8    O     O_R   0.554400 0.750580 0.175140 -0.511932
O9    O     O_3   0.834640 0.334650 0.749500 -0.247672
O10   O     O_3   0.165360 0.334650 0.250500 -0.247120
O11   O     O_3   0.334640 0.834650 0.749500 -0.247672
O12   O     O_R   0.042980 0.451640 0.330080 -0.524857
O13   O     O_3   0.665360 0.834650 0.250500 -0.247120
O14   O     O_R   0.821450 0.543440 0.674610 -0.491918
O15   O     O_R   0.178550 0.543440 0.325390 -0.488594
O16   O     O_R   0.321450 0.043440 0.674610 -0.491918
O17   O     O_R   0.678550 0.043440 0.325390 -0.488594
O18   O     O_R   0.715320 0.458650 0.668100 -0.538875
O19   O     O_R   0.284680 0.458650 0.331900 -0.544018
O20   O     O_R   0.215320 0.958650 0.668100 -0.538875
O21   O     O_R   0.784680 0.958650 0.331900 -0.544018
O22   O     O_R   0.737170 0.209590 0.674530 -0.504587
O23   O     O_R   0.457020 0.951640 0.669920 -0.514967
O24   O     O_R   0.262830 0.209590 0.325470 -0.504866
O25   O     O_R   0.237170 0.709590 0.674530 -0.504587
O26   O     O_R   0.762830 0.709590 0.325470 -0.504866
O27   O     O_R   0.832710 0.092740 0.669580 -0.525558
O28   O     O_R   0.167290 0.092740 0.330420 -0.527938
O29   O     O_R   0.332710 0.592740 0.669580 -0.525558
O30   O     O_R   0.667290 0.592740 0.330420 -0.527939
O31   O     O_R   0.946290 0.250060 0.676040 -0.506421
O32   O     O_R   0.053710 0.250060 0.323960 -0.506345
O33   O     O_R   0.446290 0.750060 0.676040 -0.506421
O34   O     O_R   0.542980 0.951640 0.330080 -0.524857
O35   O     O_R   0.553710 0.750060 0.323960 -0.506346
O36   O     O_R   0.956270 0.452200 0.830470 -0.525164
O37   O     O_R   0.043730 0.452200 0.169530 -0.524127
O38   O     O_R   0.456270 0.952200 0.830470 -0.525164
O39   O     O_R   0.543730 0.952200 0.169530 -0.524127
O40   O     O_R   0.820760 0.543950 0.823440 -0.512151
O41   O     O_R   0.179240 0.543950 0.176560 -0.512745
O42   O     O_R   0.320760 0.043950 0.823440 -0.512151
O43   O     O_R   0.679240 0.043950 0.176560 -0.512745
O44   O     O_R   0.714570 0.459210 0.828640 -0.530653
O45   O     O_R   0.736470 0.210100 0.823360 -0.513791
O46   O     O_R   0.285430 0.459210 0.171360 -0.520253
O47   O     O_R   0.214570 0.959210 0.828640 -0.530653
O48   O     O_R   0.785430 0.959210 0.171360 -0.520253
O49   O     O_R   0.263530 0.210100 0.176640 -0.511668
O50   O     O_R   0.236470 0.710100 0.823360 -0.513791
O51   O     O_R   0.763530 0.710100 0.176640 -0.511668
O52   O     O_R   0.831960 0.093290 0.830130 -0.526242

loop_
_geom_bond_atom_site_label_1
_geom_bond_atom_site_label_2
_ccdc_geom_bond_type
C35   H44   S    
C33   C45   S    
C74   C83   A    
C8    H27   S    
C90   C95   A    
C48   H55   S    
C43   H46   S    
C57   C76   A    
C86   H45   S    
C95   C99   A    
C81   H68   S    
C29   C33   A    
C94   C111  A    
Cr4   O8    S    
C128  O23   A    
C36   C47   S    
C26   C126  A    
C91   C96   A    
C55   C74   A    
C20   O4    A    
C128  O33   A    
C47   H50   S    
C81   C86   A    
C59   H62   S    
C99   C121  A    
Cr1   O9    S    
C42   H83   S    
C14   O46   A    
C22   C130  S    
C26   C71   S    
C130  C134  A    
C107  C124  A    
C16   O43   A    
C73   C81   A    
Cr2   O28   S    
C48   H51   S    
C27   C31   A    
C28   C32   A    
C62   C66   A    
C58   C70   A    
C98   C102  A    
C75   C76   A    
Cr6   O38   S    
C117  H18   S    
C1    C29   S    
Cr4   O35   S    
C7    C132  A    
C84   H70   S    
C59   C69   A    
C104  H23   S    
C5    C130  A    
C35   H42   S    
Cr3   O3    S    
C103  C121  A    
C87   H56   S    
C56   C73   A    
Cr7   O17   S    
C84   C88   A    
C4    C5    A    
C18   O2    A    
C6    C7    A    
Cr5   O10   S    
Cr8   O44   S    
C27   C60   S    
Cr11  O26   S    
C16   O48   A    
C45   C50   S    
C67   H61   S    
C116  H8    S    
C3    C11   S    
C15   C91   S    
C42   H81   S    
C61   C65   A    
C88   C89   A    
C62   H64   S    
C31   C36   A    
C43   C47   S    
C76   C85   A    
C71   O17   A    
C129  O34   A    
C44   C48   S    
C21   O5    A    
C23   O38   A    
C58   C128  S    
Cr5   O41   S    
C89   H78   S    
Cr9   O49   S    
C19   C123  S    
C34   C51   A    
C4    H22   S    
C9    H28   S    
C24   H39   S    
Cr7   O39   S    
C39   H71   S    
C120  H21   S    
C53   C104  A    
C118  H19   S    
C127  O32   A    
C3    C136  A    
C17   O52   A    
C46   H53   S    
C82   C126  A    
Cr9   O24   S    
Cr8   O45   S    
C34   C46   S    
C20   O51   A    
Cr3   O11   S    
C114  C119  S    
C36   C52   A    
C37   C53   A    
C45   H48   S    
C66   C67   A    
Cr3   O33   S    
C41   H80   S    
Cr4   O30   S    
C92   C97   A    
Cr5   O12   S    
C30   C34   A    
C40   H75   S    
C8    C134  S    
C79   O25   A    
C116  H13   S    
C80   O30   A    
C56   C68   A    
Cr8   O22   S    
Cr11  O21   S    
C116  C120  S    
C47   H54   S    
C99   C117  S    
C28   C49   S    
C132  C136  A    
C52   C93   A    
C25   O39   A    
C32   C37   A    
C55   C69   A    
C9    C135  S    
C22   O37   A    
C55   C127  S    
C26   C30   A    
Cr3   O29   S    
C83   H66   S    
C108  H84   S    
C105  C109  A    
C23   O7    A    
C10   H29   S    
C107  C111  A    
Cr9   O19   S    
Cr2   O32   S    
C119  H16   S    
C134  C135  A    
C65   H59   S    
C117  H14   S    
C15   O47   A    
C109  H2    S    
C2    H37   S    
C90   C108  A    
C92   C110  A    
C18   O49   A    
C96   C100  A    
Cr5   O15   S    
C5    H24   S    
Cr9   O10   S    
C20   C124  S    
C82   H1    S    
C10   C11   S    
C77   O27   A    
C78   O28   A    
C33   C38   A    
C97   C114  S    
C25   C132  S    
C17   O45   A    
C83   C87   A    
C16   C90   S    
C88   H67   S    
C73   C74   A    
C113  H6    S    
C111  H4    S    
C115  H34   S    
Cr11  O48   S    
C6    C133  A    
C95   C112  S    
C112  C117  S    
Cr1   O36   S    
C102  C124  A    
C94   C98   A    
C7    H26   S    
C24   C29   A    
C71   O21   A    
C21   O36   A    
C68   C69   A    
C13   C28   A    
C2    C27   A    
Cr5   O37   S    
C42   C107  S    
Cr10  O50   S    
Cr7   O43   S    
C12   C94   S    
C52   C78   S    
C120  H17   S    
C54   C80   S    
C41   H77   S    
C118  H15   S    
C112  H9    S    
C127  O12   A    
Cr12  O5    S    
C110  H3    S    
C41   C106  S    
C85   C89   A    
C86   C87   A    
C46   H49   S    
C64   H58   S    
C40   H74   S    
C93   H12   S    
C51   C77   S    
Cr11  O51   S    
C38   C54   A    
C54   C115  A    
C125  O31   A    
C56   C125  S    
C13   C104  A    
C49   O15   A    
C31   C43   S    
C42   H82   S    
C17   C121  S    
C79   O29   A    
C96   C113  S    
Cr2   O2    S    
C100  C118  S    
Cr12  O27   S    
C114  H7    S    
C102  C120  S    
Cr8   O18   S    
C44   H47   S    
C13   H38   S    
C12   O40   A    
C19   O3    A    
C39   C103  S    
C6    H25   S    
Cr7   O34   S    
C78   O24   A    
C64   C65   A    
C8    H31   S    
C57   C72   A    
C75   C84   A    
C49   O19   A    
Cr10  O20   S    
Cr4   O4    S    
C10   H33   S    
C39   H73   S    
C35   C46   S    
C119  H20   S    
C22   O6    A    
C41   H79   S    
C126  H36   S    
Cr9   O46   S    
C14   O41   A    
C12   O44   A    
C59   C64   A    
C101  C123  A    
C30   C35   S    
C40   H76   S    
C57   C129  S    
C53   C79   S    
C10   C136  S    
C131  C135  A    
C1    O14   A    
Cr6   O11   S    
C66   H60   S    
C61   H63   S    
C85   H69   S    
C8    C9    S    
Cr10  O11   S    
C105  C122  A    
C103  C108  A    
C113  H10   S    
Cr6   O42   S    
C129  O35   A    
C43   H43   S    
Cr8   O9    S    
Cr1   O40   S    
C58   C75   A    
C4    C131  A    
C63   C67   A    
C23   C133  S    
Cr3   O7    S    
Cr4   O13   S    
C101  C119  S    
C39   H72   S    
C11   H35   S    
C50   H52   S    
C1    O18   A    
C25   O8    A    
Cr6   O23   S    
Cr7   O13   S    
C3    C133  A    
C106  C123  A    
C15   O42   A    
C98   C116  S    
C63   C70   A    
C32   C44   S    
C62   C72   A    
C11   H30   S    
C63   H65   S    
C37   C48   S    
C51   C82   A    
C14   C92   S    
C9    H32   S    
C44   H40   S    
C45   H41   S    
C18   C122  S    
C60   O16   A    
Cr6   O16   S    
C112  H5    S    
Cr12  O9    S    
Cr1   O1    S    
Cr10  O47   S    
C106  C110  A    
C19   O50   A    
Cr12  O52   S    
C2    C93   A    
C77   O22   A    
Cr2   O10   S    
C38   C50   S    
C91   C109  A    
Cr1   O14   S    
C61   C68   A    
C21   C131  S    
Cr2   O6    S    
C100  C122  A    
Cr12  O31   S    
C114  H11   S    
C125  O1    A    
C113  C118  S    
C50   H57   S    
C80   O26   A    
Cr11  O13   S    
C24   C115  A    
C60   O20   A    
Cr10  O25   S    
C70   C72   A    
C97   C101  A    
C40   C105  S    
