data_mof_unit_31251.cif
_audit_creation_date              2012-12-10T20:02:29-0500
_audit_creation_method            fapswitch 2.2
_symmetry_space_group_name_H-M    P1
_symmetry_Int_Tables_number       1
_space_group_crystal_system       triclinic
_cell_length_a                    18.323891
_cell_length_b                    18.428316
_cell_length_c                    18.375388
_cell_angle_alpha                 120.225361
_cell_angle_beta                  120.096342
_cell_angle_gamma                 89.824665
_cell_volume                      4372.91659844

loop_
_atom_site_label
_atom_site_type_symbol
_atom_type_description
_atom_site_fract_x
_atom_site_fract_y
_atom_site_fract_z
_atom_type_partial_charge
C1    C     C_R   0.139291 0.140018 0.779995 0.508871
C2    C     C_R   0.706761 0.783389 0.438509 0.008842
C3    C     C_R   0.847803 0.761805 0.747833 0.173159
C4    C     C_R   0.860185 0.858982 0.219677 0.543060
C5    C     C_R   0.899139 0.743771 0.820734 -0.079174
C6    C     C_R   0.944723 0.683453 0.802859 -0.204607
C7    C     C_R   0.941111 0.641300 0.712861 -0.064150
C8    C     C_R   0.889085 0.655935 0.637371 0.305643
C9    C     C_R   0.841841 0.716715 0.654557 0.065278
C10   C     C_R   0.712914 0.764810 0.052791 -0.013343
C11   C     C_R   0.805899 0.795255 0.107741 0.060150
C12   C     C_R   0.618360 0.736995 0.255578 0.349942
C13   C     C_R   0.845299 0.759065 0.053062 0.241417
C14   C     C_R   0.788966 0.706102 0.944239 -0.162151
C15   C     C_R   0.696055 0.686945 0.891163 -0.015550
C16   C     C_R   0.859835 0.139835 0.500265 0.508272
C17   C     C_R   0.659025 0.710935 0.946738 -0.031852
C18   C     C_3   0.588824 0.753691 0.941257 -0.211630
C19   C     C_3   0.648455 0.813380 0.058932 0.159513
C20   C     C_R   0.244679 0.797153 0.577390 -0.047797
C21   C     C_R   0.187292 0.796932 0.491895 -0.008377
C22   C     C_R   0.178595 0.734181 0.399139 0.122178
C23   C     C_R   0.558835 0.750218 0.180487 0.257848
C24   C     C_R   0.238956 0.685084 0.401722 0.249057
C25   C     C_R   0.297799 0.689149 0.492884 -0.002099
C26   C     C_R   0.294067 0.742702 0.576702 -0.069285
C27   C     C_3   0.340184 0.781221 0.689027 0.043773
C28   C     C_R   0.138298 0.858766 0.498482 0.516320
C29   C     C_3   0.282614 0.842886 0.689283 0.208217
C30   C     C_R   0.205271 0.159729 0.946795 0.064283
C31   C     C_R   0.187985 0.196408 0.891595 -0.008919
C32   C     C_R   0.214926 0.289741 0.946075 -0.167913
C33   C     C_R   0.269051 0.343635 0.053845 -0.152252
C34   C     C_R   0.544404 0.833223 0.212979 -0.165976
C35   C     C_R   0.296826 0.304759 0.108255 -0.003000
C36   C     C_R   0.258818 0.212890 0.053126 0.002639
C37   C     C_3   0.300467 0.144069 0.058408 0.042717
C38   C     C_3   0.239220 0.084261 0.939942 0.197942
C39   C     C_R   0.219445 0.288666 0.561331 -0.005976
C40   C     C_R   0.139985 0.140048 0.499829 0.503967
C41   C     C_R   0.190395 0.195819 0.494372 0.024263
C42   C     C_R   0.206740 0.157636 0.417959 -0.155235
C43   C     C_R   0.260146 0.211407 0.417602 -0.164306
C44   C     C_R   0.297964 0.304044 0.493741 0.034452
C45   C     C_R   0.655534 0.737118 0.447757 0.272008
C46   C     C_R   0.272375 0.341624 0.561167 0.037781
C47   C     C_3   0.326719 0.407865 0.676049 0.011289
C48   C     C_3   0.268343 0.349005 0.676151 -0.247227
C49   C     C_R   0.840961 0.286768 0.580491 -0.005869
C50   C     C_R   0.803498 0.194889 0.505539 -0.001466
C51   C     C_R   0.709838 0.156302 0.436348 -0.144998
C52   C     C_R   0.859232 0.860642 0.499978 0.499480
C53   C     C_R   0.655903 0.210005 0.436641 -0.158805
C54   C     C_R   0.695139 0.303363 0.503953 0.015918
C55   C     C_R   0.787726 0.339960 0.576663 -0.011089
C56   C     C_R   0.696838 0.706892 0.510895 -0.002696
C57   C     C_3   0.858378 0.411803 0.607433 0.196083
C58   C     C_3   0.918200 0.354024 0.614872 0.039911
C59   C     C_R   0.359007 0.638895 0.498855 0.519760
C60   C     C_R   0.640024 0.359910 0.499937 0.509424
C61   C     C_R   0.639981 0.639199 0.779931 0.498324
C62   C     C_R   0.359450 0.359995 0.219910 0.507987
C63   C     C_R   0.359477 0.359918 0.499525 0.528565
C64   C     C_R   0.582451 0.899343 0.318554 0.246699
C65   C     C_R   0.640434 0.643124 0.503206 0.499002
C66   C     C_R   0.640119 0.883726 0.391198 -0.085911
C67   C     C_R   0.791580 0.737088 0.578164 -0.076568
C68   C     C_R   0.657194 0.802965 0.360845 0.018479
C69   C     C_3   0.810503 0.558364 0.460131 -0.076161
C70   C     C_3   0.968002 0.715631 0.064400 -0.120165
C71   C     C_3   0.630958 0.950848 0.126387 -0.125821
C72   C     C_3   0.019862 0.667610 0.264583 -0.279439
C73   C     C_3   0.486441 0.979525 0.283808 -0.146270
C74   C     C_3   0.288065 0.678005 0.307580 -0.093880
C75   C     C_3   0.345231 0.755036 0.808905 -0.326227
C76   C     C_3   0.375419 0.965569 0.727834 -0.121341
C77   C     C_3   0.326416 0.053361 0.124488 -0.291694
C78   C     C_R   0.842073 0.787934 0.573233 -0.145525
C79   C     C_3   0.171737 0.930982 0.829062 -0.091694
C80   C     C_3   0.477816 0.480488 0.835628 -0.284569
C81   C     C_3   0.790172 0.354060 0.429173 -0.122158
C82   C     C_3   0.700356 0.656502 0.210606 -0.103439
C83   C     C_3   0.985677 0.403982 0.797120 -0.304194
C84   C     C_3   0.432467 0.675408 0.010671 -0.145051
C85   C     C_3   0.544065 0.787908 0.453889 -0.113864
C86   C     C_3   0.743431 0.816539 0.790051 -0.282068
C87   C     C_R   0.801261 0.809148 0.502360 -0.035177
H1    H     H_    0.504121 0.846004 0.156177 0.084094
H2    H     H_    0.198271 0.321187 0.906034 0.144687
H3    H     H_    0.292565 0.415159 0.093943 0.156387
H4    H     H_    0.373223 0.165889 0.092773 0.087507
H5    H     H_    0.276161 0.070136 0.903565 0.091675
H6    H     H_    0.669783 0.934118 0.472231 0.128797
H7    H     H_    0.181304 0.086203 0.361007 0.152320
H8    H     H_    0.274566 0.180009 0.360445 0.140611
H9    H     H_    0.318666 0.474344 0.699453 0.140028
H10   H     H_    0.304029 0.316622 0.714447 0.138718
H11   H     H_    0.225168 0.381259 0.699044 0.120503
H12   H     H_    0.985231 0.671215 0.860370 0.104121
H13   H     H_    0.678575 0.085173 0.378518 0.184799
H14   H     H_    0.584114 0.178480 0.380439 0.140122
H15   H     H_    0.882301 0.474489 0.683008 0.143632
H16   H     H_    0.936100 0.330209 0.558987 0.144469
H17   H     H_    0.914443 0.809785 0.624731 0.172446
H18   H     H_    0.906737 0.779127 0.893557 0.134939
H19   H     H_    0.777748 0.591343 0.421840 0.126581
H20   H     H_    0.764575 0.528975 0.468547 0.156694
H21   H     H_    0.821634 0.502871 0.407325 0.135680
H22   H     H_    0.929142 0.650882 0.037948 0.093386
H23   H     H_    0.979599 0.597220 0.701847 0.160663
H24   H     H_    0.038723 0.731889 0.125006 0.146995
H25   H     H_    0.966654 0.709706 0.000571 0.102084
H26   H     H_    0.637781 0.955611 0.192457 0.127302
H27   H     H_    0.559363 0.920147 0.059411 0.093456
H28   H     H_    0.655139 0.019632 0.151175 0.140297
H29   H     H_    0.117479 0.690919 0.246554 0.260889
H30   H     H_    0.017606 0.599578 0.245107 0.144354
H31   H     H_    0.967607 0.661883 0.193893 0.135803
H32   H     H_    0.004184 0.702003 0.322159 0.142629
H33   H     H_    0.429729 0.920183 0.243180 0.114813
H34   H     H_    0.817886 0.684190 0.901176 0.133744
H35   H     H_    0.491755 0.983726 0.228306 0.091385
H36   H     H_    0.471621 0.039292 0.325452 0.142171
H37   H     H_    0.356932 0.716484 0.379805 0.121998
H38   H     H_    0.257413 0.724472 0.290815 0.085318
H39   H     H_    0.293649 0.631207 0.243775 0.153319
H40   H     H_    0.329705 0.660276 0.672748 0.289392
H41   H     H_    0.324054 0.701642 0.813093 0.130236
H42   H     H_    0.315269 0.806733 0.834089 0.148165
H43   H     H_    0.419232 0.785120 0.862155 0.130219
H44   H     H_    0.325325 0.969107 0.663536 0.126114
H45   H     H_    0.580589 0.789527 0.905183 0.154426
H46   H     H_    0.414298 0.923784 0.705988 0.094510
H47   H     H_    0.423145 0.034094 0.793531 0.134397
H48   H     H_    0.281195 0.160363 0.168443 0.273233
H49   H     H_    0.300019 0.025348 0.151106 0.134793
H50   H     H_    0.399005 0.091331 0.185378 0.112627
H51   H     H_    0.316951 0.997314 0.052890 0.156152
H52   H     H_    0.237949 0.922453 0.865880 0.091218
H53   H     H_    0.154337 0.927359 0.759765 0.168686
H54   H     H_    0.120684 0.874961 0.803082 0.138855
H55   H     H_    0.428314 0.349880 0.706308 0.253393
H56   H     H_    0.525772 0.706796 0.908834 0.100275
H57   H     H_    0.547503 0.480114 0.865471 0.144161
H58   H     H_    0.456722 0.469720 0.877534 0.159095
H59   H     H_    0.476746 0.546551 0.850043 0.167523
H60   H     H_    0.718097 0.346698 0.390378 0.120453
H61   H     H_    0.798817 0.290557 0.418129 0.100320
H62   H     H_    0.812938 0.365469 0.389041 0.127104
H63   H     H_    0.764961 0.707609 0.284124 0.109957
H64   H     H_    0.682655 0.667346 0.150189 0.140697
H65   H     H_    0.709987 0.590678 0.184260 0.126577
H66   H     H_    0.047861 0.368437 0.721643 0.267452
H67   H     H_    0.621646 0.801827 0.096113 0.139969
H68   H     H_    0.050919 0.444207 0.874060 0.138779
H69   H     H_    0.962656 0.337924 0.779517 0.161985
H70   H     H_    0.937183 0.439228 0.801057 0.133175
H71   H     H_    0.433536 0.723291 0.991158 0.089430
H72   H     H_    0.392887 0.684914 0.043162 0.122457
H73   H     H_    0.397648 0.607633 0.937458 0.132602
H74   H     H_    0.593961 0.855422 0.503900 0.083163
H75   H     H_    0.538318 0.773435 0.502979 0.123403
H76   H     H_    0.478924 0.790445 0.402846 0.122283
H77   H     H_    0.792143 0.856611 0.730755 0.247203
H78   H     H_    0.413685 0.814368 0.736542 0.133698
H79   H     H_    0.721944 0.875959 0.813701 0.127697
H80   H     H_    0.771662 0.806976 0.852678 0.164025
H81   H     H_    0.683828 0.757882 0.717870 0.151887
H82   H     H_    0.230233 0.828106 0.698401 0.138829
N1    N     N_2   0.106995 0.717029 0.303515 -0.473352
N2    N     N_2   0.315275 0.717773 0.704080 -0.521902
N3    N     N_2   0.279170 0.111507 0.105277 -0.434587
N4    N     N_2   0.419332 0.410774 0.726223 -0.506018
N5    N     N_2   0.996876 0.393212 0.719823 -0.534644
N6    N     N_2   0.809527 0.830614 0.773076 -0.518030
O1    O     O_3   0.000000 0.000000 0.500000 -0.446650
O2    O     O_R   0.384160 0.323450 0.268320 -0.557136
O3    O     O_R   0.384130 0.444860 0.560610 -0.523124
O4    O     O_R   0.115780 0.055050 0.731580 -0.533098
O5    O     O_R   0.555060 0.615780 0.439210 -0.494126
O6    O     O_R   0.384140 0.323430 0.439180 -0.556465
O7    O     O_R   0.676490 0.615760 0.560640 -0.561707
O8    O     O_R   0.676470 0.615740 0.731500 -0.560541
O9    O     O_R   0.384180 0.444900 0.268330 -0.530182
O10   O     O_R   0.384150 0.615750 0.560620 -0.566696
O11   O     O_R   0.555030 0.323430 0.439190 -0.557361
O12   O     O_R   0.823480 0.055090 0.439280 -0.539919
O13   O     O_R   0.823490 0.884220 0.268410 -0.548723
O14   O     O_R   0.944920 0.176520 0.560720 -0.545805
O15   O     O_R   0.115810 0.884200 0.439290 -0.514408
O16   O     O_R   0.115820 0.176530 0.560730 -0.548079
O17   O     O_R   0.944890 0.884180 0.560700 -0.545177
O18   O     O_R   0.115830 0.055100 0.439300 -0.543339
O19   O     O_R   0.823460 0.884190 0.439270 -0.561784
O20   O     O_3   0.894666 0.618253 0.553994 -0.566183
O21   O     O_3   0.938125 0.785988 0.106852 -0.527482
O22   O     O_3   0.683752 0.903273 0.099518 -0.545277
O23   O     O_R   0.115790 0.884180 0.560710 -0.556322
O24   O     O_3   0.568406 0.981127 0.356601 -0.572669
O25   O     O_3   0.235171 0.628236 0.313329 -0.549656
O26   O     O_3   0.333702 0.935576 0.759491 -0.590929
O27   O     O_3   0.170179 0.011611 0.899359 -0.511786
O28   O     O_3   0.839268 0.429501 0.533540 -0.569197
O29   O     O_3   0.631815 0.655664 0.225125 -0.529937
O30   O     O_3   0.520534 0.681636 0.077288 -0.569896
O31   O     O_3   0.563879 0.719565 0.391268 -0.524867
O32   O     O_R   0.115790 0.176500 0.731590 -0.554403
O33   O     O_R   0.944940 0.884220 0.268420 -0.480560
O34   O     O_3   0.499960 0.499960 0.499910 -0.443484
O35   O     O_R   0.384170 0.615770 0.439200 -0.516768
O36   O     O_R   0.676480 0.444870 0.560630 -0.526359
O37   O     O_R   0.555020 0.615730 0.731490 -0.540176
Zn1   Zn    Zn3+2 0.869870 0.956630 0.413250 0.928189
Zn2   Zn    Zn3+2 0.043380 0.130130 0.586750 0.918693
Zn3   Zn    Zn3+2 0.043390 0.956630 0.413260 0.966203
Zn4   Zn    Zn3+2 0.043360 0.956610 0.586740 0.925833
Zn5   Zn    Zn3+2 0.630090 0.543330 0.586660 0.918972
Zn6   Zn    Zn3+2 0.456570 0.543320 0.586650 0.922267
Zn7   Zn    Zn3+2 0.456580 0.369830 0.413160 0.917865
Zn8   Zn    Zn3+2 0.456590 0.543350 0.413170 0.955194

loop_
_geom_bond_atom_site_label_1
_geom_bond_atom_site_label_2
_ccdc_geom_bond_type
C78   C87   A    
C79   H52   S    
O12   Zn1   S    
C45   O31   S    
C63   O6    A    
C60   O11   A    
C27   C29   S    
C85   H74   S    
C41   C42   A    
C18   H45   S    
C35   C36   A    
C86   H79   S    
C1    C31   S    
O23   Zn4   S    
C62   O2    A    
C84   H73   S    
C7    C8    A    
C39   C41   A    
C5    H18   S    
C53   C54   A    
C48   H10   S    
C12   C68   A    
C12   C23   A    
C30   C38   S    
C26   C27   S    
C76   H46   S    
C63   O3    A    
O37   Zn6   S    
H77   N6    S    
O34   Zn6   S    
C36   C37   S    
C16   C50   S    
C80   N4    S    
C86   N6    S    
C2    C68   S    
O1    Zn1   S    
O16   Zn2   S    
C30   C31   A    
C76   H44   S    
C74   H38   S    
C83   H68   S    
C66   C68   A    
C10   C17   A    
H40   N2    S    
C56   C65   S    
C38   H5    S    
C69   O20   S    
O35   Zn8   S    
C71   H26   S    
C8    O20   S    
C75   H41   S    
C52   O17   A    
C73   H35   S    
C54   C55   A    
C84   O30   S    
C69   H21   S    
C47   C48   S    
C45   C56   A    
C53   H14   S    
C8    C9    A    
C73   H36   S    
C13   O21   S    
C72   H30   S    
O6    Zn7   S    
C43   H8    S    
C47   H9    S    
O1    Zn4   S    
C4    O33   A    
C77   H49   S    
O15   Zn3   S    
C82   H64   S    
C75   H43   S    
C40   O18   A    
C23   C34   A    
C80   H59   S    
C79   H53   S    
C2    C45   A    
C73   H33   S    
C13   C14   A    
C23   O30   S    
C85   H75   S    
C58   N5    S    
C67   C78   A    
O2    Zn7   S    
C12   O29   S    
C84   H72   S    
C44   C46   A    
C85   O31   S    
C71   O22   S    
H55   N4    S    
C20   C29   S    
C44   C63   S    
C69   H20   S    
O36   Zn5   S    
C19   O22   S    
C61   O8    A    
O10   Zn6   S    
C37   H4    S    
C78   H17   S    
O34   Zn7   S    
C52   O19   A    
C24   C25   A    
C81   O28   S    
C10   C11   A    
C84   H71   S    
C76   O26   S    
C18   C19   S    
C54   C60   S    
C83   H69   S    
C80   H57   S    
C25   C26   A    
C49   C55   A    
H66   N5    S    
O32   Zn2   S    
C28   O23   A    
C49   C58   S    
C71   H27   S    
C64   O24   S    
C51   C53   A    
C61   O37   A    
C64   C66   A    
O4    Zn4   S    
C43   C44   A    
C9    C67   S    
C37   C38   S    
C3    C9    A    
C70   H22   S    
C22   N1    S    
C31   C32   A    
C83   H70   S    
C10   C19   S    
C69   H19   S    
C81   H61   S    
C57   O28   S    
C34   C64   A    
C17   C18   S    
C15   C61   S    
O1    Zn3   S    
C71   H28   S    
C2    C87   A    
C50   C51   A    
C34   H1    S    
H48   N3    S    
C77   H51   S    
C4    C11   S    
C57   H15   S    
C82   H63   S    
C70   H25   S    
C27   H78   S    
C66   H6    S    
C79   O27   S    
C3    N6    S    
C80   H58   S    
C21   C28   S    
C74   O25   S    
C74   H39   S    
O33   Zn3   S    
C1    O4    A    
C39   C46   A    
C32   H2    S    
C75   N2    S    
C85   H76   S    
C37   N3    S    
O1    Zn2   S    
O5    Zn8   S    
C42   C43   A    
C27   N2    S    
C51   H13   S    
C15   C17   A    
C46   C47   S    
C40   C41   S    
C76   H47   S    
C42   H7    S    
O34   Zn8   S    
O3    Zn6   S    
C52   C87   S    
C86   H80   S    
C77   H50   S    
C3    C5    A    
C16   O12   A    
C28   O15   A    
O13   Zn1   S    
C59   O35   A    
C70   O21   S    
C6    C7    A    
C65   O5    A    
C79   H54   S    
C56   C67   A    
C48   H11   S    
O11   Zn7   S    
C70   H24   S    
C7    H23   S    
C30   C36   A    
O19   Zn1   S    
O34   Zn5   S    
C6    H12   S    
C4    O13   A    
C55   C57   S    
C18   H56   S    
O14   Zn2   S    
C33   H3    S    
C32   C33   A    
C82   O29   S    
C11   C13   A    
C29   O26   S    
C81   H60   S    
C57   C58   S    
C5    C6    A    
C40   O16   A    
C20   C26   A    
C77   N3    S    
C81   H62   S    
C73   O24   S    
C72   H32   S    
C33   C35   A    
C59   O10   A    
C35   C62   S    
C22   C24   A    
C65   O7    A    
C1    O32   A    
C60   O36   A    
C16   O14   A    
C62   O9    A    
C75   H42   S    
O9    Zn8   S    
C20   C21   A    
C24   O25   S    
O7    Zn5   S    
O8    Zn5   S    
C49   C50   A    
C38   O27   S    
C83   N5    S    
C72   H31   S    
C14   H34   S    
C19   H67   S    
C86   H81   S    
C14   C15   A    
C25   C59   S    
C58   H16   S    
C47   N4    S    
C29   H82   S    
C21   C22   A    
O17   Zn4   S    
C82   H65   S    
H29   N1    S    
O18   Zn3   S    
C72   N1    S    
C39   C48   S    
C74   H37   S    
