data_mof_unit_34600.cif
_audit_creation_date              2012-12-10T20:30:14-0500
_audit_creation_method            fapswitch 2.2
_symmetry_space_group_name_H-M    P1
_symmetry_Int_Tables_number       1
_space_group_crystal_system       triclinic
_cell_length_a                    9.910978
_cell_length_b                    10.670062
_cell_length_c                    13.099152
_cell_angle_alpha                 90.693045
_cell_angle_beta                  69.879423
_cell_angle_gamma                 90.065642
_cell_volume                      1300.60284222

loop_
_atom_site_label
_atom_site_type_symbol
_atom_type_description
_atom_site_fract_x
_atom_site_fract_y
_atom_site_fract_z
_atom_type_partial_charge
C1    C     C_R   0.501342 0.739863 0.496723 0.916386
C2    C     C_R   0.367174 0.490627 0.822624 -0.111019
C3    C     C_R   0.380702 0.936228 0.492185 0.094810
C4    C     C_R   0.419900 0.494889 0.704176 0.878549
C5    C     C_R   0.506937 0.871232 0.480384 -0.102883
C6    C     C_R   0.638717 0.934500 0.447645 -0.181459
C7    C     C_R   0.638914 0.064291 0.448112 -0.228158
C8    C     C_R   0.507222 0.128466 0.480073 -0.084168
C9    C     C_R   0.380932 0.063936 0.491700 0.132174
C10   C     C_3   0.237312 0.073037 0.579756 -0.510911
C11   C     C_3   0.237266 0.931093 0.580620 -0.365214
C12   C     C_R   0.429713 0.480048 0.985485 0.103523
C13   C     C_R   0.886759 0.493557 0.595113 0.005657
C14   C     C_R   0.971031 0.499040 0.405210 -0.077025
C15   C     C_R   0.114456 0.500077 0.405203 -0.082856
C16   C     C_R   0.501454 0.260132 0.496589 0.856145
C17   C     C_R   0.028662 0.487907 0.594552 0.095571
C18   C     C_3   0.997034 0.566959 0.694094 0.143515
C19   C     C_3   0.843785 0.580743 0.693045 0.287313
C20   C     C_R   0.580052 0.498436 0.295745 0.846247
C21   C     C_R   0.759740 0.350375 0.022839 -0.199521
C22   C     C_R   0.628115 0.477648 0.179043 -0.049148
C23   C     C_R   0.454041 0.440518 0.877691 0.089898
C24   C     C_R   0.239782 0.554191 0.880910 -0.179617
C25   C     C_R   0.203107 0.575117 0.991856 -0.142918
C26   C     C_R   0.298552 0.541676 0.043701 -0.187826
C27   C     C_R   0.537846 0.456833 0.030404 0.086267
C28   C     C_R   0.655083 0.376298 0.975888 0.163873
C29   C     C_R   0.664561 0.321692 0.876401 -0.269533
C30   C     C_R   0.565841 0.354211 0.827181 -0.226827
C31   C     C_R   0.533540 0.513680 0.127568 -0.249846
C32   C     C_R   0.744628 0.398986 0.125632 -0.200968
H1    H     H_    0.818391 0.369704 0.165566 0.149482
H2    H     H_    0.763860 0.539072 0.765741 0.053715
H3    H     H_    0.751042 0.257282 0.834840 0.161146
H4    H     H_    0.849178 0.288360 0.982352 0.143087
H5    H     H_    0.452402 0.582383 0.168289 0.143083
H6    H     H_    0.171434 0.592079 0.840175 0.151808
H7    H     H_    0.265643 0.562592 0.129562 0.119641
H8    H     H_    0.103722 0.622968 0.036806 0.146312
H9    H     H_    0.578084 0.311627 0.749076 0.168160
H10   H     H_    0.739674 0.884740 0.427976 0.191754
H11   H     H_    0.063547 0.717157 0.744464 0.338497
H12   H     H_    0.740035 0.113419 0.429983 0.167871
H13   H     H_    0.892117 0.872738 0.544348 0.356174
H14   H     H_    0.242692 0.116315 0.655949 0.204575
H15   H     H_    0.154161 0.113161 0.550223 0.208635
H16   H     H_    0.243201 0.891886 0.657247 0.216418
H17   H     H_    0.153831 0.889326 0.551813 0.254726
H18   H     H_    0.952039 0.499879 0.328717 0.123559
H19   H     H_    0.201831 0.502139 0.328340 0.132181
H20   H     H_    0.004720 0.512790 0.764003 0.039229
N1    N     N_R   0.856940 0.500860 0.500710 -0.062742
N2    N     N_R   0.142580 0.500820 0.500710 -0.054546
O1    O     O_R   0.385310 0.683210 0.499990 -0.580291
O2    O     O_2   0.636817 0.745512 0.692219 -0.282167
O3    O     O_2   0.830647 0.826523 0.747880 -0.321912
O4    O     O_3   0.886905 0.780105 0.541851 -0.547162
O5    O     O_R   0.614650 0.683240 0.500000 -0.541171
O6    O     O_R   0.328390 0.499940 0.653610 -0.598590
O7    O     O_R   0.557730 0.499980 0.653620 -0.588668
O8    O     O_R   0.385350 0.316760 0.500000 -0.618408
O9    O     O_R   0.614690 0.316790 0.500010 -0.636905
O10   O     O_R   0.442270 0.500020 0.346380 -0.627009
O11   O     O_R   0.671610 0.500060 0.346390 -0.633850
O12   O     O_3   0.078724 0.677020 0.672714 -0.677086
S1    S     S_3+6 0.795486 0.738005 0.670469 0.066135
Zn1   Zn    Zn3+2 0.346870 0.499980 0.499990 0.985958
Zn2   Zn    Zn3+2 0.653130 0.500020 0.500010 0.998329

loop_
_geom_bond_atom_site_label_1
_geom_bond_atom_site_label_2
_ccdc_geom_bond_type
C20   O10   A    
C2    C4    S    
C23   C30   A    
C30   H9    S    
C19   S1    S    
C29   C30   A    
C11   H17   S    
C16   O9    A    
C15   H19   S    
C18   O12   S    
O2    S1    D    
C9    C10   S    
C20   O11   A    
C24   H6    S    
C13   C17   A    
N1    Zn2   S    
C32   H1    S    
C4    O6    A    
C20   C22   S    
O1    Zn1   S    
C1    O1    A    
C18   H20   S    
C7    C8    A    
C8    C16   S    
C21   H4    S    
C7    H12   S    
C17   N2    A    
C12   C23   A    
C11   H16   S    
C14   H18   S    
C22   C32   A    
O3    S1    D    
H11   O12   S    
C3    C9    A    
O10   Zn1   S    
C28   C29   A    
C21   C28   A    
O5    Zn2   S    
C17   C18   S    
C6    C7    A    
C13   N1    A    
O8    Zn1   S    
C1    O5    A    
C25   H8    S    
C2    C24   A    
C5    C6    A    
H13   O4    S    
C21   C32   A    
C1    C5    S    
C26   H7    S    
N2    Zn1   S    
C22   C31   A    
C13   C19   S    
C12   C27   A    
C27   C31   A    
C15   N2    A    
O9    Zn2   S    
O4    S1    S    
C2    C23   A    
C14   N1    A    
C3    C11   S    
C24   C25   A    
O6    Zn1   S    
C18   C19   S    
C10   C11   S    
O7    Zn2   S    
C10   H15   S    
O11   Zn2   S    
C29   H3    S    
C14   C15   A    
C3    C5    A    
C25   C26   A    
C10   H14   S    
C6    H10   S    
C4    O7    A    
C16   O8    A    
C31   H5    S    
C12   C26   A    
C8    C9    A    
C27   C28   A    
C19   H2    S    
