data_mof_unit_36606.cif
_audit_creation_date              2012-12-10T17:15:55-0500
_audit_creation_method            fapswitch 2.2
_symmetry_space_group_name_H-M    P1
_symmetry_Int_Tables_number       1
_space_group_crystal_system       triclinic
_cell_length_a                    10.128305
_cell_length_b                    10.601467
_cell_length_c                    10.758703
_cell_angle_alpha                 89.777675
_cell_angle_beta                  95.285233
_cell_angle_gamma                 80.477447
_cell_volume                      1134.23757621

loop_
_atom_site_label
_atom_site_type_symbol
_atom_type_description
_atom_site_fract_x
_atom_site_fract_y
_atom_site_fract_z
_atom_type_partial_charge
Br1   Br    Br    0.257615 0.171037 0.659657 -0.429754
Br2   Br    Br    0.894664 0.333988 0.321445 -0.403712
Br3   Br    Br    0.099203 0.688222 0.655704 -0.408920
Br4   Br    Br    0.822162 0.176322 0.668671 -0.399724
Br5   Br    Br    0.976272 0.822634 0.293525 -0.467864
C1    C     C_R   0.443721 0.503516 0.267028 0.945978
C2    C     C_2   0.489994 0.445334 0.934316 -0.116539
C3    C     C_2   0.074290 0.485478 0.495265 0.084059
C4    C     C_R   0.506784 0.260758 0.521750 0.919069
C5    C     C_2   0.927910 0.505914 0.513320 0.029163
C6    C     C_R   0.556581 0.488025 0.733513 0.881827
C7    C     C_R   0.497301 0.741529 0.490594 0.918321
C8    C     C_R   0.766846 0.067309 0.538090 0.297282
C9    C     C_R   0.867699 0.997927 0.473822 -0.146823
C10   C     C_R   0.837621 0.904326 0.390264 0.236374
C11   C     C_R   0.709255 0.868459 0.382378 0.061366
C12   C     C_R   0.633536 0.041401 0.518922 -0.064327
C13   C     C_R   0.612431 0.927668 0.461157 0.017889
C14   C     C_R   0.518480 0.125477 0.550974 -0.156919
C15   C     C_R   0.402828 0.076957 0.576791 0.270912
C16   C     C_R   0.394499 0.952361 0.548141 -0.208103
C17   C     C_R   0.497023 0.877464 0.489271 -0.125351
C18   C     C_2   0.411471 0.490708 0.134798 -0.343145
C19   C     C_2   0.509363 0.436629 0.068094 -0.136754
C20   C     C_2   0.589689 0.466120 0.867105 -0.057752
H1    H     H_    0.311369 0.528682 0.091638 0.188226
H2    H     H_    0.789065 0.478285 0.857448 0.232201
H3    H     H_    0.719913 0.549238 0.979886 0.203157
H4    H     H_    0.889135 0.570858 0.583750 0.160115
H5    H     H_    0.115282 0.411716 0.433615 0.173901
H6    H     H_    0.969311 0.018277 0.487418 0.222703
H7    H     H_    0.308053 0.913896 0.574337 0.225486
H8    H     H_    0.388366 0.445576 0.891436 0.199994
H9    H     H_    0.609100 0.397916 0.111729 0.234761
H10   H     H_    0.741755 0.697392 0.296619 0.242551
H11   H     H_    0.680292 0.823963 0.200345 0.218490
N1    N     N_2   0.157290 0.551390 0.551110 0.004762
N2    N     N_2   0.842740 0.448550 0.448960 -0.000313
N3    N     N_3   0.672681 0.782638 0.287243 -0.423942
N4    N     N_3   0.723662 0.467777 0.924956 -0.397172
O1    O     O_R   0.568950 0.489660 0.307530 -0.596319
O2    O     O_R   0.348880 0.522640 0.340350 -0.599757
O3    O     O_R   0.610060 0.300270 0.483590 -0.572573
O4    O     O_R   0.389990 0.333260 0.516410 -0.599290
O5    O     O_R   0.651120 0.477360 0.659650 -0.606913
O6    O     O_R   0.431050 0.510340 0.692470 -0.594328
O7    O     O_R   0.610010 0.666740 0.483590 -0.625999
O8    O     O_R   0.389940 0.699730 0.516410 -0.582349
Zn1   Zn    Zn3+2 0.646940 0.477980 0.478090 1.032602
Zn2   Zn    Zn3+2 0.353060 0.522020 0.521910 1.063455

loop_
_geom_bond_atom_site_label_1
_geom_bond_atom_site_label_2
_ccdc_geom_bond_type
H10   N3    S    
C18   C19   D    
H3    N4    S    
O5    Zn1   S    
Br2   N2    S    
C14   C15   A    
C2    C20   D    
C8    C12   A    
H2    N4    S    
C5    N2    D    
C3    H5    S    
O8    Zn2   S    
C12   C13   A    
O7    Zn1   S    
N2    Zn1   S    
C13   C17   A    
C16   C17   A    
N1    Zn2   S    
C2    H8    S    
C5    H4    S    
O2    Zn2   S    
C7    O7    A    
C1    C18   S    
Br1   C15   S    
O1    Zn1   S    
C12   C14   A    
C7    O8    A    
C6    O5    A    
C20   N4    S    
C3    C5    S    
C16   H7    S    
C4    O3    A    
Br5   C10   S    
C3    N1    D    
C6    C20   S    
C11   N3    S    
C2    C19   S    
C7    C17   S    
C15   C16   A    
Br3   N1    S    
C11   C13   A    
C1    O2    A    
C18   H1    S    
O4    Zn2   S    
Br4   C8    S    
C9    H6    S    
O6    Zn2   S    
C9    C10   A    
O3    Zn1   S    
C6    O6    A    
C8    C9    A    
C4    C14   S    
H11   N3    S    
C19   H9    S    
C10   C11   A    
C4    O4    A    
C1    O1    A    
