data_mof_unit_53212.cif
_audit_creation_date              2012-12-10T18:24:40-0500
_audit_creation_method            fapswitch 2.2
_symmetry_space_group_name_H-M    P1
_symmetry_Int_Tables_number       1
_space_group_crystal_system       triclinic
_cell_length_a                    13.996642
_cell_length_b                    15.012129
_cell_length_c                    16.720542
_cell_angle_alpha                 89.870532
_cell_angle_beta                  84.963675
_cell_angle_gamma                 89.900531
_cell_volume                      3499.73302854

loop_
_atom_site_label
_atom_site_type_symbol
_atom_type_description
_atom_site_fract_x
_atom_site_fract_y
_atom_site_fract_z
_atom_type_partial_charge
C1    C     C_R   0.499978 0.673509 0.500023 0.891655
C2    C     C_R   0.413601 0.907098 0.515847 0.091729
C3    C     C_R   0.499396 0.046273 0.502615 0.035264
C4    C     C_R   0.500894 0.953692 0.502022 0.035187
C5    C     C_R   0.410918 0.092581 0.517006 0.072570
C6    C     C_R   0.589341 0.907405 0.487333 0.072407
C7    C     C_R   0.673796 0.047753 0.474302 -0.237362
C8    C     C_R   0.326545 0.952201 0.530644 -0.237135
C9    C     C_R   0.677206 0.954526 0.473163 0.096942
C10   C     C_R   0.323135 0.045444 0.531767 0.096950
C11   C     C_R   0.198213 0.431567 0.536071 -0.069037
C12   C     C_R   0.500002 0.326488 0.500387 0.894749
C13   C     C_R   0.801780 0.568448 0.463946 -0.071345
C14   C     C_R   0.205539 0.568341 0.463888 -0.066817
C15   C     C_R   0.794463 0.431664 0.536114 -0.066240
C16   C     C_R   0.486605 0.504817 0.653170 0.872894
C17   C     C_R   0.513471 0.498852 0.346571 0.878003
C18   C     C_R   0.104925 0.570170 0.463218 0.015212
C19   C     C_R   0.895072 0.429851 0.536804 0.015256
C20   C     C_R   0.050613 0.500004 0.499999 0.085644
C21   C     C_R   0.949381 0.500025 0.500034 0.085712
C22   C     C_R   0.097482 0.429827 0.536763 0.018573
C23   C     C_R   0.413034 0.185381 0.516005 -0.272983
C24   C     C_R   0.902510 0.570200 0.463267 0.019189
C25   C     C_R   0.057564 0.640092 0.426832 -0.213043
C26   C     C_R   0.942432 0.359930 0.573193 -0.212854
C27   C     C_R   0.957194 0.640062 0.426830 -0.215489
C28   C     C_R   0.042799 0.359963 0.573200 -0.215500
C29   C     C_R   0.478288 0.532424 0.736651 -0.062970
C30   C     C_R   0.522391 0.496993 0.259545 -0.066157
C31   C     C_R   0.552965 0.581981 0.765151 -0.237095
C32   C     C_R   0.445939 0.465626 0.219002 -0.241012
C33   C     C_R   0.546393 0.612571 0.844015 0.143969
C34   C     C_R   0.587078 0.814635 0.487056 -0.275168
C35   C     C_R   0.450739 0.467794 0.135401 0.148293
C36   C     C_R   0.464987 0.588593 0.895371 0.166866
C37   C     C_R   0.532305 0.507014 0.093361 0.166682
C38   C     C_R   0.387012 0.546018 0.864949 -0.198228
C39   C     C_R   0.610899 0.533036 0.133722 -0.199002
C40   C     C_R   0.393421 0.518267 0.785544 -0.206152
C41   C     C_R   0.606264 0.527654 0.216681 -0.207663
C42   C     C_2   0.470043 0.583414 0.981599 -0.276979
C43   C     C_2   0.535115 0.528208 0.008598 -0.261347
C44   C     C_3   0.368455 0.428002 0.094038 -0.455255
C45   C     C_R   0.499780 0.230674 0.501556 -0.068053
C46   C     C_3   0.362091 0.326919 0.107466 -0.332909
C47   C     C_3   0.281554 0.286414 0.063548 -0.884920
C48   C     C_3   0.628337 0.666843 0.872169 -0.452416
C49   C     C_3   0.636077 0.757599 0.829646 -0.334220
C50   C     C_3   0.717333 0.813092 0.858851 -0.881907
C51   C     C_3   0.772364 0.904597 0.456904 -0.425582
C52   C     C_3   0.862758 0.962313 0.441062 -0.340517
C53   C     C_3   0.952365 0.904686 0.425159 -0.900682
C54   C     C_3   0.228018 0.095373 0.548284 -0.425721
C55   C     C_3   0.137812 0.037645 0.565286 -0.340098
C56   C     C_R   0.500233 0.769311 0.500505 -0.066490
C57   C     C_3   0.048226 0.095239 0.581499 -0.901750
C58   C     C_R   0.586143 0.184861 0.488337 -0.251789
C59   C     C_R   0.413981 0.815076 0.514798 -0.250670
C60   C     C_R   0.586662 0.092851 0.488535 0.092190
H1    H     H_    0.616714 0.597077 0.725920 0.160701
H2    H     H_    0.751384 0.378561 0.564335 0.135050
H3    H     H_    0.666372 0.551176 0.247389 0.156570
H4    H     H_    0.333934 0.482639 0.763356 0.153506
H5    H     H_    0.591794 0.499159 0.968141 0.166189
H6    H     H_    0.411970 0.610398 0.021873 0.165339
H7    H     H_    0.324388 0.527782 0.904296 0.134199
H8    H     H_    0.674028 0.561514 0.101201 0.138978
H9    H     H_    0.211512 0.316381 0.085477 0.261621
H10   H     H_    0.294820 0.297895 0.997852 0.260306
H11   H     H_    0.278260 0.213511 0.074794 0.250400
H12   H     H_    0.382274 0.439455 0.252528 0.157745
H13   H     H_    0.431167 0.295303 0.084995 0.227330
H14   H     H_    0.348310 0.311751 0.172528 0.220486
H15   H     H_    0.300308 0.460236 0.117976 0.197333
H16   H     H_    0.376436 0.439792 0.028413 0.223409
H17   H     H_    0.704322 0.825754 0.924337 0.260694
H18   H     H_    0.786941 0.777920 0.846491 0.261298
H19   H     H_    0.721372 0.878078 0.826891 0.250508
H20   H     H_    0.649848 0.748394 0.763710 0.221572
H21   H     H_    0.567493 0.794672 0.841704 0.227389
H22   H     H_    0.618588 0.679002 0.937833 0.223363
H23   H     H_    0.098087 0.694749 0.398377 0.142047
H24   H     H_    0.696378 0.629021 0.859730 0.197780
H25   H     H_    0.347627 0.223540 0.526616 0.152604
H26   H     H_    0.652446 0.776522 0.475947 0.152976
H27   H     H_    0.653155 0.220859 0.477067 0.155678
H28   H     H_    0.346947 0.779027 0.525642 0.155875
H29   H     H_    0.738601 0.086719 0.463928 0.138062
H30   H     H_    0.261756 0.913230 0.541115 0.138159
H31   H     H_    0.962934 0.862225 0.478183 0.264455
H32   H     H_    0.946081 0.861679 0.371922 0.256383
H33   H     H_    0.016105 0.948121 0.413031 0.250716
H34   H     H_    0.901910 0.305268 0.601640 0.142004
H35   H     H_    0.856010 0.005335 0.387636 0.223278
H36   H     H_    0.871876 0.004884 0.494118 0.221828
H37   H     H_    0.782409 0.861269 0.509567 0.202851
H38   H     H_    0.767208 0.861457 0.403470 0.197063
H39   H     H_    0.055026 0.138678 0.634374 0.256752
H40   H     H_    0.037029 0.137265 0.528336 0.264192
H41   H     H_    0.984618 0.051786 0.594335 0.250854
H42   H     H_    0.128095 0.994619 0.512651 0.221702
H43   H     H_    0.145287 0.995072 0.618879 0.223381
H44   H     H_    0.233701 0.139089 0.601267 0.197109
H45   H     H_    0.922315 0.694569 0.398311 0.141011
H46   H     H_    0.217341 0.138130 0.495386 0.203118
H47   H     H_    0.077676 0.305448 0.601710 0.141681
H48   H     H_    0.235532 0.378463 0.564334 0.127527
H49   H     H_    0.764454 0.621548 0.435681 0.127221
H50   H     H_    0.248622 0.621432 0.435651 0.135261
N1    N     N_R   0.249970 0.499930 0.499970 -0.100698
N2    N     N_R   0.750030 0.500070 0.500030 -0.100864
O1    O     O_R   0.419720 0.632140 0.499990 -0.628939
O2    O     O_R   0.580280 0.367860 0.500010 -0.628244
O3    O     O_R   0.580270 0.632160 0.499980 -0.634086
O4    O     O_R   0.419730 0.367840 0.500020 -0.631073
O5    O     O_R   0.410240 0.500000 0.615800 -0.614723
O6    O     O_R   0.589760 0.500000 0.384200 -0.616310
O7    O     O_R   0.570790 0.500020 0.615800 -0.618247
O8    O     O_R   0.429210 0.499980 0.384200 -0.616482
Zn1   Zn    Zn3+2 0.392800 0.499980 0.500010 0.941713
Zn2   Zn    Zn3+2 0.607200 0.500020 0.499990 0.939021

loop_
_geom_bond_atom_site_label_1
_geom_bond_atom_site_label_2
_ccdc_geom_bond_type
C51   H37   S    
C38   C40   A    
C34   C56   A    
C23   C45   A    
N1    Zn1   S    
C39   H8    S    
C14   C18   A    
C36   C42   S    
C9    C51   S    
C24   C27   A    
C50   H19   S    
C6    C9    A    
C39   C41   A    
C52   C53   S    
C15   C19   A    
C55   H42   S    
C54   H44   S    
C35   C37   A    
C1    C56   S    
C13   N2    A    
C34   H26   S    
C32   H12   S    
C27   H45   S    
C28   H47   S    
C58   C60   A    
C7    H29   S    
C55   H43   S    
C33   C36   A    
C52   H35   S    
C14   H50   S    
O6    Zn2   S    
C49   H21   S    
C44   H16   S    
C19   C26   A    
C31   H1    S    
C59   H28   S    
C47   H9    S    
C13   H49   S    
C17   O8    A    
C46   C47   S    
C53   H31   S    
C31   C33   A    
C30   C41   A    
C3    C60   A    
C51   H38   S    
O3    Zn2   S    
C22   C28   A    
C58   H27   S    
C17   C30   S    
C18   C25   A    
C1    O1    A    
C50   H18   S    
C44   C46   S    
C12   O2    A    
C14   N1    A    
C45   C58   A    
O4    Zn1   S    
C54   H46   S    
C11   N1    A    
C51   C52   S    
C32   C35   A    
C4    C6    A    
C16   O7    A    
C2    C59   A    
C16   C29   S    
C57   H40   S    
C53   H33   S    
C6    C34   A    
C13   C24   A    
C37   C43   S    
C44   H15   S    
C2    C4    A    
C47   H10   S    
N2    Zn2   S    
C5    C23   A    
C43   H5    S    
C53   H32   S    
C38   H7    S    
C35   C44   S    
C47   H11   S    
C17   O6    A    
C8    C10   A    
C48   C49   S    
C20   C22   A    
C26   H34   S    
C55   C57   S    
C8    H30   S    
C42   C43   D    
C41   H3    S    
C3    C4    A    
C50   H17   S    
C7    C60   A    
C46   H14   S    
O8    Zn1   S    
C42   H6    S    
O7    Zn2   S    
C7    C9    A    
C54   C55   S    
C19   C21   A    
C15   N2    A    
C2    C8    A    
C12   C45   S    
C3    C5    A    
C49   H20   S    
O5    Zn1   S    
C25   C27   A    
C57   H41   S    
C11   C22   A    
C26   C28   A    
C40   H4    S    
C56   C59   A    
C36   C38   A    
C5    C10   A    
C29   C31   A    
C16   O5    A    
C30   C32   A    
C29   C40   A    
C15   H2    S    
C48   H22   S    
C52   H36   S    
C18   C20   A    
C10   C54   S    
O2    Zn2   S    
C48   H24   S    
O1    Zn1   S    
C20   C21   A    
C37   C39   A    
C49   C50   S    
C23   H25   S    
C21   C24   A    
C11   H48   S    
C25   H23   S    
C33   C48   S    
C1    O3    A    
C46   H13   S    
C12   O4    A    
C57   H39   S    
