data_mof_unit_48410.cif
_audit_creation_date              2013-03-05T16:09:16-0500
_audit_creation_method            fapswitch 2.2
_symmetry_space_group_name_H-M    P1
_symmetry_Int_Tables_number       1
_space_group_crystal_system       triclinic
_cell_length_a                    8.604643
_cell_length_b                    10.705053
_cell_length_c                    9.900205
_cell_angle_alpha                 90.367853
_cell_angle_beta                  97.852191
_cell_angle_gamma                 91.410177
_cell_volume                      903.07097549

loop_
_atom_site_label
_atom_site_type_symbol
_atom_site_description
_atom_site_fract_x
_atom_site_fract_y
_atom_site_fract_z
_atom_type_partial_charge
O1    O     O_R   0.499990 0.316750 0.614620 -0.569003
O2    O     O_R   0.500010 0.683250 0.385380 -0.569001
O3    O     O_R   0.499990 0.316780 0.385290 -0.584363
O4    O     O_R   0.500010 0.683220 0.614710 -0.584351
C1    C     C_R   0.500128 0.260397 0.499306 0.991067
C2    C     C_R   0.499872 0.739603 0.500694 0.991073
O5    O     O_R   0.271750 0.499990 0.587840 -0.604361
O6    O     O_R   0.728250 0.500010 0.412160 -0.604365
O7    O     O_R   0.271750 0.500010 0.358510 -0.579122
O8    O     O_R   0.728250 0.499990 0.641490 -0.579122
C3    C     C_R   0.201896 0.496958 0.465239 0.942077
C4    C     C_R   0.798104 0.503043 0.534760 0.942061
Zn1   Zn    Zn3+2 0.500000 0.499980 0.653120 1.127462
Zn2   Zn    Zn3+2 0.500000 0.500020 0.346880 1.127456
N1    N     N_R   0.499960 0.499970 0.857200 -0.171684
N2    N     N_R   0.500040 0.500030 0.142800 -0.171685
C5    C     C_2   0.038739 0.474986 0.451769 0.039704
C6    C     C_2   0.961261 0.525019 0.548231 0.039703
C7    C     C_R   0.401957 0.061663 0.397194 0.204458
C8    C     C_R   0.598034 0.938338 0.602810 0.204481
C9    C     C_R   0.397917 0.932578 0.399781 0.231089
C10   C     C_R   0.602080 0.067422 0.600219 0.231090
C11   C     C_R   0.496795 0.872043 0.502293 -0.318619
C12   C     C_R   0.503202 0.127958 0.497708 -0.318620
C13   C     C_R   0.621125 0.556223 0.084884 0.359232
C14   C     C_R   0.378875 0.443778 0.915115 0.359234
C15   C     C_R   0.620505 0.554569 0.941567 -0.067878
C16   C     C_R   0.379494 0.445431 0.058433 -0.067892
N3    N     N_R   0.971760 0.378705 0.356254 0.223192
O9    O     O_R   0.013707 0.372533 0.235064 -0.262039
O10   O     O_R   0.891236 0.285408 0.397646 -0.299040
N4    N     N_R   0.028239 0.621300 0.643747 0.223197
O11   O     O_R   0.986271 0.627485 0.764927 -0.262042
O12   O     O_R   0.108780 0.714588 0.602361 -0.299056
N5    N     N_R   0.294668 0.124919 0.298663 0.238144
O13   O     O_R   0.340462 0.161214 0.184978 -0.287271
O14   O     O_R   0.145468 0.119911 0.308486 -0.235950
N6    N     N_R   0.705286 0.875085 0.701361 0.238148
O15   O     O_R   0.659448 0.838790 0.815021 -0.287291
O16   O     O_R   0.854488 0.880100 0.691587 -0.235950
N7    N     N_R   0.291513 0.863704 0.299834 0.258967
O17   O     O_R   0.188938 0.784905 0.337971 -0.295792
O18   O     O_R   0.292826 0.883270 0.170392 -0.227766
N8    N     N_R   0.708480 0.136297 0.700168 0.258964
O19   O     O_R   0.811078 0.215080 0.662030 -0.295772
O20   O     O_R   0.707137 0.116751 0.829612 -0.227779
N9    N     N_R   0.749317 0.619746 0.166892 0.233154
O21   O     O_R   0.891332 0.604596 0.139539 -0.281807
O22   O     O_R   0.722424 0.717153 0.238167 -0.301326
N10   N     N_R   0.250681 0.380256 0.833108 0.233156
O23   O     O_R   0.108666 0.395415 0.860454 -0.281815
O24   O     O_R   0.277570 0.282850 0.761833 -0.301319
H1    H     H_    0.715998 0.598866 0.897755 0.237484
H2    H     H_    0.284000 0.401136 0.102245 0.237486

loop_
_geom_bond_atom_site_label_1
_geom_bond_atom_site_label_2
_geom_bond_distance
_ccdc_geom_bond_type
C8    N6    1.433648 S    
N2    C16   1.357324 A    
O5    C3    1.278580 A    
O7    Zn2   1.983020 S    
C15   H1    1.081208 S    
N3    O9    1.301024 A    
N2    C13   1.383102 A    
C13   C15   1.418148 A    
C5    N3    1.448450 S    
N7    O17   1.300636 A    
C13   N9    1.431645 S    
N1    C15   1.357324 A    
N9    O21   1.300961 A    
O1    C1    1.287945 A    
C8    C11   1.405867 A    
O6    C4    1.278579 A    
N4    O11   1.301008 A    
C14   N10   1.431642 S    
C5    C6    1.352148 D    
N9    O22   1.298395 A    
C7    N5    1.433721 S    
N6    O16   1.300411 A    
N7    O18   1.301351 A    
O7    C3    1.285248 A    
O2    C2    1.287948 A    
O3    Zn2   2.000507 S    
O8    C4    1.285248 A    
C7    C12   1.405871 A    
C9    N7    1.439049 S    
C2    C11   1.418698 S    
N5    O14   1.300494 A    
C8    C10   1.381927 A    
N10   O23   1.300954 A    
C10   C12   1.404796 A    
Zn1   N1    2.020483 S    
C9    C11   1.404801 A    
N6    O15   1.300792 A    
O2    Zn2   1.995769 S    
Zn2   N2    2.020481 S    
C6    N4    1.448454 S    
O5    Zn1   1.981972 S    
O1    Zn1   1.995768 S    
N8    O19   1.300657 A    
O4    C2    1.283313 A    
C4    C6    1.405800 S    
N10   O24   1.298381 A    
C16   H2    1.081207 S    
C10   N8    1.439045 S    
C1    C12   1.418693 S    
N1    C14   1.383100 A    
O6    Zn2   1.981971 S    
C7    C9    1.381934 A    
N3    O10   1.301642 A    
C14   C16   1.418148 A    
C3    C5    1.405795 S    
N5    O13   1.300871 A    
O4    Zn1   2.000508 S    
N8    O20   1.301382 A    
O3    C1    1.283314 A    
O8    Zn1   1.983020 S    
N4    O12   1.301634 A    
