data_mof_unit_43021.cif
_audit_creation_date              2012-12-10T17:15:50-0500
_audit_creation_method            fapswitch 2.2
_symmetry_space_group_name_H-M    P1
_symmetry_Int_Tables_number       1
_space_group_crystal_system       triclinic
_cell_length_a                    10.152166
_cell_length_b                    10.690949
_cell_length_c                    10.704881
_cell_angle_alpha                 89.838797
_cell_angle_beta                  95.307138
_cell_angle_gamma                 80.011689
_cell_volume                      1139.14192167

loop_
_atom_site_label
_atom_site_type_symbol
_atom_type_description
_atom_site_fract_x
_atom_site_fract_y
_atom_site_fract_z
_atom_type_partial_charge
C1    C     C_R   0.443714 0.503580 0.266552 0.871986
C2    C     C_R   0.621980 0.037808 0.469537 0.041164
C3    C     C_R   0.508944 0.122779 0.506896 -0.092612
C4    C     C_R   0.389173 0.079980 0.523854 -0.177101
C5    C     C_R   0.380555 0.955017 0.505783 -0.166816
C6    C     C_R   0.488054 0.873362 0.461477 -0.095320
C7    C     C_2   0.411380 0.489955 0.133371 0.231274
C8    C     C_2   0.509099 0.430601 0.067808 -0.157274
C9    C     C_2   0.589572 0.464238 0.866936 0.231739
C10   C     C_2   0.493979 0.432782 0.932896 -0.194520
C11   C     C_2   0.073643 0.488908 0.491939 0.034857
C12   C     C_R   0.503769 0.258467 0.506607 0.842574
C13   C     C_2   0.927038 0.508586 0.510567 0.058579
C14   C     C_R   0.556466 0.487241 0.733533 0.841850
C15   C     C_R   0.495004 0.739636 0.483977 0.927253
C16   C     C_R   0.754468 0.064509 0.475213 -0.100317
C17   C     C_R   0.853280 0.988093 0.413998 -0.149801
C18   C     C_R   0.821172 0.886461 0.344011 -0.141497
C19   C     C_R   0.694735 0.852491 0.346576 0.391242
C20   C     C_R   0.600419 0.919978 0.423427 0.001883
H1    H     H_    0.302434 0.142375 0.554008 0.182028
H2    H     H_    0.887573 0.575535 0.579341 0.176143
H3    H     H_    0.114002 0.418558 0.426536 0.173210
H4    H     H_    0.785489 0.140671 0.530062 0.193527
H5    H     H_    0.953350 0.010857 0.416848 0.188341
H6    H     H_    0.894663 0.833983 0.287847 0.203372
H7    H     H_    0.291307 0.921804 0.530793 0.196459
H8    H     H_    0.396859 0.420792 0.887242 0.212229
H9    H     H_    0.607513 0.390469 0.113650 0.228763
N1    N     N_2   0.157290 0.551390 0.551110 0.039357
N2    N     N_2   0.842740 0.448550 0.448960 0.046146
O1    O     O_R   0.568950 0.489660 0.307530 -0.557888
O2    O     O_R   0.348880 0.522640 0.340350 -0.592643
O3    O     O_R   0.610060 0.300270 0.483590 -0.613744
O4    O     O_R   0.389990 0.333260 0.516410 -0.638045
O5    O     O_R   0.651120 0.477360 0.659650 -0.593844
O6    O     O_R   0.431050 0.510340 0.692470 -0.588720
O7    O     O_R   0.610010 0.666740 0.483590 -0.603522
O8    O     O_R   0.389940 0.699730 0.516410 -0.585520
Zn1   Zn    Zn3+2 0.646940 0.477980 0.478090 1.075201
Zn2   Zn    Zn3+2 0.353060 0.522020 0.521910 1.064098
Cl1   Cl    Cl    0.249427 0.556250 0.063768 -0.469079
Cl2   Cl    Cl    0.894242 0.340792 0.334890 -0.495621
Cl3   Cl    Cl    0.102878 0.669139 0.655072 -0.464653
Cl4   Cl    Cl    0.651033 0.741670 0.235520 -0.525867
Cl5   Cl    Cl    0.749297 0.484524 0.936286 -0.448874

loop_
_geom_bond_atom_site_label_1
_geom_bond_atom_site_label_2
_ccdc_geom_bond_type
C9    C14   S    
C19   Cl4   S    
N1    Zn2   S    
C10   H8    S    
C6    C20   A    
C9    C10   D    
C16   H4    S    
C19   C20   A    
C18   H6    S    
C9    Cl5   S    
O2    Zn2   S    
C17   C18   A    
C17   H5    S    
C7    C8    D    
C15   O7    A    
C5    H7    S    
C14   O6    A    
O7    Zn1   S    
C4    H1    S    
C11   C13   S    
C15   O8    A    
N2    Cl2   S    
O3    Zn1   S    
C8    H9    S    
C8    C10   S    
C13   H2    S    
C2    C3    A    
N1    Cl3   S    
O1    Zn1   S    
O6    Zn2   S    
C5    C6    A    
O4    Zn2   S    
C1    O2    A    
C3    C4    A    
O5    Zn1   S    
C2    C16   A    
N2    Zn1   S    
O8    Zn2   S    
C18   C19   A    
C7    Cl1   S    
C11   H3    S    
C2    C20   A    
C4    C5    A    
C14   O5    A    
C3    C12   S    
C6    C15   S    
C1    C7    S    
C12   O3    A    
C13   N2    D    
C1    O1    A    
C11   N1    D    
C16   C17   A    
C12   O4    A    
