data_mof_unit_30626.cif
_audit_creation_date              2012-12-11T15:29:45-0500
_audit_creation_method            fapswitch 2.2
_symmetry_space_group_name_H-M    P1
_symmetry_Int_Tables_number       1
_space_group_crystal_system       triclinic
_cell_length_a                    13.49049
_cell_length_b                    13.496614
_cell_length_c                    27.56784
_cell_angle_alpha                 90.461532
_cell_angle_beta                  90.00142
_cell_angle_gamma                 60.020995
_cell_volume                      4347.69471714

loop_
_atom_site_label
_atom_site_type_symbol
_atom_type_description
_atom_site_fract_x
_atom_site_fract_y
_atom_site_fract_z
_atom_type_partial_charge
C1    C     C_R   0.620356 0.101140 0.569889 0.545835
C2    C     C_1   0.649867 0.704073 0.657766 -0.058934
C3    C     C_3   0.091079 0.132661 0.737414 -0.102012
C4    C     C_R   0.599795 0.779143 0.568426 0.545338
C5    C     C_3   0.183171 0.059287 0.775394 -0.100057
C6    C     C_1   0.097757 0.200167 0.900289 -0.012813
C7    C     C_1   0.229652 0.137527 0.617085 -0.016264
C8    C     C_3   0.055532 0.241176 0.768792 -0.102065
C9    C     C_3   0.148055 0.167632 0.805918 0.052781
C10   C     C_3   0.144041 0.262229 0.741969 -0.099167
C11   C     C_3   0.179191 0.154001 0.711363 0.052426
C12   C     C_1   0.631385 0.731440 0.615869 -0.015960
C13   C     C_3   0.236093 0.188947 0.779797 -0.101042
C14   C     C_3   0.271744 0.080413 0.748465 -0.102894
C15   C     C_1   0.125562 0.180955 0.858220 -0.057392
C16   C     C_R   0.277750 0.121608 0.569378 0.545512
C17   C     C_1   0.201729 0.146344 0.659106 -0.058974
C18   C     C_3   0.629166 0.276615 0.738804 -0.101898
C19   C     C_3   0.555019 0.258284 0.776731 -0.099687
C20   C     C_1   0.691473 0.206848 0.901375 -0.013481
C21   C     C_1   0.635682 0.133129 0.617811 -0.016322
C22   C     C_3   0.737107 0.203996 0.769848 -0.101905
C23   C     C_3   0.699389 0.560776 0.767104 -0.101881
C24   C     C_3   0.662803 0.185395 0.806940 0.052848
C25   C     C_3   0.758664 0.094220 0.742578 -0.099360
C26   C     C_3   0.650972 0.166987 0.712304 0.052375
C27   C     C_3   0.684601 0.075836 0.780387 -0.101506
C28   C     C_R   0.621915 0.100353 0.431553 0.542718
C29   C     C_3   0.576632 0.148388 0.749371 -0.102887
C30   C     C_1   0.674455 0.195980 0.859282 -0.057038
C31   C     C_1   0.644026 0.152055 0.659955 -0.059069
C32   C     C_R   0.640434 0.721593 0.383199 0.024468
C33   C     C_R   0.723717 0.734718 0.358140 -0.125234
C34   C     C_3   0.679628 0.654461 0.804371 0.052785
C35   C     C_R   0.736867 0.715959 0.308600 -0.122068
C36   C     C_R   0.669678 0.680180 0.283660 0.037238
C37   C     C_R   0.595040 0.655420 0.309494 -0.119982
C38   C     C_R   0.579755 0.676936 0.359082 -0.127774
C39   C     C_R   0.576746 0.702542 0.203452 -0.119520
C40   C     C_R   0.602031 0.776730 0.430511 0.542285
C41   C     C_R   0.585264 0.680527 0.153884 -0.126120
C42   C     C_R   0.789800 0.608880 0.157675 -0.124821
C43   C     C_R   0.781704 0.628263 0.207217 -0.122922
C44   C     C_R   0.675883 0.671121 0.230719 0.033910
C45   C     C_3   0.590247 0.648317 0.740044 -0.099222
C46   C     C_R   0.692774 0.628609 0.131231 0.022284
C47   C     C_R   0.220717 0.141549 0.384303 0.023363
C48   C     C_R   0.226712 0.049513 0.357771 -0.127700
C49   C     C_R   0.199912 0.061711 0.308750 -0.119031
C50   C     C_R   0.165954 0.166232 0.285883 0.037933
C51   C     C_R   0.151161 0.260673 0.313180 -0.119838
C52   C     C_R   0.278402 0.120624 0.431123 0.542895
C53   C     C_R   0.178155 0.248522 0.362178 -0.125547
C54   C     C_R   0.193157 0.230642 0.205140 -0.125399
C55   C     C_R   0.172122 0.244851 0.155121 0.043234
C56   C     C_3   0.663797 0.682744 0.709912 0.052543
C57   C     C_R   0.063946 0.144897 0.162431 -0.151883
C58   C     C_R   0.086659 0.130436 0.211498 -0.131822
C59   C     C_R   0.148257 0.176092 0.233396 0.005026
C60   C     C_R   0.101709 0.206067 0.134056 0.004681
C61   C     C_R   0.640826 0.139853 0.385040 0.023262
C62   C     C_R   0.547828 0.231232 0.361719 -0.125924
C63   C     C_R   0.555106 0.251265 0.312958 -0.120610
C64   C     C_3   0.772817 0.595602 0.736178 -0.101763
C65   C     C_R   0.656146 0.181693 0.287017 0.035431
C66   C     C_R   0.752491 0.097055 0.311364 -0.121286
C67   C     C_3   0.570705 0.741533 0.778043 -0.101495
C68   C     C_R   0.744729 0.075798 0.360086 -0.128225
C69   C     C_R   0.717465 0.097195 0.204402 -0.118241
C70   C     C_R   0.729502 0.109292 0.155107 -0.124968
C71   C     C_R   0.616585 0.315636 0.164355 -0.108356
C72   C     C_R   0.606214 0.303602 0.213742 -0.110148
C73   C     C_R   0.659588 0.194417 0.234348 0.033814
C74   C     C_R   0.682337 0.218702 0.135150 0.027103
C75   C     C_R   0.049919 0.234863 0.947984 0.556821
C76   C     C_3   0.753305 0.688861 0.774313 -0.100094
C77   C     C_R   0.711956 0.561929 0.946429 0.545375
C78   C     C_3   0.644055 0.776438 0.747169 -0.102917
C79   C     C_R   0.722560 0.224140 0.949102 0.547104
C80   C     C_R   0.048572 0.243029 0.086216 0.578992
C81   C     C_R   0.709283 0.572179 0.084280 0.538707
C82   C     C_R   0.719771 0.233300 0.087447 0.539481
C83   C     C_1   0.697321 0.607567 0.898633 -0.014363
C84   C     C_2   0.226892 0.296895 0.126081 0.580860
C85   C     C_1   0.688353 0.633763 0.856581 -0.057841
Cr1   Cr    Cr6+3 0.417550 0.169090 0.500530 1.020326
Cr2   Cr    Cr6+3 0.669180 0.913420 0.499920 1.020218
Cr3   Cr    Cr6+3 0.413260 0.917540 0.499520 1.021410
Cr4   Cr    Cr6+3 0.909770 0.175810 0.018240 1.027759
Cr5   Cr    Cr6+3 0.913300 0.427650 0.016090 1.046347
Cr6   Cr    Cr6+3 0.657770 0.431010 0.016900 1.029960
H1    H     H_    0.819930 0.705973 0.789053 0.104849
H2    H     H_    0.803483 0.226861 0.778848 0.099147
H3    H     H_    0.771991 0.768992 0.375842 0.133298
H4    H     H_    0.855596 0.535414 0.718459 0.103216
H5    H     H_    0.493466 0.739896 0.220710 0.107238
H6    H     H_    0.509235 0.697503 0.133954 0.131371
H7    H     H_    0.794892 0.735873 0.289583 0.101804
H8    H     H_    0.859509 0.603120 0.227363 0.108347
H9    H     H_    0.874009 0.568700 0.141098 0.144782
H10   H     H_    0.545541 0.623467 0.291113 0.101270
H11   H     H_    0.516015 0.665030 0.377885 0.124394
H12   H     H_    0.295937 0.211656 0.797651 0.104691
H13   H     H_    0.259604 0.966005 0.373908 0.130136
H14   H     H_    0.245808 0.260755 0.222160 0.142157
H15   H     H_    0.621228 0.865485 0.738321 0.100913
H16   H     H_    0.211465 0.987896 0.288204 0.104210
H17   H     H_    0.051494 0.087964 0.232754 0.113086
H18   H     H_    0.009849 0.114163 0.147488 0.147085
H19   H     H_    0.121959 0.342823 0.296264 0.109236
H20   H     H_    0.171826 0.321100 0.382003 0.127158
H21   H     H_    0.466513 0.282307 0.380076 0.131369
H22   H     H_    0.756072 0.011940 0.219317 0.107940
H23   H     H_    0.127483 0.345805 0.727694 0.104426
H24   H     H_    0.479604 0.317000 0.295034 0.109274
H25   H     H_    0.561384 0.379896 0.236082 0.104210
H26   H     H_    0.487865 0.801716 0.795725 0.104237
H27   H     H_    0.580509 0.401130 0.149868 0.138688
H28   H     H_    0.832596 0.044808 0.292325 0.100459
H29   H     H_    0.817932 0.005606 0.377413 0.124716
H30   H     H_    0.523575 0.631177 0.725375 0.104456
H31   H     H_    0.722128 0.471753 0.775946 0.098733
H32   H     H_    0.199687 0.975797 0.789745 0.105016
H33   H     H_    0.031231 0.110027 0.719518 0.103150
H34   H     H_    0.966231 0.307667 0.777740 0.098989
H35   H     H_    0.361060 0.014016 0.739483 0.100615
H36   H     H_    0.293101 0.306125 0.061744 0.338732
H37   H     H_    0.780109 0.033509 0.133064 0.128247
H38   H     H_    0.471205 0.325377 0.791369 0.105326
H39   H     H_    0.606874 0.358890 0.721248 0.102808
H40   H     H_    0.510338 0.125430 0.740338 0.100633
H41   H     H_    0.706959 0.993500 0.797905 0.104232
H42   H     H_    0.842549 0.027096 0.728001 0.104339
O1    O     O_R   0.301780 0.195490 0.553940 -0.507470
O2    O     O_R   0.636050 0.541380 0.962520 -0.505273
O3    O     O_R   0.666480 0.323610 0.968170 -0.492881
O4    O     O_R   0.522450 0.158840 0.550250 -0.494435
O5    O     O_R   0.817280 0.156800 0.072180 -0.523360
O6    O     O_R   0.005110 0.187160 0.067410 -0.511695
O7    O     O_R   0.026450 0.340060 0.069950 -0.478301
O8    O     O_R   0.808300 0.527240 0.065170 -0.508508
O9    O     O_R   0.634070 0.548770 0.069460 -0.519381
O10   O     O_R   0.664650 0.330470 0.067300 -0.500324
O11   O     O_3   0.826940 0.344820 0.017080 -0.254957
O12   O     O_R   0.658840 0.818280 0.449970 -0.506273
O13   O     O_R   0.694460 0.003360 0.553820 -0.507048
O14   O     O_R   0.657750 0.819520 0.549120 -0.494399
O15   O     O_R   0.501990 0.803120 0.552700 -0.507465
O16   O     O_R   0.318230 0.023430 0.549370 -0.494186
O17   O     O_R   0.302950 0.194150 0.446980 -0.522097
O18   O     O_R   0.523540 0.157600 0.451100 -0.504680
O19   O     O_R   0.695630 0.002030 0.446860 -0.521804
O20   O     O_2   0.250673 0.364530 0.145123 -0.538076
O21   O     O_R   0.255259 0.265627 0.077385 -0.682766
O22   O     O_R   0.503160 0.801780 0.445740 -0.520501
O23   O     O_R   0.319320 0.022190 0.450230 -0.503344
O24   O     O_3   0.499990 0.000010 0.499990 -0.243881
O25   O     O_R   0.819250 0.149410 0.965240 -0.505965
O26   O     O_R   0.006940 0.180310 0.968270 -0.494068
O27   O     O_R   0.028420 0.332670 0.963010 -0.497447
O28   O     O_R   0.810130 0.520390 0.966030 -0.496125

loop_
_geom_bond_atom_site_label_1
_geom_bond_atom_site_label_2
_ccdc_geom_bond_type
C75   O27   A    
C19   H38   S    
C7    C17   T    
C66   C68   A    
C63   C65   A    
C1    C21   S    
C23   C45   S    
Cr2   O13   S    
C26   C29   S    
C27   C29   S    
Cr3   O16   S    
C35   C36   A    
C18   C26   S    
C24   C27   S    
C2    C12   T    
C33   H3    S    
C79   O25   A    
C56   C78   S    
C6    C75   S    
C39   C41   A    
C20   C30   T    
C5    C9    S    
C79   O3    A    
C21   C31   T    
C69   H22   S    
C62   C63   A    
Cr2   O14   S    
C40   O12   A    
C50   C59   S    
Cr3   O23   S    
C36   C37   A    
C43   H8    S    
Cr1   O17   S    
C11   C14   S    
C77   C83   S    
C70   H37   S    
C4    O15   A    
C66   H28   S    
C65   C73   S    
C18   C19   S    
C42   C46   A    
C49   C50   A    
C9    C13   S    
Cr1   O4    S    
C6    C15   T    
C84   O21   S    
Cr1   O1    S    
C57   H18   S    
Cr6   O3    S    
C45   C56   S    
C8    C9    S    
Cr4   O6    S    
C22   C25   S    
C45   C67   S    
C41   C46   A    
C56   C64   S    
C40   O22   A    
C69   C73   A    
C16   O16   A    
C32   C38   A    
C4    C12   S    
C35   H7    S    
C25   H42   S    
C58   H17   S    
C10   H23   S    
C47   C53   A    
Cr6   O9    S    
C63   H24   S    
C28   C61   S    
C53   H20   S    
C81   O8    A    
C16   O1    A    
C26   C31   S    
C55   C60   A    
C27   H41   S    
C1    O13   A    
C61   C62   A    
C67   C78   S    
C74   C82   S    
H36   O21   S    
Cr4   O26   S    
C23   H31   S    
Cr6   O10   S    
C54   C59   A    
C77   O28   A    
Cr5   O28   S    
Cr3   O22   S    
C23   C64   S    
Cr4   O25   S    
C3    C11   S    
C49   H16   S    
C3    C8    S    
C72   C73   A    
C57   C60   A    
C45   H30   S    
C25   C26   S    
C80   O7    A    
C4    O14   A    
Cr2   O24   S    
C51   C53   A    
C34   C85   S    
C43   C44   A    
C70   C74   A    
C37   C38   A    
C42   H9    S    
C46   C81   S    
C84   O20   D    
C47   C48   A    
C23   C34   S    
C50   C51   A    
C64   C76   S    
Cr6   O2    S    
Cr3   O24   S    
C67   H26   S    
C5    C14   S    
C47   C52   S    
C76   H1    S    
C80   O6    A    
C52   O17   A    
C81   O9    A    
C83   C85   T    
C65   C66   A    
C51   H19   S    
Cr2   O19   S    
C22   H2    S    
C22   C24   S    
C36   C44   S    
C13   H12   S    
C42   C43   A    
C52   O23   A    
C20   C79   S    
C1    O4    A    
C3    H33   S    
Cr6   O11   S    
C75   O26   A    
C5    H32   S    
C54   C55   A    
C60   C80   S    
Cr2   O12   S    
C71   H27   S    
C18   C22   S    
C7    C16   S    
C64   H4    S    
C76   C78   S    
C82   O10   A    
C3    C5    S    
C10   C13   S    
C11   C17   S    
C34   C67   S    
C71   C74   A    
Cr5   O7    S    
C28   O19   A    
C39   C44   A    
C25   C27   S    
Cr4   O11   S    
C72   H25   S    
C14   H35   S    
C78   H15   S    
C32   C33   A    
C19   C24   S    
C58   C59   A    
C71   C72   A    
C38   H11   S    
C19   C29   S    
C2    C56   S    
Cr1   O18   S    
C68   H29   S    
C37   H10   S    
Cr3   O15   S    
C61   C68   A    
C57   C58   A    
C29   H40   S    
C54   H14   S    
C48   C49   A    
C33   C35   A    
C82   O5    A    
C41   H6    S    
C32   C40   S    
Cr5   O27   S    
C69   C70   A    
Cr1   O24   S    
C24   C30   S    
C39   H5    S    
Cr5   O8    S    
C18   H39   S    
C10   C11   S    
C8    H34   S    
C62   H21   S    
C28   O18   A    
C8    C10   S    
Cr4   O5    S    
C77   O2    A    
C55   C84   S    
C13   C14   S    
Cr5   O11   S    
C9    C15   S    
C34   C76   S    
C48   H13   S    
