data_mof_unit_7254.cif
_audit_creation_date              2012-12-10T17:14:07-0500
_audit_creation_method            fapswitch 2.2
_symmetry_space_group_name_H-M    P1
_symmetry_Int_Tables_number       1
_space_group_crystal_system       triclinic
_cell_length_a                    15.877925
_cell_length_b                    12.999566
_cell_length_c                    11.721253
_cell_angle_alpha                 100.321041
_cell_angle_beta                  93.877173
_cell_angle_gamma                 91.230565
_cell_volume                      2373.35347104

loop_
_atom_site_label
_atom_site_type_symbol
_atom_type_description
_atom_site_fract_x
_atom_site_fract_y
_atom_site_fract_z
_atom_type_partial_charge
C1    C     C_R   0.496075 0.298783 0.477596 0.865896
C2    C     C_3   0.958534 0.540759 0.623829 0.166190
C3    C     C_3   0.916746 0.502326 0.498032 0.004646
C4    C     C_3   0.949035 0.580065 0.421132 0.038914
C5    C     C_3   0.047585 0.581744 0.423129 0.268917
C6    C     C_1   0.824571 0.501694 0.498314 0.115006
C7    C     C_1   0.175104 0.500835 0.498200 0.010477
C8    C     C_1   0.250656 0.500441 0.499704 -0.173777
C9    C     C_R   0.502182 0.815177 0.536697 -0.148097
C10   C     C_R   0.489394 0.184476 0.462883 -0.200968
C11   C     C_R   0.453523 0.011040 0.349113 0.385700
C12   C     C_R   0.340229 0.499991 0.500088 0.812563
C13   C     C_R   0.460225 0.119643 0.356118 0.293305
C14   C     C_R   0.511559 0.139505 0.559989 -0.288785
C15   C     C_R   0.506657 0.031960 0.552782 0.060441
C16   C     C_R   0.478912 0.967089 0.446747 0.007394
C17   C     C_R   0.477807 0.859197 0.439719 -0.322099
C18   C     C_R   0.525755 0.880098 0.644909 0.457391
C19   C     C_R   0.530067 0.988749 0.650668 -0.256519
C20   C     C_R   0.399748 0.440214 0.027505 -0.300105
C21   C     C_R   0.412361 0.438900 0.147212 0.055750
C22   C     C_R   0.547295 0.523307 0.153931 0.629661
C23   C     C_R   0.501454 0.701098 0.522260 0.813426
C24   C     C_R   0.540347 0.516384 0.030213 -0.083232
C25   C     C_R   0.463360 0.479995 0.968164 -0.071772
C26   C     C_R   0.452543 0.481662 0.847414 0.025498
C27   C     C_R   0.591569 0.550559 0.848236 -0.065422
C28   C     C_R   0.608400 0.543451 0.967397 0.341630
C29   C     C_R   0.659722 0.500364 0.499779 0.820813
C30   C     C_3   0.056038 0.532532 0.622850 -0.514346
C31   C     C_3   0.044856 0.390613 0.443144 -0.429508
C32   C     C_3   0.948149 0.388563 0.455626 0.260897
C33   C     C_1   0.749161 0.501069 0.499082 -0.095657
C34   C     C_3   0.082853 0.501332 0.496366 0.100292
Cu1   Cu    Cu3+1 0.506190 0.507730 0.615930 0.964233
Cu2   Cu    Cu3+1 0.493810 0.492270 0.384070 0.998458
H1    H     H_    0.086621 0.609109 0.664707 0.173192
H2    H     H_    0.943720 0.623826 0.654612 0.205320
H3    H     H_    0.921957 0.558128 0.330610 0.148373
H4    H     H_    0.457447 0.808787 0.358229 0.198553
H5    H     H_    0.552752 0.039523 0.730997 0.140193
H6    H     H_    0.533801 0.188370 0.641952 0.190064
H7    H     H_    0.394086 0.451416 0.799094 0.138417
H8    H     H_    0.078846 0.473617 0.674865 0.236392
H9    H     H_    0.639876 0.578547 0.800261 0.149094
H10   H     H_    0.340588 0.409280 0.981381 0.159058
H11   H     H_    0.362764 0.406593 0.190352 0.176267
H12   H     H_    0.060273 0.368151 0.351287 0.219355
H13   H     H_    0.074427 0.331478 0.489751 0.163924
H14   H     H_    0.940386 0.346572 0.529065 0.206939
H15   H     H_    0.073976 0.660275 0.467671 0.121714
N1    N     N_R   0.515490 0.519350 0.790130 -0.192412
N2    N     N_R   0.484510 0.480650 0.209890 -0.232408
O1    O     O_R   0.504390 0.354460 0.582000 -0.592733
O2    O     O_R   0.493940 0.341410 0.386200 -0.520444
O3    O     O_R   0.384660 0.506540 0.597940 -0.594057
O4    O     O_R   0.374210 0.493480 0.402140 -0.585576
O5    O     O_R   0.506060 0.658590 0.613800 -0.520621
O6    O     O_R   0.495610 0.645540 0.418000 -0.625506
O7    O     O_R   0.625790 0.506520 0.597860 -0.590252
O8    O     O_R   0.615340 0.493460 0.402060 -0.530716
Cl1   Cl    Cl    0.918590 0.471672 0.729785 -0.707194
O9    O     O_3   0.551598 0.835840 0.740428 -0.566765
C35   C     C_3   0.509102 0.879305 0.839234 0.085286
H16   H     H_    0.441857 0.895489 0.816568 0.132826
H17   H     H_    0.542566 0.952781 0.884598 0.164790
C36   C     C_3   0.509746 0.802586 0.923125 -0.758363
H18   H     H_    0.575505 0.780777 0.943348 0.239520
H19   H     H_    0.482750 0.838904 0.005137 0.235380
H20   H     H_    0.471410 0.731057 0.883705 0.244768
O10   O     O_3   0.427715 0.947527 0.244060 -0.562958
C37   C     C_3   0.339732 0.927037 0.240796 0.082914
H21   H     H_    0.304629 0.999786 0.237543 0.184876
H22   H     H_    0.321977 0.894180 0.317745 0.122061
C38   C     C_3   0.312671 0.847225 0.132240 -0.791205
H23   H     H_    0.347059 0.773792 0.133122 0.237975
H24   H     H_    0.243758 0.829419 0.129377 0.201470
H25   H     H_    0.326667 0.878808 0.053322 0.258414
Cl2   Cl    Cl    0.429495 0.169377 0.229087 -0.608040
O11   O     O_3   0.688958 0.557022 0.025466 -0.557466
C39   C     C_3   0.756208 0.563236 0.953890 0.080336
H26   H     H_    0.754579 0.637690 0.919627 0.146705
H27   H     H_    0.754203 0.494597 0.881539 0.186714
C40   C     C_3   0.839425 0.563055 0.026481 -0.706977
H28   H     H_    0.843857 0.489482 0.061728 0.236055
H29   H     H_    0.893164 0.569270 0.972054 0.243646
H30   H     H_    0.844051 0.630471 0.099850 0.234403
O12   O     O_3   0.617973 0.573551 0.217794 -0.533269
C41   C     C_3   0.606419 0.683086 0.246810 0.126375
H31   H     H_    0.616855 0.706038 0.342416 0.183137
H32   H     H_    0.542654 0.708656 0.219398 0.103805
C42   C     C_3   0.673451 0.745770 0.198909 -0.720414
H33   H     H_    0.660798 0.741664 0.104191 0.236823
H34   H     H_    0.672091 0.829359 0.240877 0.208159
H35   H     H_    0.737110 0.716598 0.217952 0.278907
O13   O     O_3   0.899929 0.322896 0.362394 -0.566298
C43   C     C_3   0.892564 0.361306 0.257082 0.060252
H36   H     H_    0.951954 0.398632 0.237188 0.167366
H37   H     H_    0.840277 0.416868 0.259322 0.167618
C44   C     C_3   0.869502 0.270327 0.158024 -0.719701
H38   H     H_    0.808903 0.231959 0.172355 0.260428
H39   H     H_    0.862494 0.299014 0.074291 0.205743
H40   H     H_    0.919916 0.212096 0.153022 0.249000
O14   O     O_3   0.073567 0.555623 0.308144 -0.596064
C45   C     C_3   0.080831 0.645847 0.257469 0.057901
H41   H     H_    0.133236 0.698787 0.303605 0.147708
H42   H     H_    0.020849 0.688717 0.259445 0.184337
C46   C     C_3   0.100650 0.613267 0.131224 -0.771142
H43   H     H_    0.049259 0.560389 0.082806 0.256590
H44   H     H_    0.106314 0.683543 0.090232 0.201577
H45   H     H_    0.161172 0.571932 0.126333 0.250991
Cl3   Cl    Cl    0.912643 0.710398 0.464733 -0.688343

loop_
_geom_bond_atom_site_label_1
_geom_bond_atom_site_label_2
_ccdc_geom_bond_type
C23   O5    A    
C13   Cl2   S    
Cu1   Cu2   S    
C40   H30   S    
C38   H23   S    
C3    C6    S    
C43   C44   S    
C39   H26   S    
C7    C8    T    
C23   O6    A    
C45   H42   S    
Cu1   O5    S    
C40   H29   S    
C11   O10   S    
C18   O9    S    
C20   C25   A    
C15   C16   A    
C29   C33   S    
C46   H43   S    
C18   C19   A    
C44   H38   S    
Cu2   N2    S    
C43   H37   S    
C16   C17   A    
C29   O7    A    
C22   O12   S    
C41   H32   S    
C14   H6    S    
O12   C41   S    
Cu2   O6    S    
C4    Cl3   S    
C5    O14   S    
C5    C34   S    
Cu1   O1    S    
C30   H8    S    
C31   H13   S    
C37   C38   S    
C42   H34   S    
O14   C45   S    
C39   H27   S    
C26   H7    S    
C43   H36   S    
C22   N2    A    
C45   C46   S    
C29   O8    A    
C30   C34   S    
C36   H18   S    
C35   C36   S    
C24   C25   A    
C37   H21   S    
C37   H22   S    
Cu2   O4    S    
C10   C14   A    
C9    C23   S    
C25   C26   A    
C42   H35   S    
C30   H1    S    
Cu1   O7    S    
C36   H19   S    
C17   H4    S    
C35   H17   S    
C15   C19   A    
C1    O1    A    
C26   N1    A    
C11   C16   A    
C2    H2    S    
C31   C32   S    
C4    H3    S    
C8    C12   S    
O13   C43   S    
C44   H39   S    
C31   C34   S    
C19   H5    S    
C40   H28   S    
C41   C42   S    
C38   H24   S    
C32   H14   S    
C12   O3    A    
C12   O4    A    
C9    C17   A    
C32   O13   S    
C31   H12   S    
C7    C34   S    
C22   C24   A    
Cu2   O8    S    
Cu1   N1    S    
C39   C40   S    
C27   N1    A    
Cu1   O3    S    
C1    C10   S    
C24   C28   A    
O11   C39   S    
C10   C13   A    
C46   H45   S    
C45   H41   S    
C6    C33   T    
C2    C30   S    
C36   H20   S    
C35   H16   S    
C2    C3    S    
C1    O2    A    
O10   C37   S    
Cu2   O2    S    
C21   N2    A    
C11   C13   A    
C27   H9    S    
C42   H33   S    
C46   H44   S    
C44   H40   S    
C3    C32   S    
C28   O11   S    
C38   H25   S    
O9    C35   S    
C2    Cl1   S    
C9    C18   A    
C4    C5    S    
C20   C21   A    
C27   C28   A    
C14   C15   A    
C5    H15   S    
C41   H31   S    
C20   H10   S    
C3    C4    S    
C21   H11   S    
