data_mof_unit_16899.cif
_audit_creation_date              2012-12-10T17:11:02-0500
_audit_creation_method            fapswitch 2.2
_symmetry_space_group_name_H-M    P1
_symmetry_Int_Tables_number       1
_space_group_crystal_system       triclinic
_cell_length_a                    11.764102
_cell_length_b                    13.037077
_cell_length_c                    13.431217
_cell_angle_alpha                 93.794354
_cell_angle_beta                  75.743155
_cell_angle_gamma                 99.789344
_cell_volume                      1966.7890699

loop_
_atom_site_label
_atom_site_type_symbol
_atom_type_description
_atom_site_fract_x
_atom_site_fract_y
_atom_site_fract_z
_atom_type_partial_charge
C1    C     C_R   0.520913 0.700349 0.501167 0.796383
C2    C     C_R   0.446005 0.474186 0.975408 0.053257
C3    C     C_R   0.473785 0.454559 0.867616 0.095792
C4    C     C_R   0.533160 0.468137 0.031091 0.084790
C5    C     C_R   0.639198 0.430131 0.981076 0.112154
C6    C     C_R   0.657893 0.398628 0.878046 -0.194555
C7    C     C_R   0.576084 0.409542 0.822406 -0.173355
C8    C     C_R   0.518650 0.499767 0.134799 -0.265526
C9    C     C_R   0.705469 0.446636 0.139796 0.143898
C10   C     C_R   0.396554 0.477703 0.808741 -0.106311
C11   C     C_R   0.469079 0.185820 0.497003 -0.053887
C12   C     C_R   0.435630 0.489034 0.695791 0.784632
C13   C     C_R   0.533697 0.813230 0.499673 -0.068615
C14   C     C_R   0.658911 0.979935 0.470884 -0.197125
C15   C     C_R   0.646582 0.873180 0.478653 -0.177926
C16   C     C_R   0.432568 0.860920 0.516695 -0.199769
C17   C     C_R   0.442485 0.969313 0.514533 0.117872
C18   C     C_R   0.558075 0.029292 0.487153 0.100504
C19   C     C_R   0.570954 0.137284 0.475876 0.091168
C20   C     C_R   0.355764 0.126504 0.524313 -0.337134
C21   C     C_R   0.340666 0.019187 0.535120 -0.002192
C22   C     C_R   0.943455 0.596242 0.596595 -0.207986
C23   C     C_R   0.480105 0.299374 0.496706 0.836773
C24   C     C_R   0.825088 0.586348 0.590861 0.154141
C25   C     C_R   0.859585 0.459859 0.455331 0.035318
C26   C     C_R   0.979073 0.465944 0.462658 0.027420
C27   C     C_R   0.020514 0.533265 0.536303 0.009486
C28   C     C_R   0.138421 0.537066 0.547627 0.095853
C29   C     C_R   0.176190 0.415430 0.408176 0.373943
C30   C     C_R   0.057816 0.406548 0.398647 -0.337300
C31   C     C_R   0.563975 0.500075 0.303734 0.810177
C32   C     C_R   0.724513 0.421225 0.035170 -0.137464
C33   C     C_R   0.600269 0.485510 0.191014 -0.105692
C34   C     C_R   0.283339 0.498214 0.859545 -0.279029
C35   C     C_R   0.248884 0.504881 0.966436 0.046702
C36   C     C_R   0.330952 0.495776 0.023800 -0.173689
Cu1   Cu    Cu3+1 0.386470 0.492430 0.492410 0.956912
Cu2   Cu    Cu3+1 0.613530 0.507570 0.507590 0.930776
H1    H     H_    0.277951 0.164816 0.541618 0.167092
H2    H     H_    0.748286 0.022718 0.451778 0.137923
H3    H     H_    0.725804 0.837300 0.465095 0.160125
H4    H     H_    0.346752 0.812220 0.529430 0.185162
H5    H     H_    0.974885 0.655379 0.648055 0.230768
H6    H     H_    0.028253 0.353660 0.341068 0.154001
H7    H     H_    0.736308 0.365266 0.840078 0.149626
H8    H     H_    0.826667 0.407120 0.399611 0.137968
H9    H     H_    0.805100 0.391242 0.996668 0.152132
H10   H     H_    0.443614 0.535985 0.174165 0.162836
H11   H     H_    0.221510 0.509823 0.815828 0.207543
H12   H     H_    0.300964 0.501406 0.106217 0.163224
H13   H     H_    0.592488 0.378245 0.744642 0.172731
N1    N     N_R   0.215880 0.481050 0.481000 -0.212075
N2    N     N_R   0.784100 0.518950 0.519000 -0.225361
O1    O     O_R   0.419710 0.645650 0.494620 -0.613993
O2    O     O_R   0.611450 0.658430 0.507430 -0.613414
O3    O     O_R   0.357340 0.490460 0.641450 -0.589501
O4    O     O_R   0.549080 0.503250 0.654260 -0.614048
O5    O     O_R   0.388550 0.341570 0.492570 -0.570573
O6    O     O_R   0.580290 0.354350 0.505380 -0.562101
O7    O     O_R   0.450920 0.496750 0.345740 -0.551455
O8    O     O_R   0.642660 0.509540 0.358550 -0.592240
N3    N     N_3   0.792175 0.427607 0.191767 -0.570305
H14   H     H_    0.826234 0.497673 0.224082 0.264271
H15   H     H_    0.751115 0.374045 0.249355 0.221855
C37   C     C_2   0.216701 0.965158 0.571738 0.344113
H16   H     H_    0.144880 0.994022 0.550432 0.073214
O9    O     O_2   0.192165 0.893315 0.631110 -0.545017
C38   C     C_2   0.173918 0.595596 0.636560 0.386592
H17   H     H_    0.256938 0.647274 0.628609 0.125372
O10   O     O_2   0.108172 0.586036 0.722414 -0.584611
N4    N     N_3   0.254384 0.353184 0.342497 -0.522712
H18   H     H_    0.216583 0.274951 0.353509 0.190905
H19   H     H_    0.259598 0.370266 0.266369 0.200768
C39   C     C_2   0.748728 0.649841 0.666751 0.378801
H20   H     H_    0.666323 0.666975 0.657323 0.134415
O11   O     O_2   0.778232 0.685268 0.744803 -0.542071
C40   C     C_2   0.127115 0.523896 0.016942 0.380073
H21   H     H_    0.065410 0.531816 0.970712 0.105141
O12   O     O_2   0.093972 0.530656 0.110411 -0.553396
N5    N     N_3   0.686534 0.198034 0.440101 -0.595294
H22   H     H_    0.727530 0.168476 0.368429 0.211470
H23   H     H_    0.737743 0.194011 0.492829 0.219651

loop_
_geom_bond_atom_site_label_1
_geom_bond_atom_site_label_2
_ccdc_geom_bond_type
C23   O5    A    
C6    H7    S    
C31   O8    A    
C35   C36   A    
C4    C8    A    
C40   H21   S    
C23   O6    A    
C11   C19   A    
C26   C27   A    
C29   C30   A    
C39   O11   D    
C28   C38   S    
C25   N2    A    
C34   C35   A    
C3    C7    A    
C5    C6    A    
C18   C19   A    
C14   C18   A    
N3    H15   S    
C9    C32   A    
C38   H17   S    
Cu1   O3    S    
Cu2   O2    S    
C16   C17   A    
C37   O9    D    
C31   C33   S    
Cu1   O5    S    
Cu2   O8    S    
C9    C33   A    
C30   H6    S    
C25   C26   A    
C40   O12   D    
C11   C20   A    
C39   H20   S    
C9    N3    S    
C15   H3    S    
N5    H23   S    
N4    H19   S    
C20   H1    S    
C4    C5    A    
C24   N2    A    
C35   C40   S    
C17   C21   A    
C31   O7    A    
C2    C4    A    
C1    O1    A    
C8    H10   S    
Cu1   Cu2   S    
Cu2   O4    S    
C22   H5    S    
N3    H14   S    
C17   C18   A    
C10   C34   A    
C12   O3    A    
C10   C12   S    
C12   O4    A    
C26   C30   A    
C22   C27   A    
C13   C15   A    
C32   H9    S    
C22   C24   A    
C1    C13   S    
Cu1   O1    S    
C16   H4    S    
C36   H12   S    
C2    C36   A    
Cu1   N1    S    
C34   H11   S    
C21   C37   S    
N5    H22   S    
C6    C7    A    
C5    C32   A    
C2    C3    A    
C1    O2    A    
C7    H13   S    
N4    H18   S    
C3    C10   A    
C28   N1    A    
C24   C39   S    
Cu2   N2    S    
C11   C23   S    
C8    C33   A    
C19   N5    S    
Cu1   O7    S    
C14   H2    S    
Cu2   O6    S    
C20   C21   A    
C38   O10   D    
C37   H16   S    
C13   C16   A    
C27   C28   A    
C14   C15   A    
C25   H8    S    
C29   N4    S    
C29   N1    A    
