data_mof_unit_7533.cif
_audit_creation_date              2012-12-10T16:50:11-0500
_audit_creation_method            fapswitch 2.2
_symmetry_space_group_name_H-M    P1
_symmetry_Int_Tables_number       1
_space_group_crystal_system       triclinic
_cell_length_a                    7.945096
_cell_length_b                    8.619081
_cell_length_c                    10.760346
_cell_angle_alpha                 97.691269
_cell_angle_beta                  82.829651
_cell_angle_gamma                 92.701794
_cell_volume                      724.175261678

loop_
_atom_site_label
_atom_site_type_symbol
_atom_type_description
_atom_site_fract_x
_atom_site_fract_y
_atom_site_fract_z
_atom_type_partial_charge
C1    C     C_R   0.543654 0.793740 0.495092 0.947666
C2    C     C_R   0.455655 0.205275 0.496846 0.845631
C3    C     C_R   0.503666 0.510857 0.261597 0.881574
C4    C     C_R   0.175950 0.558777 0.925431 -0.190148
C5    C     C_R   0.054633 0.645789 0.007035 -0.154729
C6    C     C_R   0.093173 0.714811 0.124426 -0.130851
C7    C     C_R   0.247102 0.684699 0.164104 -0.143136
C8    C     C_R   0.366317 0.586943 0.085527 0.084973
C9    C     C_R   0.006324 0.681155 0.634947 0.241526
C10   C     C_R   0.137193 0.765429 0.699524 -0.119935
C11   C     C_R   0.117982 0.901844 0.786120 -0.227798
C12   C     C_R   0.341165 0.543007 0.959120 0.099256
C13   C     C_R   0.961665 0.965867 0.819603 -0.095667
C14   C     C_R   0.825592 0.888992 0.769615 -0.248731
C15   C     C_R   0.847485 0.751325 0.684024 -0.141346
C16   C     C_3   0.141062 0.012282 0.468388 -0.232092
C17   C     C_R   0.483220 0.485974 0.873942 -0.103571
C18   C     C_R   0.629302 0.442074 0.919183 -0.229547
C19   C     C_R   0.638442 0.456945 0.046563 -0.236205
C20   C     C_R   0.507384 0.527196 0.130053 -0.112985
C21   C     C_2   0.562753 0.957884 0.500893 -0.495322
C22   C     C_2   0.433300 0.039500 0.478767 0.343739
C23   C     C_R   0.494541 0.492578 0.739708 0.829408
H1    H     H_    0.736617 0.393855 0.855981 0.170538
H2    H     H_    0.226469 0.957476 0.827979 0.141200
H3    H     H_    0.945329 0.071356 0.886332 0.137337
H4    H     H_    0.699966 0.934852 0.799373 0.135961
H5    H     H_    0.727472 0.714778 0.671065 0.210679
H6    H     H_    0.098003 0.107029 0.420669 0.167541
H7    H     H_    0.133292 0.049068 0.571980 0.170787
H8    H     H_    0.051360 0.910958 0.452958 0.180489
H9    H     H_    0.133325 0.499770 0.839795 0.175319
H10   H     H_    0.931389 0.661198 0.978274 0.168693
H11   H     H_    0.001520 0.786731 0.186626 0.148474
H12   H     H_    0.271683 0.737936 0.256580 0.221271
H13   H     H_    0.747473 0.411642 0.079558 0.175749
H14   H     H_    0.677352 0.012227 0.535484 0.142076
H15   H     H_    0.011516 0.374039 0.401505 0.171830
H16   H     H_    0.262204 0.735912 0.692837 0.209481
N1    N     N_2   0.950330 0.457950 0.466250 -0.167169
N2    N     N_2   0.049670 0.542050 0.533750 -0.118818
O1    O     O_R   0.389250 0.738570 0.508280 -0.598540
O2    O     O_R   0.678390 0.711630 0.486650 -0.653369
O3    O     O_R   0.355400 0.513470 0.694050 -0.674081
O4    O     O_R   0.644540 0.486530 0.672420 -0.642012
O5    O     O_R   0.321610 0.288370 0.513350 -0.629292
O6    O     O_R   0.610750 0.261430 0.491720 -0.633195
O7    O     O_R   0.355460 0.513470 0.327580 -0.627371
O8    O     O_R   0.644600 0.486530 0.305950 -0.614954
O9    O     O_3   0.304551 0.966787 0.412400 -0.622595
Zn1   Zn    Zn3+2 0.306930 0.517990 0.514440 0.920526
Zn2   Zn    Zn3+2 0.693070 0.482010 0.485560 0.921735

loop_
_geom_bond_atom_site_label_1
_geom_bond_atom_site_label_2
_ccdc_geom_bond_type
C12   C17   A    
C2    C22   S    
C1    C21   S    
O6    Zn2   S    
C23   O4    A    
N2    Zn1   S    
C2    O6    A    
C4    C12   A    
C9    C10   A    
C3    O7    A    
C9    N2    S    
C19   C20   A    
C8    C12   A    
O1    Zn1   S    
C22   O9    S    
O8    Zn2   S    
C17   C18   A    
C3    O8    A    
C3    C20   S    
C17   C23   S    
C13   C14   A    
C2    O5    A    
C16   H8    S    
H15   N1    S    
C11   C13   A    
C15   H5    S    
C6    C7    A    
C8    C20   A    
C18   H1    S    
O3    Zn1   S    
N1    Zn2   S    
N1    N2    D    
C16   O9    S    
C19   H13   S    
C9    C15   A    
C5    C6    A    
C14   H4    S    
O2    Zn2   S    
C10   C11   A    
C13   H3    S    
C16   H7    S    
C4    H9    S    
C1    O1    A    
C7    C8    A    
C21   H14   S    
C18   C19   A    
C11   H2    S    
C14   C15   A    
C10   H16   S    
O4    Zn2   S    
C16   H6    S    
C21   C22   D    
C7    H12   S    
O5    Zn1   S    
C1    O2    A    
O7    Zn1   S    
C23   O3    A    
C6    H11   S    
C4    C5    A    
C5    H10   S    
