data_mof_unit_48216.cif
_audit_creation_date              2012-12-10T17:36:50-0500
_audit_creation_method            fapswitch 2.2
_symmetry_space_group_name_H-M    P1
_symmetry_Int_Tables_number       1
_space_group_crystal_system       triclinic
_cell_length_a                    10.611953
_cell_length_b                    12.340795
_cell_length_c                    13.198671
_cell_angle_alpha                 116.787466
_cell_angle_beta                  77.479839
_cell_angle_gamma                 101.134483
_cell_volume                      1497.25412339

loop_
_atom_site_label
_atom_site_type_symbol
_atom_type_description
_atom_site_fract_x
_atom_site_fract_y
_atom_site_fract_z
_atom_type_partial_charge
C1    C     C_R   0.512561 0.854884 0.286590 0.770578
C2    C     C_3   0.019630 0.893118 0.495551 -0.158386
C3    C     C_3   0.965891 0.907598 0.403454 0.120030
C4    C     C_3   0.877784 0.998841 0.498081 -0.013098
C5    C     C_R   0.315005 0.280164 0.018209 -0.191570
C6    C     C_R   0.451614 0.228448 0.834390 -0.045786
C7    C     C_R   0.608514 0.813075 0.086778 -0.180172
C8    C     C_R   0.637769 0.733176 0.972414 -0.155699
C9    C     C_R   0.588063 0.610906 0.933929 -0.183830
C10   C     C_R   0.503209 0.566512 0.009234 0.081454
C11   C     C_R   0.461984 0.651462 0.122681 0.086256
C12   C     C_R   0.740499 0.999027 0.498857 0.788234
C13   C     C_R   0.457046 0.440846 0.975464 0.071751
C14   C     C_R   0.361411 0.403956 0.050772 0.164630
C15   C     C_R   0.311130 0.491137 0.156640 -0.241058
C16   C     C_R   0.359591 0.613164 0.191707 -0.207509
C17   C     C_R   0.503805 0.350279 0.869176 -0.252944
C18   C     C_R   0.359303 0.192725 0.910031 -0.196965
C19   C     C_R   0.523525 0.772956 0.163483 -0.114172
C20   C     C_R   0.705447 0.345318 0.327029 -0.372117
C21   C     C_R   0.324646 0.760494 0.646060 0.074053
C22   C     C_R   0.286672 0.664620 0.678320 -0.261089
C23   C     C_R   0.480323 0.145141 0.713356 0.786278
C24   C     C_R   0.352448 0.560782 0.623394 -0.191609
C25   C     C_R   0.457689 0.551597 0.534925 0.021319
C26   C     C_R   0.493132 0.652540 0.505067 0.285008
C27   C     C_R   0.529237 0.446823 0.475190 -0.030206
C28   C     C_R   0.633480 0.445537 0.387078 0.089766
C29   C     C_R   0.665933 0.544366 0.359307 -0.252060
C30   C     C_R   0.597963 0.645733 0.417552 -0.179483
C31   C     C_R   0.502583 0.342436 0.498397 -0.098757
C32   C     C_R   0.674567 0.246052 0.354065 0.789400
C33   C     C_R   0.259771 0.000496 0.500266 0.772443
C34   C     C_3   0.981792 0.105933 0.502299 -0.137721
C35   C     C_3   0.071245 0.013636 0.406600 -0.161334
C36   C     C_3   0.123187 0.000285 0.499626 -0.004420
C37   C     C_3   0.036560 0.092915 0.595277 -0.185717
C38   C     C_3   0.930561 0.986043 0.591138 -0.182048
Cu1   Cu    Cu3+1 0.529830 0.098270 0.475420 0.979531
Cu2   Cu    Cu3+1 0.470170 0.901730 0.524580 0.918683
H1    H     H_    0.131616 0.024837 0.331221 0.135423
H2    H     H_    0.580003 0.371811 0.810279 0.145268
H3    H     H_    0.655391 0.905902 0.115838 0.195257
H4    H     H_    0.615810 0.554444 0.844161 0.129628
H5    H     H_    0.702743 0.765378 0.913771 0.143611
H6    H     H_    0.313324 0.677136 0.272603 0.166010
H7    H     H_    0.745370 0.543398 0.291748 0.148493
H8    H     H_    0.785272 0.343928 0.259573 0.161111
H9    H     H_    0.424946 0.335359 0.563613 0.151068
H10   H     H_    0.273129 0.840753 0.689306 0.124875
H11   H     H_    0.963964 0.193128 0.505264 0.155429
H12   H     H_    0.319008 0.489387 0.651810 0.136098
H13   H     H_    0.206009 0.670851 0.746195 0.144236
H14   H     H_    0.631148 0.717349 0.391337 0.199768
H15   H     H_    0.069192 0.169079 0.673977 0.131475
H16   H     H_    0.870304 0.974943 0.666591 0.143094
H17   H     H_    0.037348 0.805833 0.492488 0.136543
H18   H     H_    0.317344 0.098536 0.883765 0.146959
H19   H     H_    0.234214 0.464895 0.212946 0.146972
H20   H     H_    0.241736 0.251534 0.075184 0.138804
N1    N     N_R   0.575030 0.246270 0.438190 -0.226914
N2    N     N_R   0.425760 0.754330 0.561190 -0.208370
O1    O     O_R   0.537510 0.972500 0.318130 -0.531473
O2    O     O_R   0.487140 0.806530 0.359650 -0.607662
O3    O     O_R   0.708330 0.082950 0.479220 -0.532833
O4    O     O_R   0.657960 0.916980 0.520740 -0.606534
O5    O     O_R   0.512860 0.193470 0.640350 -0.591406
O6    O     O_R   0.462490 0.027500 0.681870 -0.586449
O7    O     O_R   0.342040 0.083020 0.479260 -0.586263
O8    O     O_R   0.291670 0.917050 0.520780 -0.599284
F1    F     F_    0.744009 0.148894 0.295879 -0.680877
C39   C     C_3   0.925992 0.803579 0.292726 -0.423539
C40   C     C_3   0.039534 0.729203 0.219604 -0.345136
C41   C     C_3   0.000204 0.626033 0.108354 -0.828550
H21   H     H_    0.919313 0.562718 0.127270 0.247279
H22   H     H_    0.969198 0.663639 0.056531 0.254955
H23   H     H_    0.084330 0.573935 0.057497 0.246000
H24   H     H_    0.122393 0.789505 0.198201 0.216959
H25   H     H_    0.072162 0.689079 0.268605 0.212865
H26   H     H_    0.845009 0.743334 0.315202 0.186085
H27   H     H_    0.891615 0.842620 0.243694 0.209359

loop_
_geom_bond_atom_site_label_1
_geom_bond_atom_site_label_2
_ccdc_geom_bond_type
C24   H12   S    
C34   C37   S    
C40   C41   S    
C31   N1    A    
C35   C36   S    
C2    H17   S    
C7    C8    A    
C30   H14   S    
C11   C19   A    
C34   H11   S    
C29   C30   A    
Cu2   O8    S    
C29   H7    S    
C36   C37   S    
C32   N1    A    
C15   C16   A    
C33   C36   S    
Cu2   N2    S    
C34   C35   S    
C23   O5    A    
C8    H5    S    
C17   H2    S    
C18   H18   S    
C8    C9    A    
C41   H23   S    
C40   H24   S    
C7    H3    S    
C22   H13   S    
C9    C10   A    
C39   H27   S    
C33   O7    A    
Cu2   O4    S    
C21   C22   A    
Cu1   O3    S    
Cu1   O5    S    
C31   H9    S    
Cu1   N1    S    
C1    O1    A    
C21   H10   S    
C32   F1    S    
C40   H25   S    
C6    C18   A    
C4    C34   S    
C1    C19   S    
C41   H21   S    
C27   C31   A    
C24   C25   A    
C16   H6    S    
Cu1   Cu2   S    
C5    C18   A    
C20   C28   A    
C25   C26   A    
C12   O4    A    
C23   O6    A    
C37   C38   S    
C11   C16   A    
C2    C38   S    
C3    C35   S    
Cu1   O7    S    
C5    C14   A    
C20   H8    S    
C41   H22   S    
C33   O8    A    
C4    C38   S    
C26   C30   A    
C7    C19   A    
C22   C24   A    
C4    C12   S    
C3    C4    S    
C1    O2    A    
C20   C32   A    
C2    C36   S    
C6    C17   A    
C28   C29   A    
C9    H4    S    
C5    H20   S    
C15   H19   S    
C39   C40   S    
C10   C13   A    
C25   C27   A    
Cu1   O1    S    
C12   O3    A    
Cu2   O2    S    
C13   C17   A    
C2    C3    S    
C26   N2    A    
C39   H26   S    
C6    C23   S    
C3    C39   S    
C35   H1    S    
C10   C11   A    
C37   H15   S    
C38   H16   S    
Cu2   O6    S    
C27   C28   A    
C14   C15   A    
C21   N2    A    
C13   C14   A    
