data_mof_unit_12545.cif
_audit_creation_date              2012-12-10T16:56:32-0500
_audit_creation_method            fapswitch 2.2
_symmetry_space_group_name_H-M    P1
_symmetry_Int_Tables_number       1
_space_group_crystal_system       triclinic
_cell_length_a                    7.762813
_cell_length_b                    8.649349
_cell_length_c                    15.693165
_cell_angle_alpha                 90.970788
_cell_angle_beta                  85.992183
_cell_angle_gamma                 93.358224
_cell_volume                      1049.22147133

loop_
_atom_site_label
_atom_site_type_symbol
_atom_type_description
_atom_site_fract_x
_atom_site_fract_y
_atom_site_fract_z
_atom_type_partial_charge
C1    C     C_R   0.544942 0.794137 0.497647 0.925496
C2    C     C_R   0.455057 0.205863 0.502352 0.925497
C3    C     C_R   0.502315 0.500073 0.662009 0.900769
C4    C     C_R   0.497685 0.499927 0.337991 0.900769
C5    C     C_2   0.566732 0.956094 0.507724 -0.103786
C6    C     C_2   0.433268 0.043906 0.492275 -0.103785
C7    C     C_3   0.425275 0.627707 0.030788 -0.165579
C8    C     C_3   0.574725 0.372293 0.969212 -0.165579
C9    C     C_3   0.591985 0.627047 0.970745 -0.168172
C10   C     C_3   0.408015 0.372953 0.029255 -0.168172
C11   C     C_1   0.506861 0.499640 0.750837 -0.182758
C12   C     C_1   0.493138 0.500360 0.249162 -0.182758
C13   C     C_3   0.337652 0.500365 0.975457 -0.164011
C14   C     C_3   0.662348 0.499634 0.024543 -0.164011
C15   C     C_3   0.504348 0.499706 0.917233 0.213171
C16   C     C_3   0.495651 0.500294 0.082767 0.213171
C17   C     C_1   0.507419 0.499533 0.826213 -0.086476
C18   C     C_1   0.492581 0.500467 0.173787 -0.086476
H1    H     H_    0.667377 0.730726 0.944590 0.130045
H2    H     H_    0.332623 0.269274 0.055410 0.130045
H3    H     H_    0.363990 0.731943 0.058188 0.131045
H4    H     H_    0.636010 0.268056 0.941812 0.131045
H5    H     H_    0.794974 0.499360 0.046830 0.131659
H6    H     H_    0.205026 0.500640 0.953170 0.131659
H7    H     H_    0.013711 0.381932 0.436744 0.190356
H8    H     H_    0.986289 0.618068 0.563256 0.190355
N1    N     N_2   0.950320 0.457950 0.477300 -0.168266
N2    N     N_2   0.049680 0.542050 0.522700 -0.168266
O1    O     O_R   0.389250 0.738570 0.505570 -0.589337
O2    O     O_R   0.610750 0.261430 0.494430 -0.589336
O3    O     O_R   0.678390 0.711630 0.491020 -0.642999
O4    O     O_R   0.321610 0.288370 0.508980 -0.642999
O5    O     O_R   0.355460 0.513480 0.630490 -0.613793
O6    O     O_R   0.644540 0.486520 0.369510 -0.613793
O7    O     O_R   0.644600 0.486540 0.615950 -0.620473
O8    O     O_R   0.355400 0.513460 0.384050 -0.620473
Zn1   Zn    Zn3+2 0.306940 0.517990 0.509710 0.950212
Zn2   Zn    Zn3+2 0.693060 0.482010 0.490290 0.950212
N3    N     N_3   0.723000 0.017966 0.543469 -0.430548
H9    H     H_    0.828406 0.991078 0.501808 0.193561
H10   H     H_    0.734967 0.963602 0.601619 0.169883
N4    N     N_3   0.276999 0.982033 0.456531 -0.430548
H11   H     H_    0.171594 0.008916 0.498195 0.193561
H12   H     H_    0.265026 0.036401 0.398382 0.169884

loop_
_geom_bond_atom_site_label_1
_geom_bond_atom_site_label_2
_ccdc_geom_bond_type
C14   H5    S    
C7    C13   S    
C8    H4    S    
C9    C14   S    
C4    O8    A    
H7    N1    S    
H8    N2    S    
O3    Zn2   S    
C3    O7    A    
C2    O2    A    
C1    O1    A    
C9    C15   S    
N3    H10   S    
C16   C18   S    
C10   C16   S    
O4    Zn1   S    
C2    C6    S    
N4    H12   S    
N2    Zn1   S    
C1    C5    S    
C8    C10   S    
O8    Zn1   S    
O5    Zn1   S    
C8    C15   S    
C14   C16   S    
C13   C15   S    
C5    C6    D    
C4    O6    A    
C4    C12   S    
N4    H11   S    
C3    O5    A    
N1    Zn2   S    
O1    Zn1   S    
C7    C9    S    
C1    O3    A    
O7    Zn2   S    
C3    C11   S    
O2    Zn2   S    
C2    O4    A    
C6    N4    S    
C12   C18   T    
N3    H9    S    
C15   C17   S    
C5    N3    S    
C7    C16   S    
C8    C14   S    
C7    H3    S    
C9    H1    S    
C11   C17   T    
C13   H6    S    
C10   H2    S    
N1    N2    D    
C10   C13   S    
O6    Zn2   S    
