data_mof_unit_41040.cif
_audit_creation_date              2012-12-11T15:33:36-0500
_audit_creation_method            fapswitch 2.2
_symmetry_space_group_name_H-M    P1
_symmetry_Int_Tables_number       1
_space_group_crystal_system       triclinic
_cell_length_a                    27.141722
_cell_length_b                    7.201654
_cell_length_c                    22.714681
_cell_angle_alpha                 89.998928
_cell_angle_beta                  101.158495
_cell_angle_gamma                 89.999208
_cell_volume                      4355.99748541

loop_
_atom_site_label
_atom_site_type_symbol
_atom_type_description
_atom_site_fract_x
_atom_site_fract_y
_atom_site_fract_z
_atom_type_partial_charge
O1    O     O_R   0.207310 0.594030 0.676830 -0.531574
O2    O     O_R   0.792690 0.405970 0.323170 -0.531574
O3    O     O_R   0.292690 0.094030 0.823170 -0.531575
O4    O     O_R   0.707310 0.905970 0.176830 -0.531574
O5    O     O_R   0.197320 0.262370 0.795700 -0.539567
O6    O     O_R   0.802680 0.737630 0.204300 -0.539568
O7    O     O_R   0.302680 0.762370 0.704300 -0.539567
O8    O     O_R   0.697320 0.237630 0.295700 -0.539567
C1    C     C_R   0.184625 0.432526 0.811892 0.678812
C2    C     C_R   0.815375 0.567474 0.188108 0.678809
C3    C     C_R   0.315375 0.932526 0.688108 0.678816
C4    C     C_R   0.684625 0.067474 0.311892 0.678818
O9    O     O_R   0.201410 0.264250 0.675590 -0.533028
O10   O     O_R   0.798590 0.735750 0.324410 -0.533029
O11   O     O_R   0.298590 0.764250 0.824410 -0.533031
O12   O     O_R   0.701410 0.235750 0.175590 -0.533031
O13   O     O_R   0.296810 0.094940 0.702210 -0.538998
O14   O     O_R   0.703190 0.905060 0.297790 -0.538998
O15   O     O_R   0.203190 0.594940 0.797790 -0.538999
O16   O     O_R   0.796810 0.405060 0.202210 -0.538999
C5    C     C_R   0.189831 0.432434 0.653368 0.689456
C6    C     C_R   0.810169 0.567566 0.346632 0.689455
C7    C     C_R   0.310170 0.932429 0.846632 0.689456
C8    C     C_R   0.689830 0.067571 0.153367 0.689455
O17   O     O_3   0.281300 0.427390 0.758870 -0.372080
O18   O     O_3   0.718700 0.572610 0.241130 -0.372079
O19   O     O_3   0.218700 0.927390 0.741130 -0.372078
O20   O     O_3   0.781300 0.072610 0.258870 -0.372079
V1    V     V_3+5 0.244190 0.152150 0.748350 1.436527
V2    V     V_3+5 0.755810 0.847850 0.251650 1.436522
V3    V     V_3+5 0.255810 0.652150 0.751650 1.436527
V4    V     V_3+5 0.744190 0.347850 0.248350 1.436524
C9    C     C_R   0.655070 0.063494 0.094730 -0.046220
C10   C     C_R   0.344930 0.936506 0.905270 -0.046220
C11   C     C_R   0.844929 0.563463 0.405269 -0.046205
C12   C     C_R   0.155071 0.436535 0.594731 -0.046207
C13   C     C_R   0.639315 0.137366 0.989164 -0.045325
C14   C     C_R   0.360685 0.862633 0.010836 -0.045324
C15   C     C_R   0.860669 0.637094 0.510851 -0.045319
C16   C     C_R   0.139330 0.362880 0.489150 -0.045319
C17   C     C_R   0.672117 0.124071 0.044116 -0.183879
C18   C     C_R   0.327883 0.875929 0.955884 -0.183878
C19   C     C_R   0.827872 0.623882 0.455893 -0.183898
C20   C     C_R   0.172127 0.376100 0.544108 -0.183895
C21   C     C_R   0.604301 0.016006 0.090026 -0.161395
C22   C     C_R   0.395699 0.983994 0.909974 -0.161395
C23   C     C_R   0.895703 0.516061 0.409967 -0.161403
C24   C     C_R   0.104297 0.483945 0.590032 -0.161399
C25   C     C_R   0.569279 0.031015 0.034400 0.066387
C26   C     C_R   0.430721 0.968985 0.965600 0.066387
C27   C     C_R   0.930720 0.530987 0.465599 0.066374
C28   C     C_R   0.069280 0.469003 0.534401 0.066376
C29   C     C_R   0.587833 0.093591 0.983199 -0.014016
C30   C     C_R   0.412167 0.906408 0.016800 -0.014016
C31   C     C_R   0.912155 0.593387 0.516812 -0.014035
C32   C     C_R   0.087844 0.406590 0.483189 -0.014032
C33   C     C_R   0.516627 0.989048 0.028317 -0.009199
C34   C     C_R   0.483373 0.010951 0.971683 -0.009199
C35   C     C_R   0.983376 0.489095 0.471679 -0.009215
C36   C     C_R   0.016623 0.510891 0.528322 -0.009217
C37   C     C_R   0.503720 0.073755 0.922679 -0.224763
C38   C     C_R   0.496280 0.926244 0.077321 -0.224763
C39   C     C_R   0.996264 0.573505 0.577339 -0.224777
C40   C     C_R   0.003734 0.426467 0.422663 -0.224781
C41   C     C_R   0.554605 0.113675 0.927416 0.432583
C42   C     C_R   0.445395 0.886324 0.072584 0.432582
C43   C     C_R   0.945376 0.613356 0.572605 0.432571
C44   C     C_R   0.054622 0.386608 0.427397 0.432571
H1    H     H_    0.406429 0.026383 0.868824 0.104640
H2    H     H_    0.593571 0.973618 0.131176 0.104640
H3    H     H_    0.093562 0.526240 0.631187 0.104629
H4    H     H_    0.906440 0.473785 0.368811 0.104627
H5    H     H_    0.288901 0.836726 0.952711 0.121163
H6    H     H_    0.711099 0.163274 0.047289 0.121162
H7    H     H_    0.211114 0.336961 0.547277 0.121157
H8    H     H_    0.788884 0.663015 0.452725 0.121157
H9    H     H_    0.655091 0.185630 0.951830 0.208353
H10   H     H_    0.344909 0.814369 0.048170 0.208354
H11   H     H_    0.844885 0.685231 0.548194 0.208356
H12   H     H_    0.155113 0.314732 0.451809 0.208357
H13   H     H_    0.480554 0.094404 0.879316 0.182183
H14   H     H_    0.519446 0.905594 0.120684 0.182183
H15   H     H_    0.019423 0.594043 0.620712 0.182192
H16   H     H_    0.980575 0.405914 0.379291 0.182189
C45   C     C_R   0.629122 0.881773 0.367103 -0.140632
C46   C     C_R   0.370878 0.118227 0.632897 -0.140632
C47   C     C_R   0.870879 0.381773 0.132897 -0.140633
C48   C     C_R   0.129121 0.618227 0.867102 -0.140630
H17   H     H_    0.644139 0.754176 0.352525 0.125453
H18   H     H_    0.355860 0.245824 0.647475 0.125453
H19   H     H_    0.855861 0.254176 0.147476 0.125454
H20   H     H_    0.144139 0.745824 0.852524 0.125458
C49   C     C_R   0.593181 0.868810 0.403582 -0.117718
C50   C     C_R   0.406819 0.131190 0.596418 -0.117718
C51   C     C_R   0.906819 0.368810 0.096418 -0.117723
C52   C     C_R   0.093180 0.631190 0.903581 -0.117731
H21   H     H_    0.581843 0.732140 0.415745 0.136780
H22   H     H_    0.418156 0.267860 0.584255 0.136781
H23   H     H_    0.918157 0.232141 0.084256 0.136784
H24   H     H_    0.081843 0.767860 0.915743 0.136789
C53   C     C_R   0.572396 0.029349 0.424229 0.019258
C54   C     C_R   0.427604 0.970651 0.575771 0.019258
C55   C     C_R   0.927603 0.529350 0.075771 0.019251
C56   C     C_R   0.072396 0.470651 0.924228 0.019236
C57   C     C_R   0.588434 0.203636 0.406925 -0.109469
C58   C     C_R   0.411566 0.796364 0.593075 -0.109469
C59   C     C_R   0.911566 0.703636 0.093075 -0.109461
C60   C     C_R   0.088433 0.296364 0.906925 -0.109458
H25   H     H_    0.573289 0.330508 0.421839 0.142499
H26   H     H_    0.426711 0.669492 0.578161 0.142499
H27   H     H_    0.926711 0.830508 0.078161 0.142501
H28   H     H_    0.073289 0.169492 0.921838 0.142505
C61   C     C_R   0.624464 0.216741 0.370295 -0.141329
C62   C     C_R   0.375536 0.783259 0.629705 -0.141328
C63   C     C_R   0.875536 0.716741 0.129704 -0.141323
C64   C     C_R   0.124464 0.283259 0.870295 -0.141317
H29   H     H_    0.635977 0.353278 0.358244 0.122324
H30   H     H_    0.364023 0.646722 0.641756 0.122324
H31   H     H_    0.864023 0.853278 0.141755 0.122324
H32   H     H_    0.135977 0.146722 0.858244 0.122327
C65   C     C_R   0.645499 0.055845 0.349968 -0.047385
C66   C     C_R   0.354501 0.944154 0.650031 -0.047386
C67   C     C_R   0.854501 0.555846 0.150032 -0.047387
C68   C     C_R   0.145498 0.444154 0.849968 -0.047393
N1    N     N_R   0.514382 0.168531 0.484200 -0.265060
N2    N     N_R   0.485618 0.831469 0.515800 -0.265060
N3    N     N_R   0.985617 0.668531 0.015799 -0.265060
N4    N     N_R   0.014382 0.331469 0.984200 -0.265058
N5    N     N_R   0.480665 0.154558 0.519630 -0.271424
N6    N     N_R   0.519335 0.845441 0.480370 -0.271423
N7    N     N_R   0.019334 0.654559 0.980369 -0.271426
N8    N     N_R   0.980665 0.345442 0.019630 -0.271425
C69   C     C_R   0.465491 0.985752 0.536287 0.529998
C70   C     C_R   0.534509 0.014248 0.463713 0.529998
C71   C     C_R   0.034509 0.485752 0.963713 0.529983
C72   C     C_R   0.965490 0.514248 0.036286 0.529988
S1    S     S_3+6 0.574833 0.191157 0.861595 0.028552
O21   O     O_2   0.596730 0.382752 0.872285 -0.312728
O22   O     O_2   0.614336 0.060935 0.847683 -0.300032
O23   O     O_3   0.526735 0.197681 0.802454 -0.502675
H33   H     H_    0.541677 0.241914 0.768515 0.383537
S2    S     S_3+6 0.425167 0.808841 0.138404 0.028553
O24   O     O_2   0.385664 0.939062 0.152317 -0.300029
O25   O     O_2   0.403270 0.617246 0.127715 -0.312729
O26   O     O_3   0.473265 0.802317 0.197545 -0.502675
H34   H     H_    0.458324 0.758074 0.231484 0.383537
S3    S     S_3+6 0.925133 0.690582 0.638444 0.028575
O27   O     O_2   0.903219 0.882171 0.627811 -0.312610
O28   O     O_2   0.885637 0.560236 0.652307 -0.300110
O29   O     O_3   0.973223 0.696996 0.697593 -0.502665
H35   H     H_    0.958252 0.740693 0.731572 0.383545
S4    S     S_3+6 0.074864 0.309345 0.361562 0.028572
O30   O     O_2   0.114360 0.439667 0.347690 -0.300028
O31   O     O_2   0.096774 0.117753 0.372205 -0.312696
O32   O     O_3   0.026772 0.302917 0.302413 -0.502666
H36   H     H_    0.041720 0.258791 0.268467 0.383542

loop_
_geom_bond_atom_site_label_1
_geom_bond_atom_site_label_2
_ccdc_geom_bond_type
N1    C70   A    
O17   V3    S    
C48   C52   A    
O1    C5    A    
C56   C71   S    
C47   H19   S    
O19   V1    S    
C9    C21   A    
O3    C7    A    
S3    O27   D    
C10   C18   A    
C48   C68   A    
O15   V3    S    
O26   H34   S    
C25   C33   A    
C33   C38   A    
C5    C12   S    
C53   C70   S    
O7    C3    A    
C6    C11   S    
S1    O22   D    
C35   C40   A    
C26   C30   A    
C58   C62   A    
C36   C39   A    
C40   C44   A    
C57   C61   A    
S3    O28   D    
C14   C18   A    
N7    C71   A    
C58   H26   S    
O4    C8    A    
C51   H23   S    
C50   H22   S    
O1    V3    S    
C1    C68   S    
O13   V1    S    
O2    V4    S    
O3    V1    S    
C40   H16   S    
C22   H1    S    
C46   C50   A    
C17   H6    S    
C45   C49   A    
C1    O15   A    
C15   C31   A    
C4    C65   S    
C48   H20   S    
N2    C69   A    
C2    O16   A    
C16   C32   A    
C47   C51   A    
C42   S2    S    
O2    C6    A    
C16   H12   S    
C45   C65   A    
C10   C22   A    
C11   C19   A    
C16   C20   A    
C27   C31   A    
O8    C4    A    
C13   C29   A    
C34   C37   A    
O11   C7    A    
C38   H14   S    
C11   C23   A    
C35   C36   A    
O12   C8    A    
S2    O26   S    
N6    C70   A    
O10   V2    S    
N4    N8    A    
C51   C55   A    
O5    V1    S    
C53   C57   A    
S1    O23   S    
C39   C43   A    
C63   C67   A    
C38   C42   A    
C26   C34   A    
S3    O29   S    
O7    V3    S    
N3    C72   A    
C2    C67   S    
C46   H18   S    
N4    C71   A    
C49   C53   A    
C45   H17   S    
O18   V4    S    
C23   C27   A    
C14   H10   S    
C32   C44   A    
C13   H9    S    
C64   H32   S    
C39   H15   S    
O8    V4    S    
C20   H7    S    
C55   C72   S    
C46   C66   A    
C44   S4    S    
C37   C41   A    
C31   C43   A    
C14   C30   A    
S4    O32   S    
C21   C25   A    
N8    C72   A    
C7    C10   S    
O9    C5    A    
O23   H33   S    
C59   C63   A    
C62   H30   S    
C61   H29   S    
O6    V2    S    
S4    O31   D    
C63   H31   S    
C52   C56   A    
N1    N5    A    
C43   S3    S    
O14   V2    S    
N5    C69   A    
C12   C20   A    
C3    C66   S    
C27   C35   A    
C24   H3    S    
C49   H21   S    
C56   C60   A    
C29   C41   A    
O16   V4    S    
O9    V1    S    
C19   H8    S    
C57   H25   S    
C3    O13   A    
C18   H5    S    
C64   C68   A    
C21   H2    S    
O29   H35   S    
C59   H27   S    
O5    C1    A    
O6    C2    A    
C15   C19   A    
O11   V3    S    
C30   C42   A    
O12   V4    S    
S1    O21   D    
C22   C26   A    
C8    C9    S    
C9    C17   A    
O10   C6    A    
O20   V2    S    
C54   C69   S    
C41   S1    S    
C37   H13   S    
C47   C67   A    
C60   C64   A    
C33   C34   A    
C25   C29   A    
C52   H24   S    
C12   C24   A    
S2    O25   D    
C13   C17   A    
N3    N7    A    
C23   H4    S    
C62   C66   A    
C60   H28   S    
C24   C28   A    
C61   C65   A    
S4    O30   D    
C50   C54   A    
C28   C36   A    
C54   C58   A    
C4    O14   A    
O32   H36   S    
N2    N6    A    
S2    O24   D    
C55   C59   A    
O4    V2    S    
C28   C32   A    
C15   H11   S    
