data_mof_unit_31404.cif
_audit_creation_date              2012-12-10T17:32:56-0500
_audit_creation_method            fapswitch 2.2
_symmetry_space_group_name_H-M    P1
_symmetry_Int_Tables_number       1
_space_group_crystal_system       triclinic
_cell_length_a                    12.456582
_cell_length_b                    13.322595
_cell_length_c                    14.368369
_cell_angle_alpha                 94.904285
_cell_angle_beta                  108.597159
_cell_angle_gamma                 117.491881
_cell_volume                      1926.45226962

loop_
_atom_site_label
_atom_site_type_symbol
_atom_type_description
_atom_site_fract_x
_atom_site_fract_y
_atom_site_fract_z
_atom_type_partial_charge
C1    C     C_R   0.650145 0.713970 0.508326 0.827906
C2    C     C_R   0.818345 0.459431 0.911301 0.042851
C3    C     C_R   0.795431 0.504484 0.991444 -0.049289
C4    C     C_R   0.920066 0.430816 0.935437 0.040235
C5    C     C_R   0.987985 0.441613 0.039908 -0.038881
C6    C     C_R   0.937013 0.456308 0.111029 -0.183840
C7    C     C_R   0.843898 0.489968 0.088313 0.154528
C8    C     C_R   0.965731 0.400907 0.863903 0.262619
C9    C     C_R   0.058094 0.365569 0.893818 -0.204478
C10   C     C_R   0.129090 0.383787 0.996648 0.058898
C11   C     C_R   0.103988 0.434719 0.070983 -0.018921
C12   C     C_R   0.614663 0.511616 0.685974 0.817769
C13   C     C_R   0.231963 0.360393 0.026153 -0.147492
C14   C     C_R   0.312424 0.390346 0.129179 -0.258975
C15   C     C_R   0.199797 0.482461 0.173407 0.371763
C16   C     C_R   0.131179 0.960284 0.363639 -0.171098
C17   C     C_R   0.250151 0.161124 0.466723 -0.037152
C18   C     C_R   0.739835 0.924703 0.582327 -0.273217
C19   C     C_R   0.836670 0.043602 0.607445 0.469203
C20   C     C_R   0.935644 0.075871 0.570961 -0.186299
C21   C     C_R   0.937364 0.991248 0.505468 0.002239
C22   C     C_R   0.830264 0.873068 0.471542 0.074934
C23   C     C_R   0.346010 0.285311 0.485951 0.757908
C24   C     C_R   0.040938 0.020116 0.471353 0.100082
C25   C     C_R   0.030139 0.933557 0.398080 0.153896
C26   C     C_R   0.916744 0.822276 0.357202 -0.214194
C27   C     C_R   0.817407 0.792601 0.392143 -0.162642
C28   C     C_R   0.154914 0.132568 0.507193 -0.235552
C29   C     C_R   0.240514 0.073999 0.397322 -0.175988
C30   C     C_R   0.737838 0.838711 0.517088 -0.131209
C31   C     C_R   0.271568 0.718819 0.635122 0.084766
C32   C     C_R   0.649029 0.324515 0.379806 0.134498
C33   C     C_R   0.723189 0.278451 0.364212 -0.238790
C34   C     C_R   0.378582 0.479597 0.312810 0.816961
C35   C     C_R   0.860423 0.346122 0.410181 -0.076174
C36   C     C_R   0.927618 0.465011 0.467728 0.025321
C37   C     C_R   0.848159 0.507310 0.489110 0.247915
C38   C     C_R   0.070997 0.538146 0.513559 -0.047726
C39   C     C_R   0.133003 0.652725 0.576946 0.006925
C40   C     C_R   0.055937 0.698753 0.583677 -0.208858
C41   C     C_R   0.920804 0.625783 0.556864 0.185648
C42   C     C_R   0.156523 0.504672 0.495218 0.543812
C43   C     C_R   0.346873 0.670140 0.627861 0.012632
C44   C     C_R   0.674006 0.509208 0.792068 -0.277136
C45   C     C_R   0.297647 0.452190 0.203461 -0.090741
C46   C     C_R   0.723100 0.561327 0.972305 -0.159255
C47   C     C_R   0.675136 0.575098 0.875541 0.373071
C48   C     C_R   0.731453 0.438464 0.811290 0.378535
Cu1   Cu    Cu3+1 0.416420 0.526630 0.522910 0.978426
Cu2   Cu    Cu3+1 0.583580 0.473370 0.477090 0.974713
H1    H     H_    0.250066 0.318837 0.969521 0.162451
H2    H     H_    0.313631 0.095056 0.365300 0.148926
H3    H     H_    0.904758 0.758358 0.297186 0.180558
H4    H     H_    0.123183 0.894232 0.307805 0.149116
H5    H     H_    0.171210 0.201216 0.565008 0.150416
H6    H     H_    0.668385 0.899157 0.616395 0.160460
H7    H     H_    0.007977 0.168601 0.593823 0.153120
H8    H     H_    0.729146 0.706551 0.354155 0.184217
H9    H     H_    0.452881 0.719427 0.671818 0.160457
H10   H     H_    0.105185 0.790649 0.624105 0.207860
H11   H     H_    0.542214 0.270438 0.345160 0.118085
H12   H     H_    0.910601 0.300500 0.402336 0.183417
H13   H     H_    0.674076 0.188528 0.318609 0.152326
H14   H     H_    0.388033 0.367347 0.150452 0.192020
H15   H     H_    0.085994 0.336579 0.837428 0.185292
H16   H     H_    0.713312 0.604274 0.033850 0.198320
H17   H     H_    0.971644 0.444185 0.186042 0.231927
N1    N     N_R   0.290690 0.566960 0.557640 -0.240514
N2    N     N_R   0.709100 0.433710 0.442970 -0.192737
O1    O     O_R   0.545970 0.684450 0.528810 -0.578737
O2    O     O_R   0.687130 0.639470 0.490120 -0.572275
O3    O     O_R   0.519670 0.535100 0.660030 -0.566481
O4    O     O_R   0.660830 0.490120 0.621340 -0.522388
O5    O     O_R   0.312870 0.360530 0.509880 -0.617190
O6    O     O_R   0.454030 0.315550 0.471190 -0.594719
O7    O     O_R   0.339170 0.509880 0.378660 -0.504214
O8    O     O_R   0.480330 0.464900 0.339970 -0.601708
I1    I     I_    0.771757 0.505140 0.200881 -0.459832
O9    O     O_3   0.840171 0.130180 0.670536 -0.709323
H18   H     H_    0.763898 0.093600 0.689993 0.344934
O10   O     O_3   0.209018 0.568019 0.242500 -0.698954
H19   H     H_    0.182363 0.617178 0.204542 0.325275
I2    I     I_    0.376170 0.889544 0.738807 -0.337887
O11   O     O_3   0.107904 0.426641 0.402551 -0.739494
H20   H     H_    0.153316 0.382673 0.409664 0.357740
I3    I     I_    0.905073 0.708039 0.684214 -0.329228
O12   O     O_3   0.628030 0.650782 0.865983 -0.695888
H21   H     H_    0.650706 0.690316 0.813979 0.335414
O13   O     O_3   0.687356 0.337106 0.739222 -0.676480
H22   H     H_    0.600096 0.313158 0.685505 0.333895
I4    I     I_    0.942479 0.435130 0.719517 -0.288322

loop_
_geom_bond_atom_site_label_1
_geom_bond_atom_site_label_2
_ccdc_geom_bond_type
O12   H21   S    
Cu2   O8    S    
C40   H10   S    
Cu1   N1    S    
C37   N2    A    
C17   C29   A    
C35   C36   A    
C4    C8    A    
O10   H19   S    
C15   O10   S    
C41   I3    S    
C26   C27   A    
C17   C23   S    
C31   C43   A    
C36   C37   A    
Cu2   N2    S    
C32   H11   S    
C46   H16   S    
C3    C7    A    
C34   O8    A    
C38   C39   A    
C31   I2    S    
C18   C19   A    
C13   H1    S    
C11   C15   A    
C19   C20   A    
C8    C9    A    
Cu1   O3    S    
C18   C30   A    
C13   C14   A    
C9    C10   A    
C44   C47   A    
C18   H6    S    
C12   O3    A    
C21   C22   A    
C42   N1    A    
C28   H5    S    
C14   C45   A    
C9    H15   S    
C42   O11   S    
O11   H20   S    
Cu2   O4    S    
C39   C40   A    
C8    I4    S    
C43   N1    A    
C2    C48   A    
C16   C29   A    
C27   H8    S    
C47   O12   S    
C2    C4    A    
Cu2   O2    S    
C33   H13   S    
C14   H14   S    
Cu1   O7    S    
C34   C45   S    
C1    O2    A    
C24   C25   A    
C19   O9    S    
C6    C7    A    
C7    I1    S    
C40   C41   A    
C22   C27   A    
C15   C45   A    
C23   O5    A    
C26   H3    S    
C16   C25   A    
C20   H7    S    
C46   C47   A    
C6    H17   S    
C22   C30   A    
C17   C28   A    
C24   C28   A    
C23   O6    A    
C4    C5    A    
C10   C13   A    
C5    C11   A    
C32   N2    A    
C43   H9    S    
C3    C46   A    
C1    O1    A    
Cu1   O1    S    
C32   C33   A    
C36   C38   A    
C2    C3    A    
C25   C26   A    
C12   C44   S    
Cu2   O6    S    
C5    C6    A    
C1    C30   S    
C33   C35   A    
C31   C39   A    
C35   H12   S    
C37   C41   A    
C16   H4    S    
C10   C11   A    
O9    H18   S    
C38   C42   A    
C20   C21   A    
Cu1   Cu2   S    
C21   C24   A    
Cu1   O5    S    
O13   H22   S    
C12   O4    A    
C48   O13   S    
C44   C48   A    
C34   O7    A    
C29   H2    S    
