data_mof_unit_62296.cif
_audit_creation_date              2012-12-10T16:57:00-0500
_audit_creation_method            fapswitch 2.2
_symmetry_space_group_name_H-M    P1
_symmetry_Int_Tables_number       1
_space_group_crystal_system       triclinic
_cell_length_a                    20.923407
_cell_length_b                    15.95556
_cell_length_c                    13.158944
_cell_angle_alpha                 90.045253
_cell_angle_beta                  91.096945
_cell_angle_gamma                 90.035394
_cell_volume                      4392.23604945

loop_
_atom_site_label
_atom_site_type_symbol
_atom_type_description
_atom_site_fract_x
_atom_site_fract_y
_atom_site_fract_z
_atom_type_partial_charge
C1    C     C_R   0.620937 0.840178 0.469104 0.515249
C2    C     C_2   0.992938 0.499520 0.945605 -0.123248
C3    C     C_R   0.379658 0.159965 0.530656 0.506413
C4    C     C_R   0.379729 0.839905 0.530514 0.506767
C5    C     C_R   0.879655 0.659962 0.530654 0.506428
C6    C     C_R   0.879745 0.339897 0.530548 0.506749
C7    C     C_R   0.530238 0.999958 0.772014 0.514044
C8    C     C_R   0.030238 0.499959 0.772014 0.514035
C9    C     C_R   0.468957 0.999973 0.228587 0.480301
C10   C     C_R   0.968958 0.499972 0.228587 0.480303
C11   C     C_2   0.331293 0.775565 0.541107 -0.078768
C12   C     C_R   0.620714 0.160194 0.469882 0.515183
C13   C     C_2   0.330872 0.223644 0.542587 -0.078384
C14   C     C_2   0.831287 0.275608 0.541224 -0.078475
C15   C     C_2   0.830864 0.723635 0.542601 -0.078421
C16   C     C_2   0.272571 0.787944 0.503081 -0.149477
C17   C     C_2   0.277624 0.221020 0.485422 -0.149144
C18   C     C_2   0.772851 0.287504 0.501841 -0.149248
C19   C     C_2   0.777692 0.721149 0.485244 -0.149144
C20   C     C_2   0.668467 0.226751 0.460340 -0.104821
C21   C     C_2   0.670499 0.776896 0.453316 -0.105090
C22   C     C_2   0.168347 0.726974 0.460841 -0.104855
C23   C     C_R   0.120933 0.340173 0.469113 0.515249
C24   C     C_2   0.170470 0.276847 0.453396 -0.105093
C25   C     C_2   0.725025 0.220844 0.508738 -0.150321
C26   C     C_2   0.727209 0.783047 0.501289 -0.150303
C27   C     C_2   0.224890 0.721043 0.509297 -0.150368
C28   C     C_2   0.227180 0.282988 0.501371 -0.150310
C29   C     C_2   0.453596 0.999947 0.119366 0.294818
C30   C     C_2   0.953595 0.499946 0.119367 0.294817
C31   C     C_3   0.344130 0.001043 0.154836 -0.003536
C32   C     C_3   0.278255 0.001828 0.103990 -0.368881
C33   C     C_3   0.844130 0.501005 0.154840 -0.003544
C34   C     C_R   0.120703 0.660221 0.469938 0.515170
C35   C     C_3   0.778254 0.501768 0.103997 -0.368915
C36   C     C_2   0.503054 0.999219 0.056221 -0.097637
C37   C     C_2   0.003053 0.499233 0.056221 -0.097635
C38   C     C_2   0.542070 0.999702 0.882102 -0.127735
C39   C     C_2   0.042070 0.499708 0.882103 -0.127728
C40   C     C_2   0.492938 0.999511 0.945605 -0.123231
H1    H     H_    0.736617 0.165670 0.553956 0.161140
H2    H     H_    0.660711 0.725271 0.401345 0.107408
H3    H     H_    0.156824 0.781783 0.415039 0.107763
H4    H     H_    0.160660 0.225184 0.401492 0.107402
H5    H     H_    0.344920 0.715888 0.574831 0.093690
H6    H     H_    0.337197 0.270262 0.602193 0.093539
H7    H     H_    0.844589 0.216536 0.576798 0.093409
H8    H     H_    0.837078 0.770062 0.602451 0.093585
H9    H     H_    0.444259 0.999619 0.915291 0.212579
H10   H     H_    0.944259 0.499626 0.915291 0.212569
H11   H     H_    0.551783 0.998521 0.086778 0.080728
H12   H     H_    0.736633 0.834308 0.554041 0.160829
H13   H     H_    0.051782 0.498551 0.086778 0.080739
H14   H     H_    0.591020 0.999629 0.911279 0.110187
H15   H     H_    0.091020 0.499637 0.911280 0.110202
H16   H     H_    0.348501 0.057905 0.203595 0.138726
H17   H     H_    0.347996 0.943472 0.202337 0.139140
H18   H     H_    0.272035 0.945469 0.055187 0.167327
H19   H     H_    0.240868 0.001677 0.162768 0.092798
H20   H     H_    0.272542 0.058924 0.056450 0.166684
H21   H     H_    0.848492 0.557871 0.203595 0.138703
H22   H     H_    0.848006 0.443437 0.202345 0.139088
H23   H     H_    0.236610 0.665625 0.553990 0.161189
H24   H     H_    0.772042 0.445405 0.055199 0.167302
H25   H     H_    0.740868 0.501610 0.162778 0.092766
H26   H     H_    0.772530 0.558861 0.056453 0.166691
H27   H     H_    0.236634 0.334300 0.554037 0.160818
H28   H     H_    0.260377 0.846736 0.465614 0.126393
H29   H     H_    0.270982 0.172123 0.428480 0.124235
H30   H     H_    0.760958 0.345800 0.463008 0.126039
H31   H     H_    0.771125 0.672392 0.428105 0.124293
H32   H     H_    0.657037 0.281366 0.414139 0.107762
O1    O     O_3   0.500000 0.000000 0.500000 -0.439352
O2    O     O_R   0.880760 0.402800 0.590320 -0.530791
O3    O     O_R   0.577210 0.000000 0.711160 -0.535880
O4    O     O_R   0.077210 0.500000 0.711160 -0.535865
O5    O     O_R   0.475030 0.069050 0.275760 -0.551189
O6    O     O_R   0.475030 0.930950 0.275760 -0.551992
O7    O     O_R   0.975030 0.569050 0.275760 -0.551181
O8    O     O_R   0.975030 0.430950 0.275760 -0.552001
O9    O     O_R   0.632300 0.097230 0.527310 -0.540831
O10   O     O_R   0.632300 0.902770 0.527310 -0.540757
O11   O     O_R   0.132300 0.597230 0.527310 -0.540836
O12   O     O_3   0.000000 0.500000 0.500000 -0.439361
O13   O     O_R   0.132300 0.402770 0.527310 -0.540767
O14   O     O_R   0.419940 0.833680 0.459580 -0.536716
O15   O     O_R   0.419940 0.166320 0.459580 -0.535290
O16   O     O_R   0.919940 0.333680 0.459580 -0.536607
O17   O     O_R   0.919940 0.666320 0.459580 -0.535288
O18   O     O_R   0.472710 1.000000 0.737340 -0.539123
O19   O     O_R   0.972710 0.500000 0.737340 -0.539153
O20   O     O_3   0.391146 0.001268 0.079197 -0.578643
O21   O     O_3   0.891144 0.501241 0.079199 -0.578640
O22   O     O_R   0.566980 0.833700 0.422750 -0.535646
O23   O     O_R   0.566980 0.166300 0.422750 -0.535287
O24   O     O_R   0.066980 0.333700 0.422750 -0.535641
O25   O     O_R   0.066980 0.666300 0.422750 -0.535256
O26   O     O_R   0.380760 0.097200 0.590320 -0.532670
O27   O     O_R   0.380760 0.902800 0.590320 -0.530727
O28   O     O_R   0.880760 0.597200 0.590320 -0.532647
Zn1   Zn    Zn3+2 0.434690 1.000000 0.602700 0.944044
Zn2   Zn    Zn3+2 0.934690 0.500000 0.602700 0.944041
Zn3   Zn    Zn3+2 0.584000 0.000000 0.565300 0.938882
Zn4   Zn    Zn3+2 0.084000 0.500000 0.565300 0.938872
Zn5   Zn    Zn3+2 0.490640 0.098690 0.416020 0.936488
Zn6   Zn    Zn3+2 0.490640 0.901310 0.416020 0.936183
Zn7   Zn    Zn3+2 0.990640 0.598690 0.416020 0.936500
Zn8   Zn    Zn3+2 0.990640 0.401310 0.416020 0.936193

loop_
_geom_bond_atom_site_label_1
_geom_bond_atom_site_label_2
_ccdc_geom_bond_type
O4    Zn4   S    
C21   C26   D    
C17   H29   S    
O12   Zn2   S    
C14   C18   D    
C19   H31   S    
C3    O26   A    
C32   H18   S    
C34   O25   A    
C1    C21   S    
C29   C36   D    
C30   O21   S    
C13   H6    S    
O16   Zn8   S    
C4    O14   A    
C20   C25   D    
C35   H25   S    
C40   H9    S    
C8    O4    A    
O12   Zn7   S    
C6    O16   A    
C23   O24   A    
C19   C26   S    
O23   Zn5   S    
O12   Zn8   S    
C2    C39   D    
C39   H15   S    
C22   H3    S    
C1    O22   A    
C38   H14   S    
O10   Zn3   S    
C12   O23   A    
C35   H24   S    
C16   H28   S    
C8    C39   S    
C31   H16   S    
C2    H10   S    
C3    C13   S    
C9    C29   S    
O2    Zn2   S    
C37   H13   S    
C16   C27   S    
O1    Zn1   S    
O24   Zn8   S    
O3    Zn3   S    
O17   Zn7   S    
O14   Zn6   S    
C18   C25   S    
C15   H8    S    
C6    O2    A    
C22   C34   S    
O11   Zn4   S    
C3    O15   A    
C36   C40   S    
C28   H27   S    
C25   H1    S    
C10   O8    A    
C33   H22   S    
C7    O3    A    
C35   H26   S    
C1    O10   A    
C7    O18   A    
C30   C37   D    
C15   C19   D    
O18   Zn1   S    
C26   H12   S    
C6    C14   S    
C11   C16   D    
C10   C30   S    
O1    Zn5   S    
C31   C32   S    
O15   Zn5   S    
C5    O28   A    
C23   C24   S    
C12   C20   S    
O28   Zn2   S    
O7    Zn7   S    
C8    O19   A    
C9    O5    A    
C4    C11   S    
C36   H11   S    
O13   Zn4   S    
C27   H23   S    
O27   Zn1   S    
C22   C27   D    
O12   Zn4   S    
C11   H5    S    
C34   O11   A    
C32   H20   S    
O19   Zn2   S    
O9    Zn3   S    
O22   Zn6   S    
C17   C28   S    
C24   C28   D    
C33   O21   S    
C10   O7    A    
C14   H7    S    
O26   Zn1   S    
O8    Zn8   S    
C18   H30   S    
C13   C17   D    
O6    Zn6   S    
C31   H17   S    
O5    Zn5   S    
C38   C40   D    
C2    C37   S    
O1    Zn6   S    
C24   H4    S    
C33   C35   S    
C7    C38   S    
C12   O9    A    
C9    O6    A    
C5    C15   S    
C21   H2    S    
O25   Zn7   S    
O1    Zn3   S    
C33   H21   S    
C31   O20   S    
C23   O13   A    
C4    O27   A    
C20   H32   S    
C32   H19   S    
C29   O20   S    
C5    O17   A    
