data_mof_unit_23176.cif
_audit_creation_date              2012-12-11T15:52:15-0500
_audit_creation_method            fapswitch 2.2
_symmetry_space_group_name_H-M    P1
_symmetry_Int_Tables_number       1
_space_group_crystal_system       triclinic
_cell_length_a                    11.066877
_cell_length_b                    11.057021
_cell_length_c                    18.839148
_cell_angle_alpha                 90.227019
_cell_angle_beta                  89.884759
_cell_angle_gamma                 119.86883
_cell_volume                      1999.05255972

loop_
_atom_site_label
_atom_site_type_symbol
_atom_type_description
_atom_site_fract_x
_atom_site_fract_y
_atom_site_fract_z
_atom_type_partial_charge
C1    C     C_R   0.522204 0.452577 0.145631 0.583109
C2    C     C_R   0.577618 0.122486 0.139971 0.537887
C3    C     C_R   0.931027 0.477815 0.145436 0.602218
C4    C     C_R   0.455495 0.521175 0.853161 0.523515
C5    C     C_R   0.063917 0.543523 0.853088 0.530242
C6    C     C_R   0.481182 0.939864 0.852331 0.522243
C7    C     C_3   0.741709 0.135979 0.552178 -0.263267
C8    C     C_3   0.865730 0.607973 0.552199 -0.262581
C9    C     C_3   0.392644 0.257994 0.551456 -0.263963
C10   C     C_3   0.853364 0.612753 0.472590 -0.260356
C11   C     C_3   0.758876 0.148585 0.472554 -0.259870
C12   C     C_3   0.388177 0.241040 0.471813 -0.259956
C13   C     C_R   0.517657 0.458140 0.352747 0.606735
C14   C     C_R   0.542054 0.059761 0.352779 0.611717
C15   C     C_R   0.940521 0.482442 0.352712 0.610197
C16   C     C_R   0.457601 0.523693 0.644913 0.547121
C17   C     C_R   0.066092 0.542204 0.644858 0.552190
C18   C     C_R   0.476188 0.933874 0.644924 0.551494
C19   C     C_R   0.512952 0.022793 0.917801 0.001583
C20   C     C_R   0.997737 0.502434 0.922271 0.009442
C21   C     C_R   0.485108 0.505665 0.925782 -0.007283
C22   C     C_R   0.965449 0.491030 0.070584 0.027286
C23   C     C_R   0.556845 0.092940 0.063792 -0.014790
C24   C     C_R   0.503484 0.475134 0.072136 0.022326
C25   C     C_R   0.407504 0.020558 0.959900 -0.038658
C26   C     C_R   0.994089 0.393127 0.961364 -0.032902
C27   C     C_R   0.535189 0.620943 0.971665 -0.066853
C28   C     C_R   0.975968 0.386861 0.034274 -0.050948
C29   C     C_R   0.428927 0.051457 0.031623 -0.042227
C30   C     C_R   0.551979 0.606180 0.042901 -0.063919
C31   C     C_R   0.668318 0.114761 0.019866 -0.174624
C32   C     C_R   0.955440 0.592622 0.030794 -0.152562
C33   C     C_R   0.430779 0.357353 0.028039 -0.144254
C34   C     C_R   0.966828 0.595142 0.957654 -0.177474
C35   C     C_R   0.647886 0.084520 0.947048 -0.156393
C36   C     C_R   0.425725 0.372122 0.955219 -0.149124
C37   C     C_3   0.259996 0.908984 0.971982 -0.135192
C38   C     C_3   0.095173 0.340879 0.966303 -0.140430
C39   C     C_3   0.663785 0.761327 0.969337 -0.116273
C40   C     C_3   0.071850 0.330950 0.046700 -0.139001
C41   C     C_3   0.285320 0.941016 0.051558 -0.075220
C42   C     C_3   0.687383 0.739078 0.047127 -0.114677
C43   C     C_R   0.480062 0.978647 0.571701 0.012889
C44   C     C_R   0.021679 0.501400 0.571484 0.012609
C45   C     C_R   0.498318 0.519977 0.571588 0.012272
C46   C     C_R   0.003592 0.508389 0.422648 0.054247
C47   C     C_R   0.505229 0.997277 0.422817 0.053240
C48   C     C_R   0.491717 0.495305 0.422787 0.054460
C49   C     C_R   0.602812 0.014650 0.538252 -0.034807
C50   C     C_R   0.986325 0.588809 0.538247 -0.033527
C51   C     C_R   0.411122 0.397537 0.537988 -0.033532
C52   C     C_R   0.977658 0.593617 0.466797 -0.009005
C53   C     C_R   0.616312 0.023713 0.466767 -0.007905
C54   C     C_R   0.406611 0.384255 0.466513 -0.007774
C55   C     C_R   0.371084 0.942801 0.452881 -0.063418
C56   C     C_R   0.057588 0.428001 0.452484 -0.063377
C57   C     C_R   0.571687 0.629386 0.453057 -0.062688
C58   C     C_R   0.058221 0.415990 0.528243 -0.054129
C59   C     C_R   0.358398 0.942113 0.528676 -0.052658
C60   C     C_R   0.583615 0.641837 0.528821 -0.053920
Cr1   Cr    Cr6+3 0.769160 0.541570 0.250690 1.102117
Cr2   Cr    Cr6+3 0.458430 0.227590 0.250690 1.102508
Cr3   Cr    Cr6+3 0.772410 0.230840 0.250690 1.113290
Cr4   Cr    Cr6+3 0.541570 0.769160 0.749310 1.126471
Cr5   Cr    Cr6+3 0.227590 0.458430 0.749310 1.136039
Cr6   Cr    Cr6+3 0.230840 0.772410 0.749310 1.084179
H1    H     H_    0.768009 0.143747 0.042930 0.143724
H2    H     H_    0.945680 0.674872 0.056213 0.173502
H3    H     H_    0.380965 0.253488 0.049632 0.156716
H4    H     H_    0.970580 0.681784 0.930150 0.165518
H5    H     H_    0.734071 0.093701 0.915769 0.156477
H6    H     H_    0.373264 0.279559 0.922297 0.173805
H7    H     H_    0.241272 0.804473 0.955350 0.111425
H8    H     H_    0.201240 0.420311 0.948835 0.152249
H9    H     H_    0.637449 0.844471 0.960999 0.141680
H10   H     H_    0.016066 0.223174 0.068484 0.170446
H11   H     H_    0.225748 0.986102 0.077030 0.201872
H12   H     H_    0.776537 0.722273 0.056368 0.158493
H13   H     H_    0.807349 0.100394 0.578669 0.220971
H14   H     H_    0.901996 0.709260 0.579029 0.221303
H15   H     H_    0.291465 0.192843 0.577968 0.220898
H16   H     H_    0.757327 0.521679 0.451494 0.133905
H17   H     H_    0.763053 0.244505 0.451795 0.132721
H18   H     H_    0.479546 0.236239 0.450797 0.133757
H19   H     H_    0.737220 0.224469 0.577829 0.137621
H20   H     H_    0.776929 0.515657 0.577509 0.137992
H21   H     H_    0.485052 0.261527 0.576832 0.137781
H22   H     H_    0.876208 0.716534 0.452862 0.135041
H23   H     H_    0.840153 0.126225 0.452462 0.135709
H24   H     H_    0.284710 0.160235 0.451711 0.135218
O1    O     O_R   0.911480 0.572650 0.170990 -0.483893
O2    O     O_R   0.427350 0.338830 0.170990 -0.478969
O3    O     O_R   0.661170 0.088520 0.170990 -0.467393
O4    O     O_R   0.572650 0.911480 0.829010 -0.491622
O5    O     O_R   0.338830 0.427350 0.829010 -0.480150
O6    O     O_R   0.088520 0.661170 0.829010 -0.532699
O7    O     O_R   0.640340 0.528970 0.175680 -0.496209
O8    O     O_R   0.471030 0.111370 0.175680 -0.472677
O9    O     O_R   0.888630 0.359660 0.175680 -0.490731
O10   O     O_R   0.528970 0.640340 0.824320 -0.491804
O11   O     O_R   0.111370 0.471030 0.824320 -0.476667
O12   O     O_R   0.359660 0.888630 0.824320 -0.519024
O13   O     O_R   0.909980 0.572450 0.331530 -0.493219
O14   O     O_R   0.427550 0.337530 0.331530 -0.493555
O15   O     O_R   0.662470 0.090020 0.331530 -0.492296
O16   O     O_R   0.572450 0.909980 0.668470 -0.482862
O17   O     O_R   0.337530 0.427550 0.668470 -0.484208
O18   O     O_R   0.090020 0.662470 0.668470 -0.485746
O19   O     O_R   0.638950 0.528780 0.324500 -0.494491
O20   O     O_R   0.471220 0.110170 0.324500 -0.491412
O21   O     O_R   0.889830 0.361050 0.324500 -0.493784
O22   O     O_R   0.528780 0.638950 0.675500 -0.448243
O23   O     O_R   0.110170 0.471220 0.675500 -0.445385
O24   O     O_R   0.361050 0.889830 0.675500 -0.448666
O25   O     O_3   0.666667 0.333333 0.250560 -0.342506
O26   O     O_3   0.333333 0.666667 0.749440 -0.306882
C61   C     C_2   0.161011 0.948759 0.939285 0.238985
H25   H     H_    0.165935 0.968785 0.882725 0.182399
O27   O     O_2   0.072753 0.955550 0.975265 -0.516200
C62   C     C_2   0.038460 0.201494 0.930733 0.287657
H26   H     H_    0.946978 0.111269 0.951955 0.157613
O28   O     O_2   0.093763 0.188753 0.877380 -0.439428
C63   C     C_2   0.769331 0.766405 0.917747 0.293166
H27   H     H_    0.777206 0.674107 0.908598 0.096878
O29   O     O_2   0.838647 0.870329 0.882051 -0.453238
C64   C     C_2   0.196121 0.430400 0.089726 0.255763
H28   H     H_    0.272113 0.530366 0.067957 0.092307
O30   O     O_2   0.208837 0.401506 0.150655 -0.420025
C65   C     C_2   0.283779 0.824299 0.093076 0.244451
H29   H     H_    0.336674 0.771090 0.072693 0.074894
O31   O     O_2   0.224417 0.789915 0.150256 -0.424152
C66   C     C_2   0.680765 0.840460 0.097580 0.262149
H30   H     H_    0.590316 0.854110 0.098220 0.125988
O32   O     O_2   0.776702 0.907124 0.138661 -0.451616
C67   C     C_2   0.248550 0.895042 0.404937 0.240765
H31   H     H_    0.162495 0.911388 0.418162 0.069439
O33   O     O_2   0.242843 0.835712 0.349170 -0.413530
C68   C     C_2   0.104851 0.352508 0.404292 0.241873
H32   H     H_    0.088011 0.249907 0.417154 0.069913
O34   O     O_2   0.164218 0.405712 0.348701 -0.414451
C69   C     C_2   0.646869 0.751974 0.405313 0.241581
H33   H     H_    0.749181 0.837590 0.418531 0.071692
O35   O     O_2   0.593707 0.758197 0.349707 -0.427474
C70   C     C_2   0.086929 0.307819 0.558385 0.226516
H34   H     H_    0.142890 0.269434 0.527899 0.091696
O36   O     O_2   0.039471 0.250853 0.615054 -0.469948
C71   C     C_2   0.221726 0.913446 0.559148 0.228611
H35   H     H_    0.127569 0.856836 0.528926 0.092668
O37   O     O_2   0.212210 0.961770 0.615788 -0.474600
C72   C     C_2   0.691466 0.778491 0.559423 0.228596
H36   H     H_    0.729089 0.872798 0.529398 0.092381
O38   O     O_2   0.748995 0.787873 0.615945 -0.471142

loop_
_geom_bond_atom_site_label_1
_geom_bond_atom_site_label_2
_ccdc_geom_bond_type
C14   O20   A    
C38   C40   S    
C45   C60   A    
C64   H28   S    
Cr4   O26   S    
C55   C59   A    
C61   H25   S    
C63   H27   S    
Cr6   O12   S    
C44   C58   A    
C71   H35   S    
C9    C51   S    
Cr5   O11   S    
Cr1   O19   S    
C18   O24   A    
C17   O23   A    
C67   H31   S    
C21   C36   A    
C32   H2    S    
C31   H1    S    
C6    C19   S    
C10   H22   S    
C7    H13   S    
Cr6   O26   S    
C23   C29   A    
C12   H24   S    
C71   O37   D    
Cr1   O1    S    
C61   O27   D    
C41   H11   S    
C55   C67   S    
C63   O29   D    
C45   C51   A    
C46   C52   A    
C33   C36   A    
C39   C63   S    
C12   H18   S    
C3    O1    A    
C13   O19   A    
C16   O17   A    
C25   C37   S    
Cr2   O8    S    
C14   O15   A    
C27   C39   S    
C66   H30   S    
C6    O4    A    
Cr2   O2    S    
Cr1   O25   S    
Cr3   O9    S    
C39   H9    S    
Cr3   O15   S    
C34   H4    S    
C11   C53   S    
C43   C59   A    
C47   C53   A    
C38   C62   S    
C21   C27   A    
C35   H5    S    
C22   C28   A    
C27   C30   A    
C37   C41   S    
C62   O28   D    
C39   C42   S    
Cr2   O14   S    
C25   C29   A    
C5    O11   A    
Cr6   O6    S    
C15   O21   A    
C48   C57   A    
C7    C49   S    
C70   O36   D    
C17   O18   A    
C1    O7    A    
C5    C20   S    
C26   C38   S    
C57   C60   A    
C11   H17   S    
C32   C34   A    
C10   H16   S    
C40   H10   S    
C23   C31   A    
C48   C54   A    
C7    C11   S    
C18   O16   A    
C72   O38   D    
C58   C70   S    
C4    O5    A    
C56   C68   S    
C10   C52   S    
C11   H23   S    
C50   C52   A    
Cr2   O20   S    
C22   C32   A    
C40   C64   S    
Cr1   O7    S    
C60   C72   S    
C13   O14   A    
C68   O34   D    
C66   O32   D    
C42   H12   S    
C1    O2    A    
C4    O10   A    
Cr5   O26   S    
C31   C35   A    
C8    C50   S    
C5    O6    A    
C62   H26   S    
C16   O22   A    
C47   C55   A    
C65   H29   S    
C38   H8    S    
C44   C50   A    
C67   O33   D    
C37   H7    S    
C64   O30   D    
Cr6   O24   S    
Cr1   O13   S    
C72   H36   S    
Cr5   O23   S    
C2    O3    A    
C43   C49   A    
Cr6   O18   S    
C70   H34   S    
C16   C45   S    
C13   C48   S    
Cr4   O16   S    
C14   C47   S    
C33   H3    S    
Cr3   O3    S    
C26   C28   A    
C24   C33   A    
C57   C69   S    
C51   C54   A    
C69   O35   D    
C17   C44   S    
Cr3   O25   S    
Cr2   O25   S    
C19   C35   A    
C18   C43   S    
C9    H21   S    
C41   C65   S    
C4    C21   S    
Cr5   O5    S    
C7    H19   S    
C20   C26   A    
C49   C53   A    
C56   C58   A    
C8    H20   S    
C6    O12   A    
Cr3   O21   S    
C19   C25   A    
C9    C12   S    
C24   C30   A    
Cr4   O22   S    
C68   H32   S    
Cr4   O4    S    
C20   C34   A    
C3    O9    A    
Cr4   O10   S    
C37   C61   S    
C2    O8    A    
C1    C24   S    
C8    C10   S    
C46   C56   A    
C2    C23   S    
C8    H14   S    
C28   C40   S    
C29   C41   S    
C30   C42   S    
C3    C22   S    
C42   C66   S    
C15   C46   S    
C15   O13   A    
C69   H33   S    
Cr5   O17   S    
C12   C54   S    
C36   H6    S    
C9    H15   S    
C65   O31   D    
C59   C71   S    
