data_mof_unit_10506.cif
_audit_creation_date              2012-12-11T14:30:49-0500
_audit_creation_method            fapswitch 2.2
_symmetry_space_group_name_H-M    P1
_symmetry_Int_Tables_number       1
_space_group_crystal_system       triclinic
_cell_length_a                    17.460906
_cell_length_b                    24.47545
_cell_length_c                    14.978783
_cell_angle_alpha                 90.250973
_cell_angle_beta                  125.117444
_cell_angle_gamma                 89.346389
_cell_volume                      5235.81160306

loop_
_atom_site_label
_atom_site_type_symbol
_atom_type_description
_atom_site_fract_x
_atom_site_fract_y
_atom_site_fract_z
_atom_type_partial_charge
C1    C     C_R   0.838453 0.648553 0.907489 -0.157973
C2    C     C_R   0.959402 0.502297 0.647324 0.140602
C3    C     C_3   0.693320 0.879843 0.515054 -1.013351
C4    C     C_3   0.736703 0.601643 0.649161 -0.337267
C5    C     C_3   0.716456 0.595301 0.535875 -0.922905
C6    C     C_3   0.257744 0.600723 0.352602 -0.337428
C7    C     C_3   0.246498 0.594502 0.445873 -0.915174
C8    C     C_3   0.236662 0.101643 0.649162 -0.337245
C9    C     C_3   0.216438 0.095306 0.535886 -0.922819
C10   C     C_3   0.757679 0.100744 0.352536 -0.337314
C11   C     C_3   0.746718 0.094535 0.446031 -0.914769
C12   C     C_R   0.456731 0.003031 0.279923 0.143567
C13   C     C_R   0.459413 0.002299 0.647330 0.140592
C14   C     C_R   0.688394 0.502712 0.645843 -0.106515
C15   C     C_R   0.306850 0.500863 0.360362 -0.118754
C16   C     C_R   0.188379 0.002705 0.645858 -0.106542
C17   C     C_R   0.806827 0.000877 0.360393 -0.118404
C18   C     C_3   0.526563 0.461272 0.578685 -0.119223
C19   C     C_3   0.471707 0.453071 0.454395 -0.110487
C20   C     C_3   0.026534 0.961204 0.578561 -0.118965
C21   C     C_R   0.174436 0.640576 0.090622 -0.158925
C22   C     C_3   0.971680 0.953118 0.454243 -0.110619
C23   C     C_3   0.460372 0.508460 0.562558 -0.204302
C24   C     C_3   0.534451 0.494417 0.448188 -0.196830
C25   C     C_3   0.960352 0.008361 0.562593 -0.204485
C26   C     C_3   0.034432 0.994521 0.448182 -0.197111
C27   C     C_3   0.407016 0.500440 0.439730 0.230063
C28   C     C_3   0.587782 0.502741 0.570846 0.238556
C29   C     C_3   0.906997 0.000456 0.439737 0.230236
C30   C     C_3   0.087763 0.002731 0.570869 0.238566
C31   C     C_3   0.468493 0.541768 0.432122 -0.169593
C32   C     C_R   0.338448 0.148551 0.907492 -0.157986
C33   C     C_3   0.523269 0.549963 0.556509 -0.136467
C34   C     C_3   0.968482 0.041842 0.432277 -0.169284
C35   C     C_3   0.023259 0.049922 0.556694 -0.136586
C36   C     C_2   0.141764 0.754198 0.924844 -0.112805
C37   C     C_2   0.878851 0.769038 0.075063 -0.113194
C38   C     C_2   0.641689 0.254259 0.924852 -0.112812
C39   C     C_2   0.378849 0.269036 0.075063 -0.113188
C40   C     C_2   0.197105 0.714209 0.993987 -0.205416
C41   C     C_2   0.828497 0.732509 0.995286 -0.198911
C42   C     C_2   0.697021 0.214277 0.994026 -0.205410
C43   C     C_R   0.674385 0.140612 0.090633 -0.158953
C44   C     C_2   0.328490 0.232504 0.995292 -0.198917
C45   C     C_2   0.682493 0.304793 0.921414 -0.120368
C46   C     C_2   0.334266 0.318786 0.080533 -0.114816
C47   C     C_2   0.182555 0.804737 0.921416 -0.120389
C48   C     C_2   0.834266 0.818787 0.080533 -0.114815
C49   C     C_R   0.915073 0.367355 0.094351 -0.147534
C50   C     C_R   0.094361 0.377182 0.905461 -0.141597
C51   C     C_R   0.415094 0.867341 0.094355 -0.147601
C52   C     C_R   0.594361 0.877182 0.905461 -0.141590
C53   C     C_2   0.761605 0.322261 0.011621 -0.193725
C54   C     C_R   0.827678 0.353840 0.005797 0.137070
C55   C     C_2   0.256792 0.339538 0.990750 -0.192569
C56   C     C_2   0.261666 0.822202 0.011626 -0.193726
C57   C     C_2   0.756794 0.839540 0.990751 -0.192578
C58   C     C_2   0.893332 0.460680 0.369692 -0.101489
C59   C     C_2   0.894460 0.463709 0.467662 -0.139542
C60   C     C_2   0.393332 0.960686 0.369693 -0.101426
C61   C     C_2   0.394462 0.963716 0.467663 -0.139563
C62   C     C_2   0.906116 0.505529 0.329574 -0.190557
C63   C     C_2   0.938883 0.504366 0.539491 -0.199494
C64   C     C_2   0.406124 0.005533 0.329581 -0.190568
C65   C     C_R   0.183503 0.365111 0.995320 0.126483
C66   C     C_2   0.438901 0.004367 0.539502 -0.199502
C67   C     C_R   0.983459 0.547896 0.249897 -0.158339
C68   C     C_R   0.966622 0.547476 0.706351 -0.144945
C69   C     C_R   0.483479 0.047898 0.249918 -0.158043
C70   C     C_R   0.466631 0.047478 0.706357 -0.144921
C71   C     C_R   0.740251 0.457240 0.700963 0.472842
C72   C     C_R   0.257516 0.456155 0.300530 0.465718
C73   C     C_R   0.240243 0.957235 0.700980 0.472868
C74   C     C_R   0.757500 0.956165 0.300561 0.465566
C75   C     C_R   0.990804 0.457029 0.259199 -0.122745
C76   C     C_R   0.327710 0.853810 0.005801 0.137091
C77   C     C_R   0.962407 0.456416 0.702470 -0.158112
C78   C     C_R   0.490801 0.957029 0.259195 -0.122771
C79   C     C_R   0.462412 0.956417 0.702472 -0.158121
C80   C     C_R   0.741243 0.547703 0.700511 0.118282
C81   C     C_R   0.255326 0.546439 0.303124 0.119968
C82   C     C_R   0.241231 0.047699 0.700515 0.118267
C83   C     C_R   0.755310 0.046448 0.303121 0.119741
C84   C     C_R   0.818979 0.371612 0.913126 -0.149401
C85   C     C_R   0.186810 0.377715 0.087596 -0.139266
C86   C     C_R   0.318999 0.871591 0.913127 -0.149347
C87   C     C_R   0.683504 0.865113 0.995320 0.126539
C88   C     C_R   0.686811 0.877717 0.087596 -0.139360
C89   C     C_R   0.933531 0.649786 0.089273 -0.128150
C90   C     C_R   0.079568 0.640360 0.907186 -0.121588
C91   C     C_R   0.433528 0.149784 0.089275 -0.128188
C92   C     C_R   0.579525 0.140398 0.907196 -0.121582
C93   C     C_R   0.863257 0.678094 0.998591 0.139559
C94   C     C_R   0.157213 0.664049 0.996733 0.141762
C95   C     C_R   0.363251 0.178091 0.998595 0.139591
C96   C     C_R   0.657141 0.164106 0.996752 0.141779
C97   C     C_3   0.767799 0.373902 0.652095 0.165657
C98   C     C_R   0.956720 0.503028 0.279911 0.143716
C99   C     C_3   0.734824 0.380463 0.533300 -0.284773
C100  C     C_3   0.779238 0.337287 0.502069 -1.056447
C101  C     C_3   0.218123 0.384288 0.364454 0.180023
C102  C     C_3   0.240910 0.410242 0.470773 -0.309072
C103  C     C_3   0.193535 0.380140 0.515409 -1.013178
C104  C     C_3   0.267800 0.873907 0.652087 0.165622
C105  C     C_3   0.234805 0.880483 0.533285 -0.284720
C106  C     C_3   0.279201 0.837313 0.502019 -1.056420
C107  C     C_3   0.718072 0.884208 0.364253 0.179923
C108  C     C_3   0.740711 0.910070 0.470573 -0.308843
H1    H     H_    0.794567 0.663457 0.824909 0.088512
H2    H     H_    0.544331 0.589859 0.599093 0.112448
H3    H     H_    0.142460 0.084072 0.475156 0.263168
H4    H     H_    0.228706 0.134764 0.509969 0.245991
H5    H     H_    0.183141 0.128819 0.644316 0.171707
H6    H     H_    0.305927 0.121538 0.700906 0.186695
H7    H     H_    0.683765 0.070143 0.419614 0.261195
H8    H     H_    0.809169 0.074448 0.517187 0.256992
H9    H     H_    0.738688 0.135534 0.471947 0.246901
H10   H     H_    0.823734 0.122251 0.381546 0.178787
H11   H     H_    0.697712 0.126368 0.290153 0.187951
H12   H     H_    0.943459 0.074928 0.370695 0.110860
H13   H     H_    0.044347 0.089778 0.599431 0.112425
H14   H     H_    0.067117 0.748462 0.865291 0.124168
H15   H     H_    0.949086 0.759034 0.144916 0.121645
H16   H     H_    0.567049 0.248514 0.865270 0.124158
H17   H     H_    0.449087 0.259034 0.144912 0.121638
H18   H     H_    0.272145 0.718686 0.052506 0.134258
H19   H     H_    0.757262 0.741091 0.926345 0.132237
H20   H     H_    0.772057 0.218760 0.052570 0.134254
H21   H     H_    0.225172 0.654142 0.172869 0.091163
H22   H     H_    0.257252 0.241086 0.926356 0.132235
H23   H     H_    0.653821 0.322767 0.841925 0.126236
H24   H     H_    0.356597 0.331764 0.161368 0.122266
H25   H     H_    0.153861 0.822728 0.841935 0.126243
H26   H     H_    0.856595 0.831764 0.161368 0.122264
H27   H     H_    0.784645 0.306977 0.091575 0.131162
H28   H     H_    0.238977 0.329485 0.910234 0.132137
H29   H     H_    0.284725 0.806901 0.091575 0.131168
H30   H     H_    0.738980 0.829489 0.910235 0.132131
H31   H     H_    0.898950 0.420176 0.344177 0.116810
H32   H     H_    0.294556 0.163456 0.824913 0.088501
H33   H     H_    0.871142 0.428219 0.488090 0.143220
H34   H     H_    0.398944 0.920181 0.344174 0.116825
H35   H     H_    0.371127 0.928231 0.488083 0.143231
H36   H     H_    0.892100 0.545905 0.347740 0.129084
H37   H     H_    0.965800 0.539531 0.522518 0.135073
H38   H     H_    0.392114 0.045911 0.347753 0.129083
H39   H     H_    0.465835 0.039528 0.522537 0.135068
H40   H     H_    0.948425 0.351991 0.176111 0.081218
H41   H     H_    0.068472 0.371087 0.821240 0.096886
H42   H     H_    0.448458 0.851975 0.176116 0.081222
H43   H     H_    0.725082 0.154190 0.172886 0.091176
H44   H     H_    0.568472 0.871086 0.821240 0.096875
H45   H     H_    0.970749 0.590129 0.258685 0.103709
H46   H     H_    0.953795 0.589493 0.678930 0.098268
H47   H     H_    0.470780 0.090132 0.258716 0.103687
H48   H     H_    0.453811 0.089495 0.678943 0.098270
H49   H     H_    0.990637 0.416177 0.284230 0.081497
H50   H     H_    0.948259 0.415009 0.672660 0.092083
H51   H     H_    0.490609 0.916177 0.284201 0.081605
H52   H     H_    0.448265 0.915010 0.672660 0.092079
H53   H     H_    0.761910 0.363305 0.831260 0.157378
H54   H     H_    0.550987 0.428242 0.640251 0.147075
H55   H     H_    0.246080 0.372863 0.170555 0.154575
H56   H     H_    0.261947 0.863265 0.831262 0.157367
H57   H     H_    0.746082 0.872868 0.170554 0.154577
H58   H     H_    0.977016 0.664786 0.172072 0.086888
H59   H     H_    0.042403 0.652736 0.822709 0.088616
H60   H     H_    0.477013 0.164784 0.172074 0.086860
H61   H     H_    0.542345 0.152782 0.822722 0.088600
H62   H     H_    0.429758 0.512621 0.609773 0.116766
H63   H     H_    0.567223 0.488663 0.403528 0.121924
H64   H     H_    0.929700 0.012441 0.609781 0.116823
H65   H     H_    0.451189 0.412906 0.412660 0.152012
H66   H     H_    0.067199 0.988842 0.403502 0.121980
H67   H     H_    0.761250 0.330279 0.666698 0.133563
H68   H     H_    0.843133 0.383758 0.710097 0.084662
H69   H     H_    0.657428 0.376334 0.478385 0.214877
H70   H     H_    0.752725 0.421957 0.521437 0.181350
H71   H     H_    0.856774 0.338721 0.558012 0.259960
H72   H     H_    0.757461 0.344826 0.417392 0.272724
H73   H     H_    0.755825 0.295888 0.505883 0.273423
H74   H     H_    0.228727 0.339379 0.376596 0.133530
H75   H     H_    0.143454 0.390495 0.296358 0.091828
H76   H     H_    0.050934 0.928115 0.640006 0.147178
H77   H     H_    0.317921 0.409175 0.533243 0.212671
H78   H     H_    0.216978 0.453605 0.455567 0.194665
H79   H     H_    0.116508 0.379977 0.454448 0.261378
H80   H     H_    0.209505 0.400913 0.590295 0.274483
H81   H     H_    0.219828 0.337327 0.536527 0.263521
H82   H     H_    0.261261 0.830281 0.666679 0.133564
H83   H     H_    0.343134 0.883766 0.710082 0.084663
H84   H     H_    0.157406 0.876358 0.478380 0.214882
H85   H     H_    0.252706 0.921980 0.521435 0.181339
H86   H     H_    0.356738 0.838741 0.557954 0.259950
H87   H     H_    0.951152 0.912992 0.412357 0.151972
H88   H     H_    0.257411 0.844862 0.417340 0.272724
H89   H     H_    0.255784 0.795911 0.505819 0.273415
H90   H     H_    0.728699 0.839295 0.376291 0.133578
H91   H     H_    0.643422 0.890417 0.296094 0.091802
H92   H     H_    0.817710 0.909042 0.533112 0.212705
H93   H     H_    0.716697 0.953416 0.455418 0.194508
H94   H     H_    0.616310 0.879613 0.454005 0.261314
H95   H     H_    0.709143 0.900563 0.589920 0.274490
H96   H     H_    0.719729 0.837051 0.536164 0.263555
H97   H     H_    0.763114 0.563692 0.536895 0.264858
H98   H     H_    0.443450 0.574797 0.370425 0.110905
H99   H     H_    0.642489 0.584044 0.475166 0.263195
H100  H     H_    0.728686 0.634759 0.509929 0.246017
H101  H     H_    0.683207 0.628835 0.644332 0.171687
H102  H     H_    0.805979 0.621526 0.700902 0.186706
H103  H     H_    0.183179 0.570412 0.419040 0.261290
H104  H     H_    0.308571 0.574090 0.516862 0.257018
H105  H     H_    0.238978 0.635507 0.472197 0.247002
H106  H     H_    0.323915 0.622151 0.381864 0.178946
H107  H     H_    0.197925 0.626424 0.290211 0.187966
H108  H     H_    0.263081 0.063685 0.536902 0.264842
N1    N     N_R   0.892320 0.603520 0.941090 -0.040908
N2    N     N_R   0.973240 0.529450 0.794410 -0.037921
N3    N     N_R   0.526760 0.029450 0.205590 -0.040016
N4    N     N_R   0.473240 0.029450 0.794410 -0.037919
N5    N     N_R   0.819350 0.473090 0.793940 -0.108310
N6    N     N_R   0.180650 0.473090 0.206060 -0.108513
N7    N     N_R   0.319350 0.973090 0.793940 -0.108303
N8    N     N_R   0.680650 0.973090 0.206060 -0.108523
N9    N     N_R   0.027860 0.473090 0.206590 -0.055474
N10   N     N_R   0.972140 0.473090 0.793410 -0.047631
N11   N     N_R   0.527860 0.973090 0.206590 -0.055514
N12   N     N_R   0.107680 0.603520 0.058910 -0.041654
N13   N     N_R   0.472140 0.973090 0.793410 -0.047629
N14   N     N_R   0.818250 0.529450 0.792940 -0.090388
N15   N     N_R   0.181750 0.529450 0.207060 -0.088162
N16   N     N_R   0.318250 0.029450 0.792940 -0.090386
N17   N     N_R   0.681750 0.029450 0.207060 -0.088201
N18   N     N_R   0.896320 0.399020 0.944720 -0.046802
N19   N     N_R   0.103680 0.399020 0.055280 -0.045950
N20   N     N_R   0.396320 0.899020 0.944720 -0.046796
N21   N     N_R   0.603680 0.899020 0.055280 -0.045968
N22   N     N_R   0.949790 0.603520 0.054810 -0.038930
N23   N     N_R   0.392320 0.103520 0.941090 -0.040903
N24   N     N_R   0.050210 0.603520 0.945190 -0.042138
N25   N     N_R   0.449790 0.103520 0.054810 -0.038946
N26   N     N_R   0.550210 0.103520 0.945190 -0.042126
N27   N     N_R   0.607680 0.103520 0.058910 -0.041658
N28   N     N_R   0.953790 0.399020 0.058440 -0.040524
N29   N     N_R   0.046210 0.399020 0.941560 -0.044713
N30   N     N_R   0.453790 0.899020 0.058440 -0.040535
N31   N     N_R   0.546210 0.899020 0.941560 -0.044703
N32   N     N_R   0.026760 0.529450 0.205590 -0.039992
Ni1   Ni    Ni4+2 0.934100 0.565890 0.869590 0.198088
Ni2   Ni    Ni4+2 0.065900 0.565890 0.130410 0.200871
Ni3   Ni    Ni4+2 0.434100 0.065890 0.869590 0.198097
Ni4   Ni    Ni4+2 0.565900 0.065890 0.130410 0.200837
Ni5   Ni    Ni4+2 0.068420 0.436630 0.132700 0.205912
Ni6   Ni    Ni4+2 0.931580 0.436630 0.867300 0.200248
Ni7   Ni    Ni4+2 0.568420 0.936630 0.132700 0.205838
Ni8   Ni    Ni4+2 0.431580 0.936630 0.867300 0.200256
O1    O     O_3   0.709005 0.404356 0.670229 -0.702682
O2    O     O_3   0.279149 0.402836 0.338128 -0.702387
O3    O     O_3   0.209013 0.904349 0.670250 -0.702728
O4    O     O_3   0.779188 0.902844 0.338135 -0.702364

loop_
_geom_bond_atom_site_label_1
_geom_bond_atom_site_label_2
_ccdc_geom_bond_type
C58   H31   S    
C58   C62   D    
C12   C69   A    
C13   C79   A    
C72   O2    S    
C101  C102  S    
C97   H67   S    
C22   C29   S    
C90   H59   S    
C17   C29   S    
C14   C71   A    
C41   H19   S    
C68   N2    A    
C9    H3    S    
C53   H27   S    
C87   C88   A    
N13   Ni8   S    
C54   C84   A    
C7    H104  S    
C97   O1    S    
C48   C57   D    
C15   C81   A    
N8    Ni7   S    
C20   C30   S    
C53   C54   S    
C2    C63   S    
C105  H85   S    
C15   C72   A    
C69   H47   S    
N10   Ni6   S    
N4    N13   A    
C37   C41   D    
C8    C82   S    
N26   Ni3   S    
C48   H26   S    
C7    H103  S    
C99   H69   S    
C68   H46   S    
C46   H24   S    
C12   C64   S    
N2    N10   A    
C40   H18   S    
C21   C94   A    
C26   H66   S    
C16   C30   S    
C55   H28   S    
C100  H72   S    
C74   N8    A    
C10   C83   S    
C92   C96   A    
C4    H102  S    
N21   N31   A    
C36   C47   S    
C34   C35   S    
C24   H63   S    
C42   C96   S    
C79   N13   A    
C38   C45   S    
C22   C26   S    
C10   H11   S    
C67   C98   A    
C60   H34   S    
C37   H15   S    
C92   N26   A    
C61   C66   D    
C26   C34   S    
N22   Ni2   S    
C41   C93   S    
C6    H107  S    
C91   N25   A    
C51   H42   S    
C8    C9    S    
C23   C33   S    
C12   C78   A    
C46   C55   D    
C100  H71   S    
C107  C108  S    
C31   C33   S    
C103  H81   S    
C14   C80   A    
C50   N29   A    
C19   C27   S    
C6    C81   S    
N18   Ni6   S    
C101  H75   S    
C8    H6    S    
C77   H50   S    
C20   H76   S    
C1    H1    S    
N31   Ni8   S    
C75   H49   S    
C9    H4    S    
C67   H45   S    
C45   C53   D    
N24   Ni1   S    
C97   H68   S    
C62   C98   S    
C47   H25   S    
C25   C29   S    
C3    H96   S    
C105  H84   S    
N25   Ni4   S    
N1    Ni1   S    
C84   N18   A    
N7    Ni8   S    
C104  C105  S    
C55   C65   S    
C32   H32   S    
N32   Ni2   S    
C60   C64   D    
C90   C94   A    
C6    C7    S    
N12   Ni2   S    
C13   C66   S    
C9    H108  S    
C34   H12   S    
C102  H77   S    
C73   N7    A    
N23   Ni3   S    
C16   C73   A    
C83   N17   A    
C91   H60   S    
C36   C40   D    
C51   N30   A    
C18   C28   S    
C51   C76   A    
N19   Ni5   S    
C99   H70   S    
C106  H86   S    
C97   C99   S    
C80   N14   A    
C79   H52   S    
N30   Ni7   S    
C18   C19   S    
N11   Ni7   S    
C43   N27   A    
C58   C59   S    
C104  H83   S    
C27   C31   S    
C29   C34   S    
C75   C98   A    
C86   N20   A    
C4    H101  S    
C57   C87   S    
C49   H40   S    
C60   C61   S    
C17   C83   A    
C104  O3    S    
N5    N14   A    
C36   H14   S    
N8    N17   A    
C19   H65   S    
C108  H93   S    
C10   H10   S    
C75   N9    A    
N20   N30   A    
C11   H7    S    
C5    H99   S    
C67   N32   A    
C15   C27   S    
C99   C100  S    
C6    H106  S    
C35   H13   S    
C92   H61   S    
C52   H44   S    
C72   N6    A    
C101  O2    S    
C16   C82   A    
C43   C96   A    
C103  H79   S    
N23   N25   A    
N16   Ni3   S    
C102  H78   S    
N20   Ni8   S    
C37   C48   S    
C65   C85   A    
C100  H73   S    
C21   H21   S    
C66   H39   S    
C7    H105  S    
C8    H5    S    
C31   H98   S    
C106  H89   S    
C30   C35   S    
C25   H64   S    
C1    C93   A    
C4    C80   S    
C25   C35   S    
N6    N15   A    
C45   H23   S    
C108  H92   S    
C23   C27   S    
N28   Ni5   S    
C39   C46   S    
C81   N15   A    
C17   C74   A    
C85   H55   S    
N2    Ni1   S    
C70   H48   S    
C22   H87   S    
C86   H56   S    
C20   C22   S    
N14   Ni1   S    
C52   N31   A    
C76   C86   A    
C40   C94   S    
C49   N28   A    
C43   H43   S    
N7    N16   A    
C39   H17   S    
C74   O4    S    
C105  C106  S    
N6    Ni5   S    
C78   N11   A    
C21   N12   A    
C82   N16   A    
C104  H82   S    
C64   H38   S    
N27   Ni4   S    
N26   N27   A    
C69   N3    A    
C59   C63   D    
C89   N22   A    
N21   Ni7   S    
C52   C87   A    
C103  H80   S    
C24   C28   S    
C62   H36   S    
C4    C5    S    
C28   C33   S    
C107  H90   S    
C106  H88   S    
C73   O3    S    
N12   N24   A    
C39   C44   D    
C32   N23   A    
C42   H20   S    
C3    C108  S    
C71   O1    S    
N29   Ni6   S    
C2    C68   A    
C90   N24   A    
N3    Ni4   S    
N3    N11   A    
C61   H35   S    
C19   C24   S    
C24   C31   S    
C56   C76   S    
C11   H8    S    
C5    H100  S    
C107  H91   S    
C56   H29   S    
C18   H54   S    
C50   H41   S    
C13   C70   A    
N5    Ni6   S    
C23   H62   S    
N9    N32   A    
C18   C23   S    
C88   N21   A    
N19   N29   A    
C57   H30   S    
C85   N19   A    
C89   C93   A    
C102  C103  S    
C50   C65   A    
C70   N4    A    
C89   H58   S    
C71   N5    A    
C10   C11   S    
C101  H74   S    
C5    H97   S    
C38   C42   D    
C78   H51   S    
C77   N10   A    
C32   C95   A    
C59   H33   S    
C91   C95   A    
N9    Ni5   S    
C88   H57   S    
C20   C25   S    
N4    Ni3   S    
C44   C95   S    
C3    H94   S    
C2    C77   A    
C3    H95   S    
C107  O4    S    
C1    N1    A    
C33   H2    S    
C14   C28   S    
N15   Ni2   S    
C44   H22   S    
N1    N22   A    
C63   H37   S    
C38   H16   S    
C84   H53   S    
C49   C54   A    
N17   Ni4   S    
N18   N28   A    
C47   C56   D    
C26   C30   S    
C11   H9    S    
