data_mof_unit_53612.cif
_audit_creation_date              2012-12-11T15:06:39-0500
_audit_creation_method            fapswitch 2.2
_symmetry_space_group_name_H-M    P1
_symmetry_Int_Tables_number       1
_space_group_crystal_system       triclinic
_cell_length_a                    7.335396
_cell_length_b                    16.044501
_cell_length_c                    21.705406
_cell_angle_alpha                 90.000175
_cell_angle_beta                  90.000448
_cell_angle_gamma                 89.998506
_cell_volume                      2554.56932167

loop_
_atom_site_label
_atom_site_type_symbol
_atom_type_description
_atom_site_fract_x
_atom_site_fract_y
_atom_site_fract_z
_atom_type_partial_charge
O1    O     O_R   0.390810 0.844810 0.447340 -0.528374
O2    O     O_R   0.109190 0.155190 0.947340 -0.528375
O3    O     O_R   0.890810 0.655190 0.552660 -0.528368
O4    O     O_R   0.609190 0.344810 0.052660 -0.528371
O5    O     O_R   0.720550 0.655820 0.440420 -0.507766
O6    O     O_R   0.779450 0.344180 0.940420 -0.507769
O7    O     O_R   0.220550 0.844180 0.559580 -0.507771
O8    O     O_R   0.279450 0.155820 0.059580 -0.507767
C1    C     C_R   0.552544 0.626042 0.429150 0.840973
C2    C     C_R   0.947454 0.373960 0.929152 0.840948
C3    C     C_R   0.052542 0.873956 0.570851 0.840907
C4    C     C_R   0.447460 0.126043 0.070849 0.840916
O9    O     O_R   0.720530 0.844130 0.440420 -0.494267
O10   O     O_R   0.779470 0.155870 0.940420 -0.494259
O11   O     O_R   0.220530 0.655870 0.559580 -0.494234
O12   O     O_R   0.279470 0.344130 0.059580 -0.494241
O13   O     O_R   0.890830 0.844810 0.552660 -0.548289
O14   O     O_R   0.609170 0.155190 0.052660 -0.548293
O15   O     O_R   0.390830 0.655190 0.447340 -0.548293
O16   O     O_R   0.109170 0.344810 0.947340 -0.548294
C5    C     C_R   0.551120 0.867468 0.422800 0.865377
C6    C     C_R   0.948879 0.132533 0.922799 0.865381
C7    C     C_R   0.051123 0.632538 0.577204 0.865302
C8    C     C_R   0.448877 0.367460 0.077205 0.865305
O17   O     O_3   0.557310 0.749980 0.536820 -0.384044
O18   O     O_3   0.942690 0.250020 0.036820 -0.384050
O19   O     O_3   0.057310 0.750020 0.463180 -0.384084
O20   O     O_3   0.442690 0.249980 0.963180 -0.384079
V1    V     V_3+5 0.832160 0.749980 0.493170 1.652345
V2    V     V_3+5 0.667840 0.250020 0.993170 1.652341
V3    V     V_3+5 0.332160 0.750020 0.506830 1.652392
V4    V     V_3+5 0.167840 0.249980 0.006830 1.652376
C9    C     C_R   0.104088 0.589367 0.886557 0.317049
C10   C     C_R   0.395874 0.410642 0.386554 0.317058
C11   C     C_R   0.604199 0.910658 0.113454 0.317115
C12   C     C_R   0.895846 0.089348 0.613455 0.317113
H1    H     H_    0.214583 0.702023 0.802929 0.241490
H2    H     H_    0.285384 0.297986 0.302928 0.241490
H3    H     H_    0.714509 0.797973 0.197081 0.241570
H4    H     H_    0.785502 0.202028 0.697081 0.241557
C13   C     C_R   0.962860 0.452355 0.894905 -0.149840
C14   C     C_R   0.537132 0.547648 0.394902 -0.149845
C15   C     C_R   0.462889 0.047653 0.105100 -0.149851
C16   C     C_R   0.037122 0.952345 0.605101 -0.149847
C17   C     C_R   0.941249 0.492030 0.600504 0.276462
C18   C     C_R   0.558734 0.507967 0.100502 0.276476
C19   C     C_R   0.441232 0.007976 0.399506 0.276419
C20   C     C_R   0.058777 0.992028 0.899508 0.276408
C21   C     C_R   0.901000 0.426315 0.639855 0.344821
C22   C     C_R   0.598974 0.573685 0.139852 0.344812
C23   C     C_R   0.400966 0.073691 0.360157 0.344854
C24   C     C_R   0.099060 0.926314 0.860160 0.344865
C25   C     C_R   0.963268 0.426548 0.699764 0.334935
C26   C     C_R   0.536719 0.573450 0.199762 0.334942
C27   C     C_R   0.463239 0.073464 0.300248 0.334966
C28   C     C_R   0.036794 0.926539 0.800250 0.334991
C29   C     C_R   0.012553 0.503130 0.727730 -0.100603
C30   C     C_R   0.487438 0.496870 0.227728 -0.100613
C31   C     C_R   0.512574 0.996889 0.272280 -0.100502
C32   C     C_R   0.987451 0.003112 0.772281 -0.100522
C33   C     C_R   0.064549 0.571204 0.688598 -0.113018
C34   C     C_R   0.435446 0.428795 0.188597 -0.113020
C35   C     C_R   0.564551 0.928809 0.311410 -0.112973
C36   C     C_R   0.935458 0.071191 0.811411 -0.112983
C37   C     C_R   0.010879 0.512494 0.793322 0.055347
C38   C     C_R   0.489104 0.487509 0.293320 0.055352
C39   C     C_R   0.510931 0.987529 0.206686 0.055422
C40   C     C_R   0.989100 0.012473 0.706687 0.055406
C41   C     C_R   0.090081 0.583641 0.820971 -0.078294
C42   C     C_R   0.409890 0.416366 0.320970 -0.078324
C43   C     C_R   0.590156 0.916384 0.179039 -0.078443
C44   C     C_R   0.909884 0.083621 0.679039 -0.078412
C45   C     C_R   0.154716 0.647101 0.782539 -0.158059
C46   C     C_R   0.345257 0.352904 0.282538 -0.158092
C47   C     C_R   0.654726 0.852912 0.217471 -0.158268
C48   C     C_R   0.845300 0.147091 0.717471 -0.158240
C49   C     C_R   0.141199 0.642597 0.718010 0.365474
C50   C     C_R   0.358792 0.357404 0.218008 0.365502
C51   C     C_R   0.641169 0.857407 0.281999 0.365620
C52   C     C_R   0.858834 0.142591 0.781999 0.365568
C53   C     C_R   0.927903 0.453101 0.832298 -0.268646
C54   C     C_R   0.572084 0.546901 0.332295 -0.268641
C55   C     C_R   0.427938 0.046912 0.167706 -0.268655
C56   C     C_R   0.072083 0.953086 0.667708 -0.268661
C57   C     C_R   0.046645 0.520786 0.922773 0.324935
C58   C     C_R   0.453335 0.479220 0.422771 0.324931
C59   C     C_R   0.546719 0.979229 0.077235 0.324965
C60   C     C_R   0.953309 0.020773 0.577236 0.324942
C61   C     C_R   0.032934 0.563541 0.622774 -0.185960
C62   C     C_R   0.467063 0.436456 0.122773 -0.185968
C63   C     C_R   0.532924 0.936467 0.377234 -0.186015
C64   C     C_R   0.967077 0.063534 0.877235 -0.186007
H5    H     H_    0.840371 0.404619 0.815163 0.237454
H6    H     H_    0.659620 0.595381 0.315159 0.237464
H7    H     H_    0.340372 0.095386 0.184834 0.237480
H8    H     H_    0.159641 0.904607 0.684835 0.237479
Cl1   Cl    Cl    0.071504 0.518006 0.003741 -0.614567
Cl2   Cl    Cl    0.428482 0.482005 0.503739 -0.614554
Cl3   Cl    Cl    0.571562 0.982002 0.996268 -0.614545
Cl4   Cl    Cl    0.928459 0.017996 0.496268 -0.614555
O21   O     O_3   0.155828 0.664054 0.914433 -0.545626
C65   C     C_3   0.320970 0.655960 0.948078 0.206696
H9    H     H_    0.426042 0.694596 0.925190 0.145312
H10   H     H_    0.376924 0.591571 0.947803 0.142850
C66   C     C_3   0.299666 0.685896 0.015677 -0.344040
H11   H     H_    0.176764 0.661101 0.038053 0.247624
H12   H     H_    0.413876 0.662248 0.043684 0.215779
C67   C     C_3   0.293527 0.779929 0.022468 -0.547045
H13   H     H_    0.411596 0.809173 0.000100 0.293315
H14   H     H_    0.169017 0.804253 0.001366 0.268418
H15   H     H_    0.292073 0.797598 0.071751 0.200223
O22   O     O_3   0.344122 0.335956 0.414430 -0.545615
C68   C     C_3   0.178990 0.344053 0.448080 0.206677
H16   H     H_    0.073905 0.305422 0.425193 0.145313
H17   H     H_    0.123050 0.408446 0.447809 0.142863
C69   C     C_3   0.200307 0.314110 0.515676 -0.344060
H18   H     H_    0.323170 0.338935 0.538062 0.247634
H19   H     H_    0.086048 0.337718 0.543681 0.215778
C70   C     C_3   0.206585 0.220077 0.522452 -0.546998
H20   H     H_    0.088533 0.190807 0.500097 0.293325
H21   H     H_    0.331107 0.195799 0.501329 0.268437
H22   H     H_    0.208126 0.202391 0.571729 0.200150
O23   O     O_3   0.655965 0.835971 0.085581 -0.545573
C71   C     C_3   0.821110 0.844059 0.051938 0.206666
H23   H     H_    0.926187 0.805429 0.074835 0.145327
H24   H     H_    0.877039 0.908451 0.052202 0.142874
C72   C     C_3   0.799828 0.814099 0.984343 -0.344126
H25   H     H_    0.677080 0.838992 0.961926 0.247624
H26   H     H_    0.914196 0.837617 0.956352 0.215825
C73   C     C_3   0.793274 0.720070 0.977585 -0.546791
H27   H     H_    0.911270 0.690732 0.999930 0.293373
H28   H     H_    0.668700 0.695882 0.998729 0.268462
H29   H     H_    0.791622 0.702359 0.928311 0.200030
O24   O     O_3   0.844079 0.164036 0.585582 -0.545578
C74   C     C_3   0.678945 0.155944 0.551932 0.206681
H30   H     H_    0.573855 0.194572 0.574822 0.145291
H31   H     H_    0.623018 0.091551 0.552195 0.142875
C75   C     C_3   0.700249 0.185901 0.484338 -0.344102
H32   H     H_    0.823052 0.161038 0.461936 0.247633
H33   H     H_    0.585926 0.162349 0.456338 0.215783
C76   C     C_3   0.706689 0.279934 0.477580 -0.546912
H34   H     H_    0.588670 0.309242 0.499928 0.293355
H35   H     H_    0.831236 0.304155 0.498718 0.268466
H36   H     H_    0.708302 0.297641 0.428308 0.200067
Cl5   Cl    Cl    0.875986 0.482949 0.522266 -0.630367
Cl6   Cl    Cl    0.623981 0.517049 0.022263 -0.630354
Cl7   Cl    Cl    0.375966 0.017050 0.477743 -0.630372
Cl8   Cl    Cl    0.124040 0.982958 0.977746 -0.630380
O25   O     O_3   0.966159 0.350848 0.730331 -0.544846
C77   C     C_3   0.147268 0.327833 0.745083 0.117175
H37   H     H_    0.140739 0.286834 0.786263 0.162643
H38   H     H_    0.236472 0.381258 0.758087 0.117105
C78   C     C_3   0.232633 0.279533 0.691751 -0.352133
H39   H     H_    0.134242 0.232880 0.674306 0.236406
H40   H     H_    0.265949 0.323236 0.653692 0.209985
C79   C     C_3   0.405072 0.234714 0.712127 -0.714343
H41   H     H_    0.376229 0.192541 0.751560 0.240493
H42   H     H_    0.509917 0.281116 0.725685 0.294708
H43   H     H_    0.457674 0.196383 0.673612 0.220510
O26   O     O_3   0.533811 0.649152 0.230327 -0.544834
C80   C     C_3   0.352692 0.672160 0.245073 0.117236
H44   H     H_    0.359190 0.713116 0.286272 0.162628
H45   H     H_    0.263463 0.618732 0.258036 0.117131
C81   C     C_3   0.267381 0.720509 0.191757 -0.352233
H46   H     H_    0.365738 0.767195 0.174365 0.236429
H47   H     H_    0.234166 0.676860 0.153666 0.210032
C82   C     C_3   0.094896 0.765265 0.212122 -0.714940
H48   H     H_    0.123591 0.807304 0.251608 0.240680
H49   H     H_    0.990072 0.718845 0.225566 0.294783
H50   H     H_    0.042382 0.803690 0.173657 0.220533
O27   O     O_3   0.466030 0.149160 0.269676 -0.544852
C83   C     C_3   0.647113 0.172236 0.254950 0.117117
H51   H     H_    0.640531 0.213300 0.213805 0.162746
H52   H     H_    0.736358 0.118847 0.241891 0.117100
C84   C     C_3   0.732436 0.220465 0.308329 -0.352213
H53   H     H_    0.633824 0.266916 0.325922 0.236667
H54   H     H_    0.766243 0.176683 0.346285 0.210015
C85   C     C_3   0.904441 0.265597 0.287937 -0.714732
H55   H     H_    0.875018 0.307941 0.248668 0.240283
H56   H     H_    0.009402 0.219403 0.274146 0.294663
H57   H     H_    0.957173 0.303777 0.326511 0.220500
O28   O     O_3   0.034005 0.850840 0.769681 -0.544851
C86   C     C_3   0.852921 0.827764 0.754951 0.117001
H58   H     H_    0.859504 0.786674 0.713827 0.162800
H59   H     H_    0.763713 0.881143 0.741866 0.117129
C87   C     C_3   0.767543 0.779582 0.808337 -0.352373
H60   H     H_    0.866141 0.733161 0.825967 0.236718
H61   H     H_    0.733678 0.823395 0.846261 0.210066
C88   C     C_3   0.595583 0.734417 0.787943 -0.714758
H62   H     H_    0.625095 0.692010 0.748728 0.240252
H63   H     H_    0.490666 0.780583 0.774078 0.294662
H64   H     H_    0.542749 0.696309 0.826534 0.220547
Cl9   Cl    Cl    0.756374 0.344997 0.617571 -0.636170
Cl10  Cl    Cl    0.743566 0.655010 0.117564 -0.636191
Cl11  Cl    Cl    0.256294 0.154997 0.382442 -0.635986
Cl12  Cl    Cl    0.243736 0.845012 0.882451 -0.635958
Cl13  Cl    Cl    0.235329 0.727928 0.678631 -0.729423
Cl14  Cl    Cl    0.264688 0.272067 0.178631 -0.729423
Cl15  Cl    Cl    0.735152 0.772035 0.321370 -0.729506
Cl16  Cl    Cl    0.764810 0.227952 0.821368 -0.729556

loop_
_geom_bond_atom_site_label_1
_geom_bond_atom_site_label_2
_ccdc_geom_bond_type
C30   C34   A    
C74   C75   S    
O27   C83   S    
O1    C5    A    
O21   C65   S    
C54   H6    S    
C27   C31   A    
O19   V1    S    
O13   V1    S    
O3    C7    A    
C14   C54   A    
C44   C48   A    
O15   V3    S    
C80   H44   S    
C74   H30   S    
C84   H54   S    
C35   C51   A    
C12   C60   A    
O7    C3    A    
C66   H12   S    
C30   C38   A    
C1    C14   S    
C22   C26   A    
C28   O28   S    
C9    O21   S    
O9    V1    S    
C81   H46   S    
C4    C15   S    
C86   H59   S    
C56   H8    S    
O4    C8    A    
C37   C41   A    
C39   C43   A    
C52   Cl16  S    
C20   Cl8   S    
O1    V3    S    
C15   C55   A    
C67   H13   S    
C65   C66   S    
O2    V4    S    
C10   C58   A    
O3    V1    S    
C9    C57   A    
O28   C86   S    
C31   C39   A    
C11   C59   A    
C79   H42   S    
C1    O15   A    
C2    O16   A    
C77   C78   S    
C24   Cl12  S    
C42   C46   A    
C7    C61   S    
C41   C45   A    
C14   C58   A    
H3    C47   S    
C78   H40   S    
C17   C61   A    
C10   C42   A    
C59   Cl3   S    
C83   C84   S    
C9    C41   A    
C68   C69   S    
O11   C7    A    
C11   C43   A    
O12   C8    A    
C2    C13   S    
C25   O25   S    
C36   C52   A    
C65   H9    S    
O10   V2    S    
O16   V4    S    
C27   O27   S    
O22   C68   S    
C80   H45   S    
C33   C61   A    
C85   H55   S    
C82   H50   S    
O5    V1    S    
C70   H21   S    
C66   C67   S    
C19   Cl7   S    
C51   Cl15  S    
C24   C28   A    
O8    V4    S    
C10   O22   S    
O23   C71   S    
O7    V3    S    
C82   H49   S    
C86   C87   S    
C33   C49   A    
C82   H48   S    
C25   C29   A    
C84   C85   S    
C19   C23   A    
C49   Cl13  S    
H4    C48   S    
C12   O24   S    
C40   C44   A    
C76   H35   S    
C40   C56   A    
C88   H64   S    
C73   H28   S    
C86   H58   S    
C72   H26   S    
O2    C6    A    
C5    C63   S    
C77   H38   S    
C38   C54   A    
C53   H5    S    
C37   C53   A    
C84   H53   S    
C17   C21   A    
O8    C4    A    
C13   C53   A    
C26   C30   A    
O9    C5    A    
C3    C16   S    
C55   H7    S    
C78   C79   S    
O11   V3    S    
C60   Cl4   S    
C75   H33   S    
C71   C72   S    
O14   V2    S    
O6    V2    S    
C46   C50   A    
C17   Cl5   S    
C76   H36   S    
C73   H29   S    
C36   C64   A    
C87   H61   S    
C72   H25   S    
C80   C81   S    
C39   C55   A    
C83   H51   S    
C71   H24   S    
C68   H16   S    
H2    C46   S    
C70   H22   S    
C74   H31   S    
H1    C45   S    
C3    O13   A    
C45   C49   A    
C68   H17   S    
C19   C63   A    
O17   V3    S    
C34   C50   A    
C81   C82   S    
C4    O14   A    
C48   C52   A    
O5    C1    A    
C16   C56   A    
C75   C76   S    
C8    C62   S    
O6    C2    A    
C85   H56   S    
C70   H20   S    
C69   C70   S    
C29   C33   A    
O24   C74   S    
C18   C62   A    
C79   H43   S    
O12   V4    S    
C13   C57   A    
C66   H11   S    
C18   C22   A    
C31   C35   A    
C67   H15   S    
C65   H10   S    
C32   C36   A    
C15   C59   A    
O26   C80   S    
O10   C6    A    
C87   C88   S    
C11   O23   S    
C73   H27   S    
C87   H60   S    
C72   C73   S    
O20   V2    S    
C23   Cl11  S    
O25   C77   S    
C43   C47   A    
C22   Cl10  S    
C18   Cl6   S    
C67   H14   S    
C21   Cl9   S    
C21   C25   A    
C34   C62   A    
C81   H47   S    
C83   H52   S    
C69   H19   S    
C69   H18   S    
C23   C27   A    
C88   H62   S    
C58   Cl2   S    
C16   C60   A    
C85   H57   S    
C57   Cl1   S    
C75   H32   S    
C26   O26   S    
C28   C32   A    
C20   C24   A    
C79   H41   S    
C38   C42   A    
C32   C40   A    
C20   C64   A    
C35   C63   A    
C6    C64   S    
C77   H37   S    
C50   Cl14  S    
C88   H63   S    
C78   H39   S    
C76   H34   S    
C47   C51   A    
O18   V4    S    
O4    V2    S    
C12   C44   A    
C71   H23   S    
C29   C37   A    
