data_mof_unit_54124.cif
_audit_creation_date              2012-12-10T17:22:09-0500
_audit_creation_method            fapswitch 2.2
_symmetry_space_group_name_H-M    P1
_symmetry_Int_Tables_number       1
_space_group_crystal_system       triclinic
_cell_length_a                    15.897103
_cell_length_b                    10.8627
_cell_length_c                    9.579971
_cell_angle_alpha                 90.390062
_cell_angle_beta                  89.926461
_cell_angle_gamma                 92.567204
_cell_volume                      1652.62229158

loop_
_atom_site_label
_atom_site_type_symbol
_atom_type_description
_atom_site_fract_x
_atom_site_fract_y
_atom_site_fract_z
_atom_type_partial_charge
C1    C     C_R   0.506617 0.263060 0.500339 0.799023
C2    C     C_3   0.949481 0.447068 0.641668 -0.080114
C3    C     C_3   0.916919 0.502147 0.501796 0.138039
C4    C     C_3   0.954803 0.636418 0.479740 0.280705
C5    C     C_3   0.053688 0.636910 0.485283 -0.112180
C6    C     C_1   0.824666 0.501305 0.500243 -0.033311
C7    C     C_1   0.175347 0.501206 0.501334 0.016003
C8    C     C_1   0.250780 0.500391 0.500582 -0.170534
C9    C     C_R   0.553861 0.122349 0.755150 -0.162123
C10   C     C_R   0.543541 0.064473 0.883710 -0.159785
C11   C     C_R   0.501763 0.949766 0.890674 -0.139595
C12   C     C_R   0.340322 0.499661 0.500154 0.829593
C13   C     C_R   0.478258 0.887644 0.768043 -0.158258
C14   C     C_R   0.497043 0.939550 0.635327 0.092445
C15   C     C_R   0.522407 0.065344 0.630969 0.094886
C16   C     C_R   0.514098 0.129236 0.503139 -0.120413
C17   C     C_R   0.501362 0.062963 0.378654 -0.213129
C18   C     C_R   0.494181 0.935766 0.380107 -0.215402
C19   C     C_R   0.491903 0.872266 0.506944 -0.111936
C20   C     C_R   0.610988 0.665525 0.145122 -0.140292
C21   C     C_R   0.664207 0.747643 0.073280 -0.216581
C22   C     C_R   0.664623 0.747066 0.929505 -0.200762
C23   C     C_R   0.495335 0.737590 0.501546 0.778682
C24   C     C_R   0.611238 0.665058 0.856719 -0.141037
C25   C     C_R   0.554558 0.581334 0.925607 0.193023
C26   C     C_R   0.554506 0.581392 0.075307 0.203875
C27   C     C_R   0.448435 0.422169 0.073455 -0.064547
C28   C     C_R   0.448442 0.422218 0.925441 -0.063181
C29   C     C_R   0.659666 0.500403 0.499865 0.798967
C30   C     C_3   0.047225 0.452249 0.643469 -0.385886
C31   C     C_3   0.045319 0.426999 0.374112 0.280767
C32   C     C_3   0.947563 0.418080 0.381441 -0.454697
C33   C     C_1   0.749203 0.500853 0.499725 -0.185020
C34   C     C_3   0.083216 0.502174 0.502306 0.100040
Cu1   Cu    Cu3+1 0.499990 0.499990 0.640660 0.921734
Cu2   Cu    Cu3+1 0.500010 0.500010 0.359340 0.936059
H1    H     H_    0.927851 0.348147 0.645587 0.159469
H2    H     H_    0.071531 0.511023 0.731150 0.211925
H3    H     H_    0.496917 0.109357 0.279345 0.162260
H4    H     H_    0.588171 0.210477 0.754469 0.162900
H5    H     H_    0.565784 0.110274 0.978278 0.136436
H6    H     H_    0.489187 0.907475 0.991029 0.138361
H7    H     H_    0.442819 0.801433 0.780402 0.171227
H8    H     H_    0.489000 0.887216 0.281106 0.164783
H9    H     H_    0.406211 0.358381 0.128403 0.141917
H10   H     H_    0.070141 0.360458 0.668937 0.132965
H11   H     H_    0.617344 0.672292 0.255093 0.200447
H12   H     H_    0.705638 0.811960 0.129999 0.149848
H13   H     H_    0.706554 0.810797 0.873619 0.148265
H14   H     H_    0.616982 0.672285 0.746772 0.200124
H15   H     H_    0.406249 0.358424 0.869637 0.146165
H16   H     H_    0.059654 0.485535 0.281321 0.135825
H17   H     H_    0.923195 0.321690 0.396502 0.163005
H18   H     H_    0.921104 0.447157 0.279881 0.207899
H19   H     H_    0.079159 0.672567 0.384013 0.170448
H20   H     H_    0.930129 0.695193 0.565135 0.054625
N1    N     N_R   0.500800 0.501210 0.147910 -0.199134
N2    N     N_R   0.500820 0.501290 0.852040 -0.203718
O1    O     O_R   0.499990 0.319640 0.618810 -0.588555
O2    O     O_R   0.500000 0.319660 0.381240 -0.581355
O3    O     O_R   0.379430 0.499990 0.618840 -0.573816
O4    O     O_R   0.379440 0.500020 0.381260 -0.567667
O5    O     O_R   0.500000 0.680340 0.618760 -0.613410
O6    O     O_R   0.500010 0.680360 0.381190 -0.600823
O7    O     O_R   0.620560 0.499980 0.618740 -0.601080
O8    O     O_R   0.620570 0.500010 0.381160 -0.585384
N3    N     N_3   0.916572 0.506027 0.767750 -0.584869
H21   H     H_    0.930504 0.600738 0.767632 0.213823
H22   H     H_    0.851150 0.491886 0.771868 0.232376
O9    O     O_3   0.929210 0.678465 0.346820 -0.581158
C35   C     C_3   0.917707 0.806632 0.349087 0.057891
H23   H     H_    0.971659 0.858333 0.399494 0.130460
H24   H     H_    0.858613 0.826024 0.405915 0.141701
C36   C     C_3   0.910623 0.852079 0.199997 -0.793479
H25   H     H_    0.858968 0.799758 0.144837 0.252558
H26   H     H_    0.897226 0.951540 0.200400 0.194967
H27   H     H_    0.970645 0.839098 0.143433 0.245902
O10   O     O_3   0.082754 0.314354 0.337641 -0.568025
C37   C     C_3   0.080634 0.224730 0.443678 0.108586
H28   H     H_    0.021212 0.221579 0.504537 0.121550
H29   H     H_    0.135385 0.241537 0.514199 0.149346
C38   C     C_3   0.089001 0.098438 0.377002 -0.808818
H30   H     H_    0.148820 0.096024 0.317230 0.257392
H31   H     H_    0.089093 0.026994 0.459284 0.184363
H32   H     H_    0.035332 0.077707 0.305266 0.246717
N4    N     N_3   0.088598 0.719906 0.594685 -0.598608
H33   H     H_    0.053797 0.710487 0.686787 0.213841
H34   H     H_    0.082832 0.810801 0.562213 0.204471

loop_
_geom_bond_atom_site_label_1
_geom_bond_atom_site_label_2
_ccdc_geom_bond_type
Cu1   Cu2   S    
C31   H16   S    
C3    C6    S    
C4    O9    S    
C7    C8    T    
C36   H26   S    
Cu1   N2    S    
C1    O1    A    
C28   H15   S    
Cu2   O8    S    
Cu1   O7    S    
C15   C16   A    
C29   C33   S    
C30   H2    S    
C11   H6    S    
Cu1   O1    S    
C18   C19   A    
C17   H3    S    
C16   C17   A    
C36   H27   S    
O9    C35   S    
C13   C14   A    
C9    C10   A    
C21   H12   S    
C27   H9    S    
C23   O5    A    
C21   C22   A    
C4    H20   S    
C10   H5    S    
Cu2   O4    S    
C32   H18   S    
C5    H19   S    
C24   H14   S    
C36   H25   S    
C30   C34   S    
N3    H21   S    
C24   C25   A    
Cu2   N1    S    
C27   N1    A    
C1    O2    A    
C37   H29   S    
O10   C37   S    
C25   C26   A    
C9    H4    S    
C37   H28   S    
N3    H22   S    
C19   C23   S    
C18   H8    S    
C35   C36   S    
C12   O4    A    
C31   C32   S    
C8    C12   S    
C5    C34   S    
C17   C18   A    
C31   C34   S    
Cu1   O3    S    
C1    C16   S    
C22   H13   S    
C29   O7    A    
C5    N4    S    
C23   O6    A    
C2    N3    S    
C38   H31   S    
C7    C34   S    
C22   C24   A    
C25   N2    A    
C3    C4    S    
C32   H17   S    
C13   H7    S    
C31   O10   S    
C35   H24   S    
N4    H33   S    
C14   C19   A    
C30   H10   S    
C4    C5    S    
Cu2   O2    S    
C37   C38   S    
C28   N2    A    
C38   H32   S    
C6    C33   T    
C2    C30   S    
C2    C3    S    
C9    C15   A    
C35   H23   S    
C12   O3    A    
C11   C13   A    
C2    H1    S    
C20   C26   A    
N4    H34   S    
C3    C32   S    
C26   N1    A    
C20   H11   S    
C10   C11   A    
C29   O8    A    
C20   C21   A    
C38   H30   S    
C27   C28   A    
C14   C15   A    
Cu1   O5    S    
Cu2   O6    S    
