data_mof_unit_36372.cif
_audit_creation_date              2012-12-10T17:05:19-0500
_audit_creation_method            fapswitch 2.2
_symmetry_space_group_name_H-M    P1
_symmetry_Int_Tables_number       1
_space_group_crystal_system       triclinic
_cell_length_a                    10.081912
_cell_length_b                    10.679433
_cell_length_c                    15.527358
_cell_angle_alpha                 90.150424
_cell_angle_beta                  67.443929
_cell_angle_gamma                 89.164817
_cell_volume                      1543.7052676

loop_
_atom_site_label
_atom_site_type_symbol
_atom_type_description
_atom_site_fract_x
_atom_site_fract_y
_atom_site_fract_z
_atom_type_partial_charge
C1    C     C_R   0.503870 0.736936 0.492116 0.834462
C2    C     C_R   0.407055 0.455526 0.915591 0.094039
C3    C     C_R   0.263333 0.490931 0.971285 0.177852
C4    C     C_R   0.507264 0.430400 0.957526 0.058097
C5    C     C_R   0.467587 0.459722 0.053129 0.074891
C6    C     C_R   0.321661 0.489055 0.107802 -0.210902
C7    C     C_R   0.220996 0.502301 0.067430 -0.232014
C8    C     C_R   0.645789 0.377962 0.907185 -0.185206
C9    C     C_R   0.745790 0.363700 0.948115 -0.207751
C10   C     C_R   0.712540 0.403907 0.039429 0.166089
C11   C     C_R   0.574595 0.455823 0.091404 0.089393
C12   C     C_R   0.409755 0.498218 0.675893 0.863941
C13   C     C_R   0.814627 0.391407 0.080244 -0.202908
C14   C     C_R   0.779937 0.428713 0.172639 -0.197805
C15   C     C_R   0.548180 0.503600 0.180166 -0.220269
C16   C     C_2   0.623899 0.066099 0.471392 -0.095431
C17   C     C_2   0.500233 0.129935 0.507269 -0.232748
C18   C     C_2   0.621037 0.931950 0.477392 -0.314624
C19   C     C_2   0.520298 0.864862 0.462233 0.283915
C20   C     C_2   0.115476 0.485821 0.426348 -0.022572
C21   C     C_2   0.968658 0.510383 0.425535 -0.076576
C22   C     C_R   0.499895 0.262544 0.501907 0.901682
C23   C     C_R   0.590212 0.499285 0.324099 0.893208
C24   C     C_R   0.353336 0.489457 0.777403 -0.066418
C25   C     C_R   0.644955 0.482973 0.223115 -0.037697
C26   C     C_R   0.164855 0.518188 0.929662 -0.220036
C27   C     C_R   0.209576 0.516957 0.832866 -0.175372
C28   C     C_R   0.449224 0.456055 0.818898 -0.243493
H1    H     H_    0.110709 0.526198 0.111325 0.147293
H2    H     H_    0.919099 0.348901 0.041801 0.147252
H3    H     H_    0.727140 0.111982 0.443410 0.181146
H4    H     H_    0.397844 0.083973 0.539874 0.184967
H5    H     H_    0.693137 0.890003 0.506691 0.193863
H6    H     H_    0.199413 0.456835 0.360953 0.101059
H7    H     H_    0.960261 0.535824 0.360217 0.133447
H8    H     H_    0.862769 0.445975 0.551379 0.231256
H9    H     H_    0.450375 0.555225 0.218572 0.167669
H10   H     H_    0.855919 0.411267 0.205296 0.152314
H11   H     H_    0.850183 0.322282 0.907696 0.160414
H12   H     H_    0.054881 0.545101 0.971763 0.154397
H13   H     H_    0.133574 0.541816 0.801635 0.194378
H14   H     H_    0.559462 0.437623 0.774083 0.175918
H15   H     H_    0.281162 0.499169 0.182641 0.138063
H16   H     H_    0.678482 0.342647 0.836827 0.162213
N1    N     N_2   0.148330 0.498670 0.499030 0.069569
N2    N     N_2   0.852680 0.498640 0.499000 -0.139051
O1    O     O_R   0.386950 0.680940 0.500010 -0.489714
O2    O     O_R   0.613110 0.680900 0.499990 -0.621052
O3    O     O_R   0.322330 0.500030 0.632270 -0.557487
O4    O     O_R   0.548480 0.499990 0.632240 -0.607693
O5    O     O_R   0.386890 0.319100 0.500010 -0.601453
O6    O     O_R   0.613050 0.319060 0.499990 -0.634541
O7    O     O_R   0.451520 0.500010 0.367760 -0.618361
O8    O     O_R   0.677670 0.499970 0.367730 -0.633946
Zn1   Zn    Zn3+2 0.349000 0.500030 0.500020 1.105467
Zn2   Zn    Zn3+2 0.651000 0.499970 0.499980 0.985338
S1    S     S_3+6 0.424689 0.916052 0.392441 0.040268
O9    O     O_2   0.274695 0.955715 0.454805 -0.284622
O10   O     O_2   0.498767 0.023088 0.330889 -0.287904
O11   O     O_3   0.415273 0.795885 0.324842 -0.565774
H17   H     H_    0.350794 0.826109 0.294379 0.381379
S2    S     S_3+6 0.041115 0.596254 0.591491 0.120080
O12   O     O_2   0.958705 0.691962 0.559983 -0.278350
O13   O     O_2   0.938700 0.518115 0.667947 -0.365255
O14   O     O_3   0.140337 0.676116 0.637711 -0.497177
H18   H     H_    0.069979 0.721981 0.691925 0.358883

loop_
_geom_bond_atom_site_label_1
_geom_bond_atom_site_label_2
_ccdc_geom_bond_type
C2    C4    A    
C1    O2    A    
H8    N2    S    
C6    C7    A    
C21   H7    S    
C14   H10   S    
C23   O8    A    
C24   C28   A    
C9    C10   A    
C12   C24   S    
O5    Zn1   S    
C17   C22   S    
C24   C27   A    
C9    H11   S    
C4    C8    A    
C20   H6    S    
O7    Zn1   S    
C2    C3    A    
S1    O9    D    
O1    Zn1   S    
C13   C14   A    
C19   S1    S    
C16   H3    S    
C26   H12   S    
C26   C27   A    
S2    O12   D    
O11   H17   S    
C7    H1    S    
C23   O7    A    
C22   O6    A    
C5    C11   A    
C3    C7    A    
C6    H15   S    
C23   C25   S    
C14   C25   A    
C1    O1    A    
C5    C6    A    
C18   H5    S    
O8    Zn2   S    
C22   O5    A    
C12   O3    A    
S1    O10   D    
C10   C11   A    
S2    O13   D    
C21   N2    D    
C8    H16   S    
C13   H2    S    
C4    C5    A    
C18   C19   D    
C20   C21   S    
N1    Zn1   S    
C15   C25   A    
C16   C18   S    
O14   H18   S    
C20   N1    D    
N2    Zn2   S    
O2    Zn2   S    
C17   H4    S    
C27   H13   S    
C15   H9    S    
S1    O11   S    
C2    C28   A    
C28   H14   S    
S2    O14   S    
O3    Zn1   S    
C1    C19   S    
C11   C15   A    
N1    S2    S    
C12   O4    A    
C3    C26   A    
O4    Zn2   S    
O6    Zn2   S    
C16   C17   D    
C8    C9    A    
C10   C13   A    
