data_mof_unit_42081.cif
_audit_creation_date              2012-12-10T20:27:51-0500
_audit_creation_method            fapswitch 2.2
_symmetry_space_group_name_H-M    P1
_symmetry_Int_Tables_number       1
_space_group_crystal_system       triclinic
_cell_length_a                    12.860731
_cell_length_b                    10.682372
_cell_length_c                    9.859528
_cell_angle_alpha                 89.546691
_cell_angle_beta                  99.187995
_cell_angle_gamma                 90.786138
_cell_volume                      1337.00532558

loop_
_atom_site_label
_atom_site_type_symbol
_atom_type_description
_atom_site_fract_x
_atom_site_fract_y
_atom_site_fract_z
_atom_type_partial_charge
C1    C     C_R   0.504305 0.259864 0.501172 0.874296
C2    C     C_R   0.029655 0.525917 0.560651 0.192133
C3    C     C_R   0.969081 0.461818 0.450515 0.127188
C4    C     C_R   0.862599 0.445306 0.448132 -0.246973
C5    C     C_R   0.874364 0.558050 0.663272 -0.219596
C6    C     C_R   0.982509 0.571728 0.668584 -0.211018
C7    C     C_R   0.536991 0.063348 0.628627 -0.017473
C8    C     C_R   0.524242 0.128951 0.504583 -0.130125
C9    C     C_R   0.534496 0.066251 0.382779 -0.198331
C10   C     C_R   0.534746 0.936795 0.382231 -0.222451
C11   C     C_R   0.524173 0.871523 0.503316 -0.069944
C12   C     C_R   0.297086 0.500421 0.470925 0.923542
C13   C     C_R   0.535604 0.935131 0.627590 0.029306
C14   C     C_3   0.473377 0.923697 0.742943 -0.510867
C15   C     C_3   0.473371 0.065546 0.744598 0.334025
C16   C     C_R   0.467501 0.396293 0.065509 0.179064
C17   C     C_R   0.543875 0.596421 0.080363 -0.125833
C18   C     C_R   0.544787 0.595804 0.936544 -0.157278
C19   C     C_R   0.464206 0.397940 0.922178 0.301628
C20   C     C_3   0.354617 0.345803 0.898993 -0.506043
C21   C     C_3   0.361692 0.338042 0.053555 -0.495204
C22   C     C_R   0.504378 0.740149 0.500351 0.878104
C23   C     C_R   0.702113 0.499142 0.529233 0.866412
C24   C     C_R   0.814857 0.497801 0.550627 -0.041026
C25   C     C_R   0.182733 0.498287 0.451780 -0.152940
C26   C     C_R   0.014195 0.419422 0.340717 -0.346799
C27   C     C_R   0.120464 0.444678 0.334898 0.498753
C28   C     C_R   0.136259 0.542169 0.561277 -0.375605
H1    H     H_    0.815730 0.396904 0.362455 0.154512
H2    H     H_    0.519537 0.881108 0.836307 0.203071
H3    H     H_    0.393391 0.103518 0.710852 0.093318
H4    H     H_    0.580206 0.673432 0.888976 0.146032
H5    H     H_    0.295780 0.414687 0.850416 0.203265
H6    H     H_    0.347982 0.252723 0.850104 0.224559
H7    H     H_    0.308601 0.401476 0.095187 0.261290
H8    H     H_    0.364423 0.240761 0.094767 0.216412
H9    H     H_    0.836971 0.598373 0.743413 0.151556
H10   H     H_    0.965851 0.368083 0.259189 0.146518
H11   H     H_    0.028556 0.620037 0.754620 0.134171
H12   H     H_    0.183537 0.587871 0.648437 0.174167
H13   H     H_    0.533617 0.115765 0.286302 0.168995
H14   H     H_    0.393744 0.881684 0.710650 0.174198
N1    N     N_R   0.499290 0.499140 0.142710 -0.110784
N2    N     N_R   0.499290 0.499180 0.857070 -0.117925
O1    O     O_R   0.500010 0.316790 0.614690 -0.619039
O2    O     O_R   0.500000 0.316760 0.385350 -0.618232
O3    O     O_R   0.346360 0.499990 0.595720 -0.629270
O4    O     O_R   0.346350 0.499960 0.366370 -0.574074
O5    O     O_R   0.500000 0.683240 0.614650 -0.620384
O6    O     O_R   0.499990 0.683210 0.385310 -0.631877
O7    O     O_R   0.653650 0.500040 0.633630 -0.627659
O8    O     O_R   0.653640 0.500010 0.404280 -0.620509
Zn1   Zn    Zn3+2 0.500010 0.500020 0.653130 0.939780
Zn2   Zn    Zn3+2 0.499990 0.499980 0.346870 0.953939
O9    O     O_3   0.521049 0.114902 0.874288 -0.641638
C29   C     C_3   0.632176 0.126163 0.891596 0.120031
H15   H     H_    0.654646 0.205131 0.827405 0.162604
H16   H     H_    0.668659 0.038075 0.863544 0.134726
C30   C     C_3   0.674224 0.152869 0.042637 -0.338896
H17   H     H_    0.634815 0.236129 0.076499 0.224019
H18   H     H_    0.656443 0.071359 0.106274 0.217227
C31   C     C_3   0.792820 0.177320 0.065971 -0.997242
H19   H     H_    0.834722 0.095791 0.032261 0.268365
H20   H     H_    0.820975 0.193152 0.177012 0.263456
H21   H     H_    0.811461 0.262065 0.008038 0.271440
H22   H     H_    0.577533 0.675327 0.140905 0.145951
O10   O     O_3   0.167424 0.406033 0.225068 -0.653296
C32   C     C_3   0.102980 0.423910 0.095071 0.061536
H23   H     H_    0.149181 0.477957 0.028108 0.151320
H24   H     H_    0.031673 0.481614 0.096772 0.123681
C33   C     C_3   0.073187 0.296310 0.029131 -0.352819
H25   H     H_    0.145553 0.240979 0.027953 0.240794
H26   H     H_    0.022148 0.243449 0.090784 0.222024
C34   C     C_3   0.015816 0.310039 0.882156 -0.946838
H27   H     H_    0.944514 0.367995 0.879574 0.268189
H28   H     H_    0.991256 0.216238 0.839984 0.265217
H29   H     H_    0.068974 0.354143 0.816713 0.274480
H30   H     H_    0.534350 0.889064 0.285603 0.162691

loop_
_geom_bond_atom_site_label_1
_geom_bond_atom_site_label_2
_ccdc_geom_bond_type
O9    C29   S    
C16   C21   S    
C5    H9    S    
C1    C8    S    
C19   C20   S    
C12   O4    A    
C10   H30   S    
C7    C8    A    
C21   H8    S    
C25   C28   A    
O4    Zn2   S    
C26   C27   A    
O6    Zn2   S    
C34   H28   S    
C16   C19   A    
C5    C6    A    
C4    C24   A    
C1    O2    A    
C28   H12   S    
C29   H15   S    
C31   H20   S    
C32   H23   S    
N2    Zn1   S    
C8    C9    A    
C34   H29   S    
C23   C24   S    
C9    C10   A    
C4    H1    S    
O3    Zn1   S    
C20   H6    S    
C7    C15   S    
O1    Zn1   S    
C30   H17   S    
C13   C14   S    
C2    C6    A    
C14   H2    S    
C12   O3    A    
O8    Zn2   S    
C30   H18   S    
C34   H27   S    
O10   C32   S    
C33   H26   S    
C26   H10   S    
O7    Zn1   S    
C15   O9    S    
C17   N1    A    
C31   H19   S    
C18   N2    A    
N1    Zn2   S    
C23   O7    A    
O2    Zn2   S    
C17   C18   A    
C17   H22   S    
C14   H14   S    
C16   N1    A    
C22   O5    A    
C20   H5    S    
C18   H4    S    
C3    C4    A    
C19   N2    A    
C30   C31   S    
C31   H21   S    
C14   C15   S    
C3    C26   A    
C33   C34   S    
C15   H3    S    
C21   H7    S    
C25   C27   A    
C11   C22   S    
C9    H13   S    
C29   C30   S    
C22   O6    A    
C12   C25   S    
C2    C3    A    
C33   H25   S    
C11   C13   A    
C1    O1    A    
C23   O8    A    
C5    C24   A    
C32   C33   S    
O5    Zn1   S    
C29   H16   S    
C27   O10   S    
C10   C11   A    
C7    C13   A    
C20   C21   S    
C32   H24   S    
C6    H11   S    
C2    C28   A    
