data_mof_unit_22585.cif
_audit_creation_date              2012-12-11T17:02:12-0500
_audit_creation_method            fapswitch 2.2
_symmetry_space_group_name_H-M    P1
_symmetry_Int_Tables_number       1
_space_group_crystal_system       triclinic
_cell_length_a                    21.659331
_cell_length_b                    7.042133
_cell_length_c                    14.935704
_cell_angle_alpha                 89.912096
_cell_angle_beta                  106.836987
_cell_angle_gamma                 89.998426
_cell_volume                      2180.45212859

loop_
_atom_site_label
_atom_site_type_symbol
_atom_type_description
_atom_site_fract_x
_atom_site_fract_y
_atom_site_fract_z
_atom_type_partial_charge
O1    O     O_R   0.585850 0.505770 0.002130 -0.549512
O2    O     O_R   0.414150 0.005770 0.997870 -0.549566
O3    O     O_R   0.467530 0.173560 0.861970 -0.534648
O4    O     O_R   0.532470 0.673560 0.138030 -0.534159
C1    C     C_R   0.455021 0.344539 0.825245 0.691817
C2    C     C_R   0.544815 0.844279 0.174775 0.693089
O5    O     O_R   0.588690 0.175900 0.993250 -0.519058
O6    O     O_R   0.411310 0.675900 0.006750 -0.519112
O7    O     O_R   0.536170 0.007950 0.130090 -0.539371
O8    O     O_R   0.463830 0.507950 0.869910 -0.539740
C3    C     C_R   0.614799 0.344691 0.996643 0.758224
C4    C     C_R   0.385136 0.844642 0.003055 0.757235
O9    O     O_3   0.482630 0.339970 0.044740 -0.370588
O10   O     O_3   0.517370 0.839970 0.955260 -0.371041
V1    V     V_3+5 0.503220 0.064200 0.991700 1.496265
V2    V     V_3+5 0.496780 0.564200 0.008300 1.496853
C5    C     C_R   0.274168 0.983247 0.946788 -0.018227
C6    C     C_R   0.725613 0.483712 0.051987 -0.014430
C7    C     C_R   0.316592 0.851249 0.002340 -0.166149
C8    C     C_R   0.683245 0.351522 0.996846 -0.168553
C9    C     C_R   0.291080 0.717442 0.052740 0.324733
C10   C     C_R   0.708624 0.218423 0.946091 0.327425
C11   C     C_R   0.225333 0.729973 0.052545 0.296257
C12   C     C_R   0.774409 0.230587 0.946305 0.302517
C13   C     C_R   0.184180 0.874410 0.000356 -0.248462
C14   C     C_R   0.815666 0.374247 0.998813 -0.248312
C15   C     C_R   0.209621 0.993750 0.944688 0.039264
C16   C     C_R   0.790170 0.493868 0.054071 0.044590
C17   C     C_3   0.210283 0.205922 0.938460 0.324653
C18   C     C_3   0.789482 0.705993 0.058978 0.335442
C19   C     C_3   0.280816 0.192920 0.940426 -0.409328
C20   C     C_3   0.718905 0.693678 0.056751 -0.409068
H1    H     H_    0.202794 0.276440 0.000763 0.029851
H2    H     H_    0.797193 0.775262 0.996399 0.028427
H3    H     H_    0.314367 0.253632 0.004846 0.166411
H4    H     H_    0.685471 0.753038 0.991752 0.164584
H5    H     H_    0.291034 0.235857 0.874473 0.200505
H6    H     H_    0.708450 0.738574 0.122206 0.202288
C21   C     C_R   0.928528 0.891608 0.721504 -0.171357
C22   C     C_R   0.072082 0.390079 0.278382 -0.170661
C23   C     C_R   0.571644 0.852004 0.276790 -0.167781
C24   C     C_R   0.428446 0.353407 0.723191 -0.167518
C25   C     C_R   0.934993 0.033096 0.575266 0.406525
C26   C     C_R   0.062703 0.513998 0.426140 0.413583
C27   C     C_R   0.961263 0.000037 0.671349 -0.195664
C28   C     C_R   0.036583 0.482100 0.329910 -0.212106
C29   C     C_R   0.867142 0.817305 0.675000 0.398552
C30   C     C_R   0.134995 0.326045 0.324112 0.405102
C31   C     C_R   0.834052 0.890100 0.584700 -0.071375
C32   C     C_R   0.167308 0.402200 0.414014 -0.080990
C33   C     C_R   0.871189 0.972312 0.530290 -0.095489
C34   C     C_R   0.129526 0.481973 0.468388 -0.088501
C35   C     C_R   0.765352 0.887110 0.547297 0.084552
C36   C     C_R   0.235958 0.400904 0.451734 0.080727
C37   C     C_R   0.736664 0.907862 0.449244 -0.069149
C38   C     C_R   0.264265 0.417722 0.549881 -0.070544
C39   C     C_R   0.776688 0.962476 0.394078 -0.102479
C40   C     C_R   0.224562 0.477830 0.604353 -0.112713
C41   C     C_R   0.842298 0.997636 0.433166 0.464423
C42   C     C_R   0.159911 0.524355 0.563763 0.462486
C43   C     C_R   0.724610 0.887147 0.606180 0.452776
C44   C     C_R   0.276977 0.405006 0.393369 0.458695
C45   C     C_R   0.657884 0.865492 0.567810 -0.190216
C46   C     C_R   0.343649 0.381705 0.432016 -0.191735
C47   C     C_R   0.629479 0.856519 0.471049 -0.017861
C48   C     C_R   0.371590 0.366948 0.528759 -0.017686
C49   C     C_R   0.668565 0.881503 0.410393 0.044128
C50   C     C_R   0.332146 0.388548 0.589095 0.044423
C51   C     C_R   0.562046 0.829381 0.435080 0.396915
C52   C     C_R   0.438919 0.338366 0.565142 0.396555
C53   C     C_R   0.532683 0.827684 0.337301 0.273098
C54   C     C_R   0.467814 0.332403 0.663012 0.272958
C55   C     C_R   0.638215 0.877072 0.313145 -0.225764
C56   C     C_R   0.361892 0.378994 0.686372 -0.229312
H7    H     H_    0.665329 0.886287 0.263077 0.129677
H8    H     H_    0.334141 0.384931 0.735785 0.131526
H9    H     H_    0.627969 0.860311 0.614669 0.183443
H10   H     H_    0.373844 0.379537 0.385509 0.184288
H11   H     H_    0.008111 0.058271 0.707518 0.194472
H12   H     H_    0.987339 0.524376 0.295135 0.187830
H13   H     H_    0.758015 0.988346 0.320041 0.187516
H14   H     H_    0.243970 0.510088 0.677691 0.184012
O11   O     O_R   0.036080 0.231270 0.130120 -0.527320
O12   O     O_R   0.963920 0.731270 0.869880 -0.523584
O13   O     O_R   0.911300 0.558970 0.006750 -0.537608
O14   O     O_R   0.088700 0.058970 0.993250 -0.541569
C57   C     C_R   0.884376 0.389677 0.999815 0.800286
C58   C     C_R   0.115559 0.889707 0.999796 0.795118
O15   O     O_R   0.032450 0.561140 0.138040 -0.513303
O16   O     O_R   0.967550 0.061140 0.861960 -0.513572
O17   O     O_R   0.085870 0.728910 0.002130 -0.556276
O18   O     O_R   0.914130 0.228910 0.997870 -0.558294
C59   C     C_R   0.045975 0.392535 0.175515 0.718568
C60   C     C_R   0.954316 0.892786 0.824425 0.717439
O19   O     O_3   0.017320 0.394650 0.955270 -0.358020
O20   O     O_3   0.982680 0.894650 0.044730 -0.359685
V3    V     V_3+5 0.996780 0.670490 0.008300 1.649771
V4    V     V_3+5 0.003220 0.170490 0.991700 1.645410
O21   O     O_3   0.332234 0.582992 0.105997 -0.636759
H15   H     H_    0.306798 0.483963 0.126279 0.311457
O22   O     O_3   0.667263 0.085170 0.892492 -0.636738
H16   H     H_    0.692430 0.987915 0.870582 0.310204
O23   O     O_3   0.968588 0.140158 0.527247 -0.610881
H17   H     H_    0.011995 0.171036 0.569303 0.338831
O24   O     O_3   0.023825 0.579272 0.478405 -0.612580
H18   H     H_    0.978808 0.592046 0.437775 0.325509
S1    S     S_3+6 0.841488 0.600271 0.715642 0.069968
O25   O     O_2   0.789529 0.508366 0.638687 -0.299700
O26   O     O_2   0.897598 0.465453 0.744470 -0.300603
O27   O     O_3   0.812904 0.635965 0.807696 -0.478785
H19   H     H_    0.838750 0.741333 0.843380 0.308222
S2    S     S_3+6 0.163561 0.113526 0.283607 0.059323
O28   O     O_2   0.215961 0.023964 0.360986 -0.303666
O29   O     O_2   0.109165 0.973399 0.253210 -0.310839
O30   O     O_3   0.192772 0.156790 0.192796 -0.476963
H20   H     H_    0.160268 0.238552 0.149854 0.309370
O31   O     O_3   0.750056 0.928035 0.700001 -0.600948
H21   H     H_    0.715360 0.923198 0.730937 0.319341
O32   O     O_3   0.251792 0.451145 0.300066 -0.592399
H22   H     H_    0.286921 0.452746 0.269916 0.325568
O33   O     O_3   0.526256 0.805115 0.497620 -0.629978
H23   H     H_    0.480198 0.785172 0.463745 0.353163
O34   O     O_3   0.475096 0.317474 0.502925 -0.629867
H24   H     H_    0.521050 0.296220 0.537046 0.353464
O35   O     O_3   0.204710 0.615442 0.112710 -0.609444
H25   H     H_    0.171823 0.529911 0.073183 0.276894
O36   O     O_3   0.794886 0.116873 0.885783 -0.611687
H26   H     H_    0.828270 0.031950 0.924927 0.276380
S3    S     S_3+6 0.159736 0.294928 0.829569 0.007628
O37   O     O_2   0.169512 0.181888 0.749448 -0.309572
O38   O     O_2   0.090191 0.282033 0.827796 -0.334725
O39   O     O_3   0.179005 0.523070 0.818046 -0.484519
H27   H     H_    0.153338 0.596975 0.850925 0.339109
S4    S     S_3+6 0.839814 0.795762 0.167555 -0.012415
O40   O     O_2   0.828159 0.687596 0.247988 -0.316277
O41   O     O_2   0.909575 0.776332 0.171309 -0.342064
O42   O     O_3   0.821967 0.026156 0.176118 -0.489790
H28   H     H_    0.851757 0.096844 0.148936 0.342396
O43   O     O_3   0.876851 0.051550 0.373173 -0.558223
H29   H     H_    0.916634 0.973406 0.388606 0.353102
O44   O     O_3   0.128296 0.612494 0.619900 -0.559098
H30   H     H_    0.110475 0.732510 0.587952 0.335291
O45   O     O_3   0.466514 0.802378 0.304259 -0.632820
H31   H     H_    0.451480 0.815498 0.235425 0.300282
O46   O     O_3   0.533961 0.306730 0.696448 -0.632670
H32   H     H_    0.548626 0.314999 0.765455 0.300677

loop_
_geom_bond_atom_site_label_1
_geom_bond_atom_site_label_2
_ccdc_geom_bond_type
C48   C50   A    
C1    C24   S    
C45   C47   A    
O22   H16   S    
C15   C17   S    
S1    O26   D    
O24   H18   S    
O1    C3    A    
C22   C59   S    
O2    C4    A    
S4    O42   S    
S2    O29   D    
O46   H32   S    
O19   V4    S    
O18   V4    S    
O34   H24   S    
C29   C31   A    
C26   O24   S    
C22   C28   A    
C51   O33   S    
C32   C36   A    
C10   O22   S    
C56   H8    S    
O12   V3    S    
C20   H4    S    
C53   O45   S    
C7    C9    A    
C12   C14   A    
C30   C32   A    
C40   H14   S    
C9    O21   S    
O14   C58   A    
C39   C41   A    
C47   C49   A    
C40   C42   A    
O45   H31   S    
O11   C59   A    
C17   H1    S    
C43   C45   A    
C51   C53   A    
O27   H19   S    
C44   C46   A    
C34   C42   A    
C54   O46   S    
C35   C43   A    
C52   O34   S    
C17   S3    S    
C14   C57   S    
C31   C33   A    
O11   V4    S    
O20   V4    S    
C12   O36   S    
C32   C34   A    
S1    O25   D    
C49   C55   A    
C20   H6    S    
C11   O35   S    
C6    C8    A    
C23   C53   A    
S3    O39   S    
C26   C34   A    
O5    V1    S    
O6    V2    S    
C57   O18   A    
C55   H7    S    
C2    O7    A    
S2    O28   D    
C26   C28   A    
O16   C60   A    
C35   C37   A    
C36   C38   A    
C3    C8    S    
C24   C56   A    
C18   H2    S    
O13   C57   A    
C43   O31   S    
C5    C15   A    
C6    C16   A    
O4    C2    A    
O39   H27   S    
S4    O41   D    
C36   C44   A    
C18   S4    S    
C38   C50   A    
C2    C23   S    
C13   C58   S    
C19   H5    S    
O15   V3    S    
C46   C48   A    
O4    V2    S    
O5    C3    A    
C21   C60   S    
C42   O44   S    
O21   H15   S    
C58   O17   A    
C41   O43   S    
O6    C4    A    
O20   V3    S    
C24   C54   A    
C44   O32   S    
C27   H11   S    
O1    V2    S    
O12   C60   A    
O17   V3    S    
O32   H22   S    
O2    V1    S    
C25   C27   A    
O33   H23   S    
C30   S2    S    
C8    C10   A    
C29   S1    S    
C9    C11   A    
O35   H25   S    
C5    C19   S    
S1    O27   S    
C19   H3    S    
C6    C20   S    
O36   H26   S    
O3    V1    S    
C21   C29   A    
S3    O37   D    
C45   H9    S    
C22   C30   A    
C46   H10   S    
O3    C1    A    
C37   C49   A    
O43   H29   S    
O19   V3    S    
S4    O40   D    
C13   C15   A    
O42   H28   S    
C14   C16   A    
C21   C27   A    
C37   C39   A    
O7    V1    S    
C1    O8    A    
C17   C19   S    
O8    V2    S    
O44   H30   S    
C18   C20   S    
C25   C33   A    
C48   C52   A    
C47   C51   A    
C4    C7    S    
C16   C18   S    
C5    C7    A    
C38   C40   A    
C10   C12   A    
C11   C13   A    
O15   C59   A    
O14   V4    S    
C39   H13   S    
C25   O23   S    
C31   C35   A    
O13   V3    S    
C23   C55   A    
C33   C41   A    
O9    V2    S    
O23   H17   S    
O10   V1    S    
C52   C54   A    
C28   H12   S    
O31   H21   S    
C50   C56   A    
O16   V4    S    
S2    O30   S    
O30   H20   S    
S3    O38   D    
