data_mof_unit_25183.cif
_audit_creation_date              2012-10-26T20:37:58-0400
_audit_creation_method            fapswitch 2.2
_symmetry_space_group_name_H-M    P1
_symmetry_Int_Tables_number       1
_space_group_crystal_system       triclinic
_cell_length_a                    9.874799
_cell_length_b                    10.831954
_cell_length_c                    13.086273
_cell_angle_alpha                 90.035229
_cell_angle_beta                  75.199074
_cell_angle_gamma                 109.674301
_cell_volume                      1268.6850612

loop_
_atom_site_label
_atom_site_type_symbol
_atom_type_description
_atom_site_fract_x
_atom_site_fract_y
_atom_site_fract_z
_atom_type_partial_charge
Br1   Br    Br    0.200132 0.618937 0.065104 -0.542897
Br2   Br    Br    0.906088 0.616019 0.906902 -0.344850
C1    C     C_R   0.443065 0.253391 0.502395 0.554475
C2    C     C_R   0.705215 0.551573 0.999654 0.192539
C3    C     C_R   0.329560 0.507422 0.888207 0.244217
C4    C     C_R   0.688716 0.544772 0.108766 0.218941
C5    C     C_R   0.582459 0.503703 0.855461 0.239038
C6    C     C_R   0.418523 0.484008 0.143145 0.236705
C7    C     C_R   0.577935 0.524753 0.962073 -0.067891
C8    C     C_R   0.440018 0.513607 0.034174 -0.052338
C9    C     C_2   0.421973 0.112394 0.493565 0.258525
C10   C     C_2   0.581881 0.888755 0.486715 0.254779
C11   C     C_2   0.529743 0.077171 0.425863 0.290495
C12   C     C_R   0.557913 0.746654 0.492419 0.557250
C13   C     C_2   0.512106 0.934310 0.426883 0.295866
C14   C     C_3   0.172520 0.410066 0.245852 -0.072254
C15   C     C_3   0.665149 0.336255 0.804322 -0.082010
C16   C     C_3   0.822833 0.433559 0.156452 -0.054817
C17   C     C_3   0.100396 0.374837 0.882188 -0.026969
C18   C     C_3   0.372047 0.908086 0.302604 -0.105696
C19   C     C_3   0.762390 0.126311 0.298928 -0.141400
C20   C     C_3   0.670838 0.917470 0.636487 -0.124810
C21   C     C_3   0.284628 0.018668 0.660068 -0.108233
C22   C     C_3   0.971090 0.715526 0.321681 -0.001696
C23   C     C_2   0.082002 0.512840 0.493217 0.126722
C24   C     C_3   0.031119 0.250302 0.643351 -0.036429
C25   C     C_2   0.917098 0.483472 0.504142 0.145663
C26   C     C_R   0.472956 0.495271 0.702826 0.542250
C27   C     C_R   0.527098 0.503668 0.296962 0.579886
C28   C     C_R   0.545415 0.512196 0.181231 -0.006672
C29   C     C_R   0.459713 0.499247 0.817314 -0.041564
C30   C     C_R   0.325315 0.524871 0.994355 0.161868
Cu1   Cu    Cu3+1 0.647370 0.522180 0.481340 1.031137
Cu2   Cu    Cu3+1 0.352630 0.477820 0.518660 1.038403
H1    H     H_    0.836747 0.393395 0.549826 0.138489
H2    H     H_    0.712799 0.354164 0.190803 0.130732
H3    H     H_    0.890102 0.437184 0.212735 0.143188
H4    H     H_    0.063297 0.349664 0.969553 0.096959
H5    H     H_    0.145426 0.300012 0.843623 0.067863
H6    H     H_    0.000788 0.369296 0.855488 0.190530
H7    H     H_    0.462530 0.988239 0.246534 0.114506
H8    H     H_    0.286184 0.945172 0.350779 0.171051
H9    H     H_    0.317534 0.833520 0.253930 0.159769
H10   H     H_    0.816096 0.089086 0.350716 0.171847
H11   H     H_    0.851909 0.208006 0.244729 0.100347
H12   H     H_    0.162954 0.586688 0.431315 0.142948
H13   H     H_    0.715408 0.050084 0.248340 0.118567
H14   H     H_    0.743637 0.856765 0.622426 0.182843
H15   H     H_    0.555110 0.857899 0.683038 0.120524
H16   H     H_    0.715893 0.996189 0.685586 0.124053
H17   H     H_    0.184458 0.936235 0.705040 0.193082
H18   H     H_    0.273603 0.111580 0.690585 0.082721
H19   H     H_    0.384134 0.004154 0.675799 0.125222
H20   H     H_    0.864069 0.719776 0.313477 0.195095
H21   H     H_    0.008433 0.647065 0.268148 0.157586
H22   H     H_    0.054772 0.815668 0.296315 0.101780
H23   H     H_    0.201258 0.515237 0.262343 0.141862
H24   H     H_    0.035508 0.207846 0.565481 0.151688
H25   H     H_    0.925422 0.188082 0.700169 0.063767
H26   H     H_    0.122415 0.245379 0.675610 0.153985
H27   H     H_    0.115749 0.348836 0.322789 0.128461
H28   H     H_    0.092568 0.383872 0.197060 0.130611
H29   H     H_    0.755040 0.310611 0.749474 0.170609
H30   H     H_    0.559278 0.281378 0.783977 0.078510
H31   H     H_    0.659012 0.303479 0.886497 0.103404
H32   H     H_    0.878157 0.407024 0.079268 0.145139
N1    N     N_2   0.131210 0.444490 0.546730 -0.066621
N2    N     N_2   0.868790 0.555510 0.453270 -0.084572
O1    O     O_R   0.578710 0.332530 0.490040 -0.497220
O2    O     O_3   0.700006 0.473849 0.791132 -0.482264
O3    O     O_3   0.812773 0.559448 0.144140 -0.522162
O4    O     O_3   0.207136 0.503158 0.853657 -0.454233
O5    O     O_3   0.428472 0.846680 0.368319 -0.590585
O6    O     O_3   0.653813 0.175064 0.359097 -0.598330
O7    O     O_3   0.673735 0.976974 0.539624 -0.629218
O8    O     O_3   0.290815 0.016211 0.551257 -0.589924
O9    O     O_3   0.962963 0.681206 0.427009 -0.488613
O10   O     O_3   0.031959 0.379980 0.638108 -0.491080
O11   O     O_R   0.421290 0.667470 0.509960 -0.467525
O12   O     O_R   0.329810 0.295070 0.521560 -0.527586
O13   O     O_R   0.670190 0.704930 0.478440 -0.498547
O14   O     O_R   0.604230 0.515670 0.637800 -0.460165
O15   O     O_R   0.395770 0.484330 0.362200 -0.502945
O16   O     O_R   0.355330 0.478200 0.669330 -0.449153
O17   O     O_R   0.644670 0.521800 0.330670 -0.490827
O18   O     O_3   0.296376 0.375446 0.195258 -0.564400

loop_
_geom_bond_atom_site_label_1
_geom_bond_atom_site_label_2
_ccdc_geom_bond_type
C20   H14   S    
C26   O16   A    
C23   N1    D    
C21   O8    S    
C5    O2    S    
C18   H7    S    
C22   H21   S    
C24   O10   S    
Cu2   O16   S    
C1    O1    A    
C16   H3    S    
C27   O15   A    
C3    O4    S    
C9    O8    S    
C15   H30   S    
C22   H20   S    
C16   O3    S    
Cu1   O17   S    
C25   N2    D    
Cu2   O12   S    
Cu1   O13   S    
C7    C8    A    
C27   O17   A    
Cu1   O1    S    
C20   H16   S    
C3    C30   A    
C15   O2    S    
C14   O18   S    
C17   O4    S    
N1    O10   S    
C14   H28   S    
C20   O7    S    
C1    O12   A    
C21   H19   S    
C19   H11   S    
C4    O3    S    
C5    C29   A    
C26   O14   A    
C2    C4    A    
C25   H1    S    
C19   O6    S    
Br1   C30   S    
Br2   C2    S    
C27   C28   S    
C17   H4    S    
Cu2   O11   S    
C19   H10   S    
C21   H17   S    
C10   C13   D    
Cu1   Cu2   S    
C12   O11   A    
C24   H24   S    
C17   H5    S    
C20   H15   S    
C4    C28   A    
C10   C12   S    
C11   C13   S    
C23   C25   S    
C16   H32   S    
C14   H27   S    
C18   H9    S    
Cu1   O14   S    
N2    O9    S    
C5    C7    A    
C13   O5    S    
C26   C29   S    
Cu2   N1    S    
C18   H8    S    
C22   H22   S    
C15   H31   S    
C6    C28   A    
C15   H29   S    
C9    C11   D    
C21   H18   S    
C16   H2    S    
C18   O5    S    
C6    O18   S    
C14   H23   S    
C1    C9    S    
C17   H6    S    
C8    C30   A    
C22   O9    S    
C11   O6    S    
C6    C8    A    
Cu2   O15   S    
C10   O7    S    
C24   H25   S    
C12   O13   A    
C3    C29   A    
C2    C7    A    
C24   H26   S    
C23   H12   S    
Cu1   N2    S    
C19   H13   S    
