data_mof_unit_36883.cif
_audit_creation_date              2012-12-10T17:36:20-0500
_audit_creation_method            fapswitch 2.2
_symmetry_space_group_name_H-M    P1
_symmetry_Int_Tables_number       1
_space_group_crystal_system       triclinic
_cell_length_a                    12.329749
_cell_length_b                    13.163122
_cell_length_c                    15.861578
_cell_angle_alpha                 77.947301
_cell_angle_beta                  101.145281
_cell_angle_gamma                 116.581899
_cell_volume                      2236.7136828

loop_
_atom_site_label
_atom_site_type_symbol
_atom_type_description
_atom_site_fract_x
_atom_site_fract_y
_atom_site_fract_z
_atom_type_partial_charge
C1    C     C_R   0.854872 0.286509 0.507389 0.767706
C2    C     C_3   0.038855 0.415022 0.068169 -0.382688
C3    C     C_3   0.002244 0.508142 0.082151 0.270937
C4    C     C_3   0.090398 0.629975 0.041099 -0.115083
C5    C     C_3   0.096088 0.629378 0.943728 -0.409665
C6    C     C_1   0.001028 0.504104 0.174870 -0.093000
C7    C     C_1   0.003585 0.510306 0.823539 -0.093361
C8    C     C_1   0.002569 0.506378 0.748518 -0.178118
C9    C     C_R   0.276456 0.020106 0.381691 -0.198916
C10   C     C_R   0.228275 0.834357 0.468349 -0.044826
C11   C     C_R   0.815230 0.085004 0.563817 -0.189518
C12   C     C_R   0.000558 0.501413 0.659436 0.823164
C13   C     C_R   0.736532 0.969922 0.580303 -0.154016
C14   C     C_R   0.613360 0.932022 0.549404 -0.189204
C15   C     C_R   0.566820 0.008795 0.497844 0.080580
C16   C     C_R   0.650369 0.123283 0.472490 0.082340
C17   C     C_R   0.440333 0.975440 0.469787 0.069592
C18   C     C_R   0.401007 0.052215 0.409964 0.164703
C19   C     C_R   0.486508 0.159224 0.377666 -0.244455
C20   C     C_R   0.609396 0.193815 0.407575 -0.201834
C21   C     C_R   0.351296 0.868363 0.500285 -0.254249
C22   C     C_R   0.190400 0.911228 0.410321 -0.200919
C23   C     C_R   0.145122 0.713407 0.487092 0.794520
C24   C     C_R   0.773047 0.163308 0.511982 -0.101659
C25   C     C_R   0.342205 0.322497 0.633026 -0.305361
C26   C     C_R   0.761264 0.647333 0.385093 0.079988
C27   C     C_R   0.665656 0.679960 0.360187 -0.262891
C28   C     C_R   0.561058 0.623923 0.402875 -0.189419
C29   C     C_R   0.551126 0.534032 0.471718 -0.008439
C30   C     C_R   0.652100 0.504044 0.495293 0.290527
C31   C     C_R   0.445802 0.473400 0.518355 -0.043538
C32   C     C_R   0.442940 0.382902 0.585845 0.164137
C33   C     C_R   0.541878 0.354915 0.607514 -0.300224
C34   C     C_R   0.000315 0.500219 0.340477 0.820362
C35   C     C_R   0.644941 0.415665 0.564525 -0.175298
C36   C     C_R   0.342618 0.498513 0.501701 0.021409
C37   C     C_R   0.244300 0.351818 0.613708 0.073977
C38   C     C_3   0.042494 0.419320 0.970501 -0.425539
C39   C     C_3   0.871138 0.481966 0.935413 -0.113541
C40   C     C_3   0.872028 0.481700 0.034009 -0.447740
C41   C     C_1   0.001049 0.501682 0.250784 -0.175670
C42   C     C_3   0.002724 0.511882 0.915482 0.270637
Cu1   Cu    Cu3+1 0.098280 0.475420 0.519630 0.934231
Cu2   Cu    Cu3+1 0.901720 0.524580 0.480370 0.922654
H1    H     H_    0.971278 0.328663 0.093576 0.164256
H2    H     H_    0.136422 0.438199 0.959221 0.169052
H3    H     H_    0.128368 0.425328 0.105312 0.168936
H4    H     H_    0.046737 0.687647 0.041317 0.106278
H5    H     H_    0.095351 0.885709 0.384567 0.145132
H6    H     H_    0.458281 0.216799 0.329193 0.144424
H7    H     H_    0.246027 0.078213 0.335752 0.132195
H8    H     H_    0.375066 0.808695 0.548714 0.146924
H9    H     H_    0.908988 0.113133 0.593429 0.149983
H10   H     H_    0.557833 0.841600 0.565264 0.124815
H11   H     H_    0.770594 0.910163 0.619541 0.141500
H12   H     H_    0.981176 0.333481 0.950629 0.161869
H13   H     H_    0.671716 0.275427 0.377123 0.175227
H14   H     H_    0.165997 0.305301 0.649668 0.119409
H15   H     H_    0.541049 0.287029 0.660011 0.150045
H16   H     H_    0.339538 0.253426 0.684845 0.135456
H17   H     H_    0.336592 0.565358 0.451350 0.127812
H18   H     H_    0.842041 0.691351 0.351578 0.121109
H19   H     H_    0.489709 0.652570 0.380699 0.141881
H20   H     H_    0.673110 0.749023 0.307645 0.132074
H21   H     H_    0.717556 0.390850 0.588748 0.205868
H22   H     H_    0.814150 0.391380 0.923543 0.118488
H23   H     H_    0.806202 0.396025 0.062169 0.161046
H24   H     H_    0.840371 0.544312 0.044979 0.161866
H25   H     H_    0.188935 0.645902 0.932031 0.164611
H26   H     H_    0.077625 0.700406 0.902391 0.156752
N1    N     N_R   0.246300 0.438200 0.549400 -0.179575
N2    N     N_R   0.754300 0.561180 0.451130 -0.205527
O1    O     O_R   0.972520 0.318130 0.524690 -0.580584
O2    O     O_R   0.806530 0.359650 0.491530 -0.603816
O3    O     O_R   0.083030 0.479240 0.637150 -0.577471
O4    O     O_R   0.917040 0.520750 0.603990 -0.587851
O5    O     O_R   0.193470 0.640350 0.508470 -0.588469
O6    O     O_R   0.027480 0.681870 0.475310 -0.586470
O7    O     O_R   0.082960 0.479250 0.396010 -0.571000
O8    O     O_R   0.916970 0.520760 0.362850 -0.591271
C43   C     C_R   0.810393 0.554417 0.875971 0.136380
C44   C     C_R   0.720488 0.506573 0.807909 -0.150038
C45   C     C_R   0.663169 0.570486 0.752867 -0.113774
C46   C     C_R   0.694589 0.682783 0.764462 -0.119676
C47   C     C_R   0.783333 0.731586 0.831357 -0.147764
C48   C     C_R   0.840642 0.668110 0.886866 -0.145188
H27   H     H_    0.694754 0.419741 0.797090 0.109575
H28   H     H_    0.593929 0.533127 0.701253 0.146554
H29   H     H_    0.649658 0.731708 0.721864 0.118203
H30   H     H_    0.807325 0.818621 0.840616 0.122762
H31   H     H_    0.906993 0.708338 0.938611 0.108835
C49   C     C_R   0.215654 0.681445 0.093438 0.140006
C50   C     C_R   0.239446 0.765773 0.145241 -0.162585
C51   C     C_R   0.352284 0.813927 0.194719 -0.129292
C52   C     C_R   0.443200 0.779129 0.193031 -0.121119
C53   C     C_R   0.421131 0.695264 0.142528 -0.141834
C54   C     C_R   0.308140 0.646478 0.092993 -0.142487
H32   H     H_    0.170192 0.793923 0.148010 0.108892
H33   H     H_    0.369264 0.878442 0.234329 0.134779
H34   H     H_    0.530794 0.817652 0.230701 0.117566
H35   H     H_    0.491873 0.668328 0.141488 0.126595
H36   H     H_    0.294248 0.582716 0.053834 0.116343

loop_
_geom_bond_atom_site_label_1
_geom_bond_atom_site_label_2
_ccdc_geom_bond_type
Cu1   O1    S    
C5    C42   S    
C50   C51   A    
C26   N2    A    
C52   C53   A    
C9    H7    S    
C3    C6    S    
C43   C44   A    
C7    C8    T    
C47   C48   A    
C10   C22   A    
C26   C27   A    
C5    H26   S    
C30   C35   A    
C45   C46   A    
C1    O2    A    
C28   C29   A    
C38   C42   S    
C48   H31   S    
C9    C22   A    
C35   H21   S    
Cu1   O7    S    
C44   H27   S    
C11   C24   A    
C18   C19   A    
C7    C42   S    
Cu2   O4    S    
C5    H25   S    
C25   C37   A    
C19   C20   A    
C6    C41   T    
C25   H16   S    
C54   H36   S    
C11   H9    S    
C36   N1    A    
C8    C12   S    
C34   O8    A    
C25   C32   A    
C45   H28   S    
C16   C24   A    
C53   H35   S    
C34   C41   S    
C49   C54   A    
C39   C42   S    
C10   C21   A    
Cu1   O3    S    
C15   C16   A    
Cu2   O8    S    
C46   C47   A    
C39   C43   S    
C27   H20   S    
C39   C40   S    
C52   H34   S    
C40   H23   S    
C17   C21   A    
Cu1   Cu2   S    
C29   C30   A    
C34   O7    A    
C2    C38   S    
C31   C32   A    
C16   C20   A    
C53   C54   A    
C17   C18   A    
C43   C48   A    
C23   O5    A    
Cu2   O2    S    
C22   H5    S    
C14   H10   S    
C3    C40   S    
C37   N1    A    
C10   C23   S    
C39   H22   S    
C46   H29   S    
C3    C4    S    
C4    H4    S    
C15   C17   A    
Cu1   N1    S    
C14   C15   A    
C37   H14   S    
C4    C5    S    
C30   N2    A    
C47   H30   S    
C2    H3    S    
Cu1   O5    S    
C1    O1    A    
C32   C33   A    
C12   O4    A    
C2    C3    S    
C26   H18   S    
C29   C31   A    
C11   C13   A    
C19   H6    S    
C51   H33   S    
Cu2   O6    S    
C49   C50   A    
C33   C35   A    
Cu2   N2    S    
C23   O6    A    
C51   C52   A    
C38   H2    S    
C2    H1    S    
C28   H19   S    
C9    C18   A    
C38   H12   S    
C1    C24   S    
C33   H15   S    
C44   C45   A    
C40   H24   S    
C12   O3    A    
C27   C28   A    
C31   C36   A    
C13   H11   S    
C20   H13   S    
C13   C14   A    
C50   H32   S    
C21   H8    S    
C36   H17   S    
C4    C49   S    
