data_mof_unit_12104.cif
_audit_creation_date              2013-03-05T15:45:29-0500
_audit_creation_method            fapswitch 2.2
_symmetry_space_group_name_H-M    P1
_symmetry_Int_Tables_number       1
_space_group_crystal_system       triclinic
_cell_length_a                    27.734151
_cell_length_b                    10.68545
_cell_length_c                    10.03615
_cell_angle_alpha                 89.130665
_cell_angle_beta                  90.447368
_cell_angle_gamma                 90.620333
_cell_volume                      2973.62841043

loop_
_atom_site_label
_atom_site_type_symbol
_atom_site_description
_atom_site_fract_x
_atom_site_fract_y
_atom_site_fract_z
_atom_type_partial_charge
O1    O     O_R   0.499990 0.319060 0.613040 -0.560485
O2    O     O_R   0.500010 0.319100 0.386900 -0.625775
C1    C     C_R   0.495949 0.262403 0.500970 0.886800
O3    O     O_R   0.428750 0.500000 0.613050 -0.604493
O4    O     O_R   0.428760 0.500040 0.386920 -0.620172
C2    C     C_R   0.406052 0.501081 0.499464 0.911640
Zn1   Zn    Zn3+2 0.499990 0.499970 0.650990 0.997381
Zn2   Zn    Zn3+2 0.500010 0.500030 0.349010 0.951618
O5    O     O_R   0.499990 0.680900 0.613100 -0.607172
O6    O     O_R   0.500010 0.680940 0.386960 -0.616028
O7    O     O_R   0.571240 0.499960 0.613080 -0.626405
O8    O     O_R   0.571250 0.500000 0.386950 -0.622771
C3    C     C_R   0.501198 0.737558 0.498747 0.932667
C4    C     C_R   0.593901 0.499869 0.500540 0.870864
C5    C     C_R   0.178221 0.410520 0.439997 0.524440
O9    O     O_2   0.205373 0.318498 0.390584 -0.550235
N1    N     N_R   0.200918 0.513895 0.490237 -0.348727
C6    C     C_R   0.176203 0.614197 0.534559 0.516508
C7    C     C_R   0.278288 0.583337 0.405234 -0.122055
C8    C     C_R   0.328442 0.581073 0.404284 0.139774
C9    C     C_R   0.326661 0.436561 0.597299 -0.098069
C10   C     C_R   0.275989 0.444169 0.599808 0.144641
C11   C     C_R   0.252293 0.515023 0.500042 0.269052
C12   C     C_R   0.101288 0.502399 0.492851 -0.091801
C13   C     C_R   0.127349 0.400476 0.441605 -0.046056
C14   C     C_R   0.101578 0.292744 0.397578 0.191210
C15   C     C_R   0.125991 0.610925 0.535959 -0.019768
C16   C     C_R   0.353046 0.504768 0.498872 -0.169670
C17   C     C_R   0.646535 0.499068 0.502129 -0.039557
C18   C     C_R   0.973959 0.396639 0.442566 0.067876
C19   C     C_R   0.975186 0.581723 0.586500 -0.035882
C20   C     C_R   0.949295 0.489440 0.514367 0.072197
C21   C     C_R   0.946722 0.311346 0.365439 -0.208527
C22   C     C_R   0.896739 0.314600 0.362993 -0.123985
C23   C     C_R   0.872216 0.403005 0.437029 -0.016560
C24   C     C_R   0.898385 0.490199 0.513556 -0.050427
C25   C     C_R   0.873567 0.578586 0.588587 -0.049203
C26   C     C_R   0.823148 0.580131 0.583281 0.523076
N2    N     N_R   0.798497 0.494934 0.507853 -0.356440
C27   C     C_R   0.821832 0.406713 0.436061 0.511087
C28   C     C_R   0.722381 0.523951 0.386897 -0.091358
C29   C     C_R   0.672277 0.524566 0.384779 -0.213076
C30   C     C_R   0.671472 0.472459 0.621291 -0.211320
C31   C     C_R   0.721520 0.470745 0.622840 -0.092953
C32   C     C_R   0.747048 0.496770 0.505830 0.303741
O10   O     O_2   0.796272 0.322269 0.365026 -0.554043
C33   C     C_R   0.024964 0.393747 0.448131 0.006349
C34   C     C_R   0.050428 0.496658 0.501548 0.079101
C35   C     C_R   0.025269 0.595010 0.562776 0.071673
C36   C     C_R   0.051189 0.291666 0.401064 -0.199084
H1    H     H_    0.653776 0.545849 0.291868 0.156247
H2    H     H_    0.742108 0.544588 0.296351 0.150038
H3    H     H_    0.877391 0.247774 0.301872 0.194520
H4    H     H_    0.963121 0.243804 0.301670 0.148592
H5    H     H_    0.032893 0.207130 0.370637 0.145398
O11   O     O_2   0.200383 0.715753 0.579301 -0.546434
C37   C     C_R   0.100147 0.713967 0.579471 -0.121304
H6    H     H_    0.258795 0.638105 0.331142 0.155711
H7    H     H_    0.118236 0.800512 0.606144 0.189459
C38   C     C_R   0.949560 0.657593 0.677368 -0.059386
C39   C     C_R   0.899248 0.659616 0.671669 -0.172340
O12   O     O_2   0.798869 0.666496 0.652150 -0.550990
C40   C     C_R   0.050459 0.706823 0.590457 -0.154171
H8    H     H_    0.652371 0.451825 0.712878 0.157000
H9    H     H_    0.879943 0.720193 0.738033 0.224976
H10   H     H_    0.740555 0.448916 0.714773 0.149898
H11   H     H_    0.032014 0.790850 0.618565 0.146743
C41   C     C_2   0.485554 0.932704 0.390297 -0.109354
C42   C     C_2   0.504213 0.870097 0.494211 -0.293817
H12   H     H_    0.471143 0.885512 0.303209 0.177953
H13   H     H_    0.520934 0.916700 0.578482 0.142680
C43   C     C_2   0.486776 0.067654 0.389952 -0.233202
C44   C     C_2   0.481375 0.132337 0.502637 -0.203018
H14   H     H_    0.498178 0.112607 0.297424 0.186855
C45   C     C_2   0.538652 0.490447 0.925727 -0.134573
N3    N     N_2   0.500520 0.501330 0.852150 -0.186443
H15   H     H_    0.572607 0.468254 0.879311 0.158193
H16   H     H_    0.471579 0.545566 0.892985 0.197832
C46   C     C_2   0.538384 0.513032 0.073059 -0.021769
N4    N     N_2   0.500540 0.501360 0.147810 -0.065398
H17   H     H_    0.572298 0.540114 0.119336 0.128533
C47   C     C_2   0.351582 0.351776 0.693182 0.962193
O13   O     O_2   0.374480 0.263621 0.651827 -0.618044
O14   O     O_R   0.349261 0.373551 0.829934 -0.805877
H18   H     H_    0.368146 0.310030 0.884616 0.348134
C48   C     C_2   0.972742 0.720890 0.792525 0.891453
O15   O     O_2   0.007256 0.673155 0.849508 -0.605436
O16   O     O_R   0.953913 0.832848 0.839034 -0.801819
H19   H     H_    0.972448 0.866108 0.918702 0.350810
C49   C     C_3   0.247541 0.374369 0.706378 -0.778182
H20   H     H_    0.258506 0.407973 0.806273 0.266959
H21   H     H_    0.208108 0.388250 0.698179 0.225288
H22   H     H_    0.254397 0.272438 0.700311 0.248164
C50   C     C_2   0.456183 0.079543 0.622815 1.003515
O17   O     O_2   0.467966 0.112913 0.734585 -0.614827
O18   O     O_R   0.418459 0.992847 0.607187 -0.762164
H23   H     H_    0.404258 0.964126 0.695409 0.350431
C51   C     C_3   0.459960 0.423462 0.104931 -0.571529
H24   H     H_    0.446599 0.367154 0.190519 0.243793
H25   H     H_    0.429646 0.483051 0.070634 0.183766
H26   H     H_    0.469785 0.353558 0.029212 0.203075
C52   C     C_3   0.125798 0.176564 0.347295 -0.752866
H27   H     H_    0.099443 0.101817 0.320725 0.204327
H28   H     H_    0.146505 0.199332 0.255717 0.270131
H29   H     H_    0.149775 0.136780 0.425885 0.266736
C53   C     C_3   0.354517 0.663108 0.303640 -0.793735
H30   H     H_    0.329477 0.727007 0.249741 0.233168
H31   H     H_    0.382011 0.722164 0.354555 0.242817
H32   H     H_    0.372016 0.604414 0.228093 0.251687

loop_
_geom_bond_atom_site_label_1
_geom_bond_atom_site_label_2
_geom_bond_distance
_ccdc_geom_bond_type
C35   C40   1.407727 A    
C17   C29   1.403643 A    
C28   C29   1.389657 A    
C31   H10   1.083018 S    
C23   C24   1.408214 A    
C12   C15   1.412352 A    
C45   N3    1.290391 D    
Zn1   O7    2.015269 S    
N1    C11   1.427391 S    
C53   H31   1.110865 S    
C20   C24   1.412002 A    
C24   C25   1.405894 A    
N3    H16   1.027066 S    
C14   C36   1.398111 A    
C26   N2    1.366965 A    
C52   H28   1.110020 S    
O7    C4    1.296853 A    
C48   O16   1.398600 S    
C37   H7    1.083487 S    
C53   H30   1.110983 S    
C5    O9    1.347782 S    
C52   H29   1.110306 S    
C5    N1    1.366579 A    
C22   C23   1.396470 A    
C42   H13   1.086282 S    
O5    C3    1.289904 A    
C2    C16   1.470980 S    
C19   C20   1.417835 A    
C41   C42   1.334488 D    
C28   H2    1.082968 S    
C6    O11   1.350289 S    
C29   H1    1.083108 S    
N2    C32   1.427218 S    
O16   H19   1.013948 S    
C9    C10   1.409033 A    
C17   C30   1.403720 A    
C50   O17   1.223167 D    
C44   C50   1.498360 S    
C19   C35   1.416378 A    
O3    Zn1   2.009218 S    
C30   H8    1.083086 S    
C37   C40   1.384489 A    
C33   C36   1.407174 A    
C8    C53   1.510789 S    
C7    H6    1.084005 S    
C40   H11   1.080424 S    
C12   C34   1.414559 A    
C18   C33   1.415894 A    
C12   C13   1.418765 A    
C43   H14   1.086659 S    
C15   C37   1.397617 A    
N2    C27   1.366663 A    
C46   H17   1.084189 S    
C38   C48   1.486362 S    
C48   O15   1.223372 D    
C8    C16   1.417758 A    
C13   C14   1.422656 A    
C41   C43   1.441988 S    
O1    C1    1.288939 A    
C19   C38   1.427961 A    
C7    C11   1.391489 A    
C30   C31   1.388318 A    
C25   C26   1.399198 A    
C49   H21   1.107487 S    
C33   C34   1.410860 A    
Zn2   O8    2.009221 S    
O18   H23   1.013825 S    
N1    C6    1.360710 A    
C10   C49   1.516229 S    
O14   H18   1.013963 S    
C50   O18   1.399392 S    
C45   H15   1.084017 S    
O3    C2    1.297881 A    
C34   C35   1.418133 A    
C9    C16   1.421392 A    
O8    C4    1.297330 A    
C47   O13   1.221396 D    
C47   O14   1.397616 S    
C27   O10   1.350100 S    
C4    C17   1.459833 S    
C31   C32   1.398732 A    
C49   H22   1.110338 S    
C21   H4    1.078416 S    
Zn1   O5    1.964693 S    
C18   C21   1.413439 A    
N4    C51   1.458670 S    
O1    Zn1   1.975931 S    
Zn2   O6    1.975930 S    
O2    Zn2   1.964694 S    
C6    C15   1.392823 A    
C43   C44   1.344524 D    
O6    C3    1.282727 A    
O4    Zn2   2.015266 S    
C25   C39   1.396968 A    
Zn1   N3    2.019082 S    
C51   H26   1.111099 S    
C51   H25   1.109580 S    
C36   H5    1.078289 S    
C7    C8    1.391547 A    
O2    C1    1.292225 A    
C14   C52   1.513091 S    
C18   C20   1.419361 A    
C49   H20   1.109210 S    
O4    C2    1.297768 A    
C3    C42   1.417854 S    
C21   C22   1.387076 A    
C23   C27   1.398290 A    
C52   H27   1.110895 S    
C1    C44   1.443069 S    
C5    C13   1.414014 A    
C46   N4    1.298695 D    
C39   H9    1.084171 S    
C9    C47   1.483651 S    
C22   H3    1.083502 S    
C41   H12   1.086975 S    
C51   H24   1.105266 S    
Zn2   N4    2.019276 S    
C28   C32   1.399340 A    
C10   C11   1.408955 A    
C38   C39   1.396449 A    
C45   C46   1.501912 S    
C26   O12   1.350150 S    
C53   H32   1.109281 S    
