data_mof_unit_26363.cif
_audit_creation_date              2012-12-10T17:49:31-0500
_audit_creation_method            fapswitch 2.2
_symmetry_space_group_name_H-M    P1
_symmetry_Int_Tables_number       1
_space_group_crystal_system       triclinic
_cell_length_a                    14.70867
_cell_length_b                    14.70243
_cell_length_c                    15.862585
_cell_angle_alpha                 76.803426
_cell_angle_beta                  102.677345
_cell_angle_gamma                 114.931726
_cell_volume                      2998.8746026

loop_
_atom_site_label
_atom_site_type_symbol
_atom_type_description
_atom_site_fract_x
_atom_site_fract_y
_atom_site_fract_z
_atom_type_partial_charge
C1    C     C_R   0.880222 0.312178 0.515589 0.793740
C2    C     C_3   0.032773 0.416774 0.073037 -0.381218
C3    C     C_3   0.002651 0.502617 0.082557 0.269221
C4    C     C_3   0.078810 0.605378 0.041500 -0.417106
C5    C     C_3   0.076914 0.605595 0.942912 0.359541
C6    C     C_1   0.003070 0.502702 0.174885 -0.086852
C7    C     C_1   0.998604 0.499491 0.824686 -0.074556
C8    C     C_1   0.998430 0.499252 0.749144 -0.191296
C9    C     C_R   0.812401 0.204401 0.529866 -0.051446
C10   C     C_R   0.187633 0.795015 0.487406 -0.053595
C11   C     C_R   0.783811 0.026365 0.566802 -0.216731
C12   C     C_R   0.999421 0.499617 0.659643 0.824053
C13   C     C_R   0.850132 0.127780 0.553334 -0.201528
C14   C     C_R   0.708087 0.178599 0.521606 -0.255016
C15   C     C_R   0.639916 0.077174 0.537538 0.088505
C16   C     C_R   0.679187 0.000478 0.558092 0.169704
C17   C     C_R   0.533686 0.049888 0.530012 0.060509
C18   C     C_R   0.467425 0.945950 0.532208 0.064424
C19   C     C_R   0.509707 0.871632 0.554942 -0.243280
C20   C     C_R   0.613680 0.898739 0.568565 -0.247747
C21   C     C_R   0.491622 0.122768 0.521503 -0.221815
C22   C     C_R   0.387624 0.095497 0.509205 -0.226465
C23   C     C_R   0.119758 0.687768 0.486945 0.793016
C24   C     C_R   0.321828 0.995377 0.502914 0.159518
C25   C     C_R   0.361014 0.919810 0.513086 0.085250
C26   C     C_R   0.216902 0.969914 0.486553 -0.207653
C27   C     C_R   0.150098 0.870088 0.479626 -0.205429
C28   C     C_R   0.292264 0.820876 0.501754 -0.253793
C29   C     C_R   0.719695 0.673334 0.358867 -0.288171
C30   C     C_R   0.799356 0.641250 0.380271 0.056445
C31   C     C_R   0.713855 0.508575 0.487184 0.038994
C32   C     C_R   0.629364 0.536809 0.468176 -0.085685
C33   C     C_R   0.634447 0.622154 0.402848 0.066827
C34   C     C_R   0.000684 0.500546 0.340273 0.829841
C35   C     C_R   0.541390 0.484302 0.511807 0.075500
C36   C     C_R   0.459757 0.518258 0.489131 0.013498
C37   C     C_R   0.469052 0.603941 0.424236 -0.330119
C38   C     C_R   0.555350 0.656439 0.382838 0.436425
C39   C     C_R   0.531952 0.398531 0.576935 -0.218791
C40   C     C_R   0.446681 0.348265 0.619054 -0.210821
C41   C     C_R   0.366903 0.380592 0.597896 0.166310
C42   C     C_R   0.371432 0.465324 0.532357 0.006569
C43   C     C_R   0.281932 0.328088 0.641661 -0.328063
C44   C     C_R   0.201291 0.358853 0.619923 0.078624
C45   C     C_3   0.031262 0.415588 0.975378 -0.352770
C46   C     C_R   0.286191 0.492318 0.513015 0.005719
C47   C     C_3   0.893957 0.483277 0.933790 -0.484736
C48   C     C_3   0.895477 0.484982 0.031345 -0.388851
C49   C     C_1   0.002288 0.501815 0.250555 -0.180945
C50   C     C_3   0.000507 0.501052 0.916932 0.267861
Cu1   Cu    Cu3+1 0.081750 0.475690 0.522550 0.935829
Cu2   Cu    Cu3+1 0.918250 0.524310 0.477450 0.933775
H1    H     H_    0.979392 0.341998 0.102249 0.165228
H2    H     H_    0.107266 0.425321 0.964525 0.200965
H3    H     H_    0.109847 0.428083 0.109029 0.175877
H4    H     H_    0.059314 0.668524 0.048257 0.122331
H5    H     H_    0.642880 0.839415 0.585422 0.140843
H6    H     H_    0.318502 0.762542 0.502363 0.146918
H7    H     H_    0.069380 0.851603 0.468932 0.154647
H8    H     H_    0.358565 0.153642 0.503280 0.152405
H9    H     H_    0.814240 0.968010 0.583281 0.132468
H10   H     H_    0.930602 0.146079 0.560419 0.152792
H11   H     H_    0.681311 0.238999 0.500059 0.152020
H12   H     H_    0.976703 0.340414 0.957695 0.153466
H13   H     H_    0.464482 0.791310 0.565087 0.147233
H14   H     H_    0.537196 0.201456 0.526806 0.141893
H15   H     H_    0.186528 0.027188 0.479728 0.136028
H16   H     H_    0.281565 0.553938 0.463008 0.124619
H17   H     H_    0.135137 0.317806 0.652967 0.125035
H18   H     H_    0.443052 0.282895 0.668675 0.141278
H19   H     H_    0.725660 0.738610 0.308685 0.175403
H20   H     H_    0.865514 0.681644 0.347165 0.126967
H21   H     H_    0.717951 0.446741 0.537173 0.118586
H22   H     H_    0.869099 0.542981 0.892250 0.166819
H23   H     H_    0.410348 0.632937 0.403468 0.144652
H24   H     H_    0.589282 0.367650 0.597226 0.124518
H25   H     H_    0.277606 0.263200 0.691979 0.136446
H26   H     H_    0.837761 0.408828 0.915777 0.188089
H27   H     H_    0.839263 0.411734 0.059873 0.177984
H28   H     H_    0.872476 0.546293 0.036718 0.170679
H29   H     H_    0.048154 0.663971 0.903484 0.045693
H30   H     H_    0.156359 0.619337 0.077510 0.190217
N1    N     N_R   0.795410 0.560790 0.443550 -0.174734
N2    N     N_R   0.204590 0.439170 0.556520 -0.178007
O1    O     O_R   0.977910 0.338120 0.529720 -0.590009
O2    O     O_R   0.839850 0.379180 0.491640 -0.589926
O3    O     O_R   0.069060 0.479460 0.639610 -0.573726
O4    O     O_R   0.931000 0.520530 0.601530 -0.579959
O5    O     O_R   0.160150 0.620820 0.508360 -0.590488
O6    O     O_R   0.022090 0.661880 0.470280 -0.590910
O7    O     O_R   0.069000 0.479470 0.398470 -0.575186
O8    O     O_R   0.930940 0.520540 0.360390 -0.574687
O9    O     O_3   0.559239 0.738286 0.317770 -0.615186
C51   C     C_3   0.581687 0.823877 0.356960 0.039337
H31   H     H_    0.653039 0.839367 0.404165 0.140421
H32   H     H_    0.518426 0.812018 0.391519 0.153867
C52   C     C_3   0.595566 0.916319 0.285648 -0.325178
H33   H     H_    0.658332 0.929016 0.250291 0.216754
H34   H     H_    0.524988 0.901880 0.238067 0.224494
C53   C     C_3   0.619817 0.011616 0.323827 -0.900441
H35   H     H_    0.557523 0.000993 0.358739 0.265362
H36   H     H_    0.628504 0.076961 0.270275 0.250693
H37   H     H_    0.691701 0.029159 0.369756 0.265345
O10   O     O_3   0.175142 0.623786 0.927160 -0.608581
C54   C     C_3   0.227326 0.726154 0.891372 0.048366
H38   H     H_    0.309670 0.744318 0.910704 0.174567
H39   H     H_    0.210624 0.780488 0.918121 0.117458
C55   C     C_3   0.204650 0.740302 0.791199 -0.352205
H40   H     H_    0.221075 0.684603 0.766562 0.238053
H41   H     H_    0.123295 0.726271 0.770197 0.203459
C56   C     C_3   0.268299 0.847292 0.750471 -0.905246
H42   H     H_    0.252734 0.904407 0.773700 0.249243
H43   H     H_    0.248965 0.855096 0.678233 0.271560
H44   H     H_    0.350184 0.862168 0.767687 0.258169

loop_
_geom_bond_atom_site_label_1
_geom_bond_atom_site_label_2
_ccdc_geom_bond_type
C10   C27   A    
O9    C51   S    
C21   H14   S    
C41   C42   A    
C36   C42   A    
C35   C36   A    
C9    C14   A    
C3    C6    S    
Cu1   O1    S    
C52   H33   S    
C7    C8    T    
C25   C28   A    
C54   H39   S    
C26   C27   A    
C37   C38   A    
C40   H18   S    
C26   H15   S    
C48   H27   S    
C36   C37   A    
C24   C26   A    
C2    H3    S    
C22   H8    S    
C31   H21   S    
C15   C16   A    
C29   C33   A    
C3    C48   S    
C31   N1    A    
C55   H40   S    
C18   C19   A    
C42   C46   A    
C30   N1    A    
C9    C13   A    
C34   O7    A    
Cu1   O7    S    
Cu2   O6    S    
C13   H10   S    
C19   C20   A    
C47   C48   S    
C23   O5    A    
C12   O3    A    
C8    C12   S    
C37   H23   S    
C5    O10   S    
C21   C22   A    
C4    H4    S    
C41   C43   A    
C18   C25   A    
O10   C54   S    
C52   H34   S    
C47   C50   S    
C2    C45   S    
C1    O1    A    
C54   C55   S    
C12   O4    A    
Cu1   Cu2   S    
C32   C35   A    
Cu2   O4    S    
C1    C9    S    
C24   C25   A    
C7    C50   S    
Cu1   O3    S    
C39   C40   A    
C51   C52   S    
C11   H9    S    
C53   H37   S    
C17   C21   A    
Cu2   N1    S    
C35   C39   A    
C43   C44   A    
C46   H16   S    
C29   C30   A    
C5    H29   S    
C11   C16   A    
C31   C32   A    
C16   C20   A    
C53   H36   S    
C17   C18   A    
C23   O6    A    
C44   H17   S    
C56   H43   S    
C39   H24   S    
C51   H32   S    
C46   N2    A    
C40   C41   A    
C45   H2    S    
C22   C24   A    
C5    C50   S    
Cu2   O8    S    
C3    C4    S    
C52   C53   S    
C10   C28   A    
C1    O2    A    
C15   C17   A    
C34   C49   S    
C56   H42   S    
C47   H22   S    
C4    C5    S    
C44   N2    A    
C2    H1    S    
C30   H20   S    
C28   H6    S    
C10   C23   S    
C43   H25   S    
C54   H38   S    
C45   H12   S    
C33   C38   A    
C55   C56   S    
C32   C33   A    
C48   H28   S    
Cu2   O2    S    
C2    C3    S    
C27   H7    S    
Cu1   O5    S    
C11   C13   A    
C45   C50   S    
C14   H11   S    
C38   O9    S    
C53   H35   S    
C55   H41   S    
C19   H13   S    
C56   H44   S    
C6    C49   T    
C51   H31   S    
C34   O8    A    
C4    H30   S    
C14   C15   A    
C47   H26   S    
C20   H5    S    
Cu1   N2    S    
C29   H19   S    
