data_mof_unit_21973.cif
_audit_creation_date              2012-12-11T16:24:05-0500
_audit_creation_method            fapswitch 2.2
_symmetry_space_group_name_H-M    P1
_symmetry_Int_Tables_number       1
_space_group_crystal_system       triclinic
_cell_length_a                    14.726957
_cell_length_b                    14.733981
_cell_length_c                    33.184357
_cell_angle_alpha                 95.518292
_cell_angle_beta                  96.049953
_cell_angle_gamma                 61.310372
_cell_volume                      6272.81714578

loop_
_atom_site_label
_atom_site_type_symbol
_atom_type_description
_atom_site_fract_x
_atom_site_fract_y
_atom_site_fract_z
_atom_type_partial_charge
C1    C     C_R   0.391067 0.699605 0.445861 0.534833
C2    C     C_R   0.315551 0.404983 0.306374 -0.004944
C3    C     C_R   0.418097 0.340294 0.319238 -0.113668
C4    C     C_R   0.449519 0.321996 0.360340 -0.048259
C5    C     C_R   0.270574 0.271974 0.175992 0.031505
C6    C     C_R   0.276859 0.231604 0.135183 -0.020113
C7    C     C_R   0.291609 0.378451 0.114176 0.210294
C8    C     C_R   0.289244 0.415787 0.154576 -0.094665
C9    C     C_R   0.277567 0.364119 0.185171 -0.012886
C10   C     C_1   0.282461 0.398641 0.226973 -0.020867
C11   C     C_1   0.292795 0.410210 0.263186 -0.023527
C12   C     C_R   0.406949 0.387736 0.433166 0.568879
C13   C     C_R   0.284523 0.287229 0.103939 0.046739
C14   C     C_R   0.755184 0.378410 0.409856 0.035938
C15   C     C_R   0.743304 0.457984 0.386178 -0.154784
C16   C     C_R   0.771840 0.436767 0.346644 -0.131667
C17   C     C_R   0.814084 0.335416 0.329816 -0.005177
C18   C     C_R   0.836156 0.253655 0.354186 -0.098659
C19   C     C_R   0.806544 0.274626 0.394272 0.209178
C20   C     C_R   0.849733 0.304889 0.205821 0.332384
C21   C     C_R   0.825445 0.319725 0.286109 0.333328
C22   C     C_R   0.856685 0.387327 0.144041 0.026489
C23   C     C_R   0.701805 0.410070 0.447830 0.569354
C24   C     C_R   0.857271 0.382920 0.101275 0.003399
C25   C     C_R   0.901411 0.200555 0.098832 0.205209
C26   C     C_R   0.881112 0.211127 0.139445 -0.113298
C27   C     C_R   0.864428 0.301103 0.162682 -0.013732
C28   C     C_R   0.898326 0.284492 0.080080 0.019874
C29   C     C_R   0.370660 0.755665 0.408636 0.005384
C30   C     C_R   0.274573 0.789984 0.386303 -0.099531
C31   C     C_R   0.261090 0.821790 0.346612 0.018073
C32   C     C_R   0.346978 0.816930 0.328991 0.050267
C33   C     C_R   0.439443 0.792518 0.352711 -0.129476
C34   C     C_R   0.393364 0.701397 0.561175 0.539491
C35   C     C_R   0.451292 0.762173 0.392249 -0.136767
C36   C     C_R   0.343262 0.830338 0.203850 0.338540
C37   C     C_R   0.347236 0.821875 0.285122 0.331166
C38   C     C_R   0.243976 0.844225 0.135611 0.023597
C39   C     C_R   0.240886 0.850012 0.092978 0.000769
C40   C     C_R   0.394037 0.874110 0.100982 0.180252
C41   C     C_R   0.407355 0.850603 0.141546 -0.122076
C42   C     C_R   0.330675 0.841805 0.159740 -0.008572
C43   C     C_R   0.303621 0.885945 0.077533 0.013421
C44   C     C_R   0.370912 0.366737 0.584902 0.031316
C45   C     C_R   0.406741 0.388156 0.548794 0.569640
C46   C     C_R   0.276149 0.438426 0.601667 0.222514
C47   C     C_R   0.260129 0.429387 0.641436 -0.086344
C48   C     C_R   0.335679 0.348615 0.664436 -0.006588
C49   C     C_R   0.423260 0.270870 0.646152 -0.136552
C50   C     C_R   0.440790 0.279902 0.606786 -0.171083
C51   C     C_R   0.318717 0.354310 0.789381 0.333540
C52   C     C_R   0.327305 0.349835 0.708089 0.345551
C53   C     C_R   0.212858 0.412675 0.851370 0.018021
C54   C     C_R   0.205500 0.388766 0.890570 -0.090403
C55   C     C_R   0.385109 0.255473 0.893516 -0.133420
C56   C     C_R   0.702602 0.412697 0.562555 0.539053
C57   C     C_R   0.394877 0.278879 0.855248 -0.129577
C58   C     C_R   0.308777 0.352981 0.833008 0.037994
C59   C     C_R   0.289054 0.306579 0.910532 0.009713
C60   C     C_R   0.756998 0.377067 0.602791 0.034817
C61   C     C_R   0.823278 0.413645 0.624221 0.007890
C62   C     C_R   0.853766 0.391220 0.665345 -0.099764
C63   C     C_R   0.821387 0.332507 0.684692 0.022927
C64   C     C_R   0.762829 0.290850 0.662865 -0.107369
C65   C     C_R   0.731319 0.312463 0.622383 -0.136325
C66   C     C_R   0.878297 0.216207 0.824540 0.255788
C67   C     C_R   0.374090 0.375139 0.389706 0.017740
C68   C     C_R   0.884462 0.212656 0.867238 0.010103
C69   C     C_R   0.859428 0.389917 0.874184 -0.005864
C70   C     C_R   0.844800 0.394322 0.831860 -0.157602
C71   C     C_R   0.861091 0.306646 0.807202 0.025381
C72   C     C_1   0.851702 0.313768 0.763884 0.045324
C73   C     C_1   0.840671 0.321296 0.727699 0.009320
C74   C     C_R   0.894251 0.292964 0.891835 -0.000416
C75   C     C_R   0.375725 0.755181 0.601728 0.016521
C76   C     C_R   0.280326 0.789589 0.618778 -0.106872
C77   C     C_R   0.270438 0.819002 0.659970 -0.098989
C78   C     C_R   0.267751 0.433188 0.376144 0.220648
C79   C     C_R   0.355454 0.814747 0.684493 0.037347
C80   C     C_R   0.448685 0.786948 0.667379 -0.110007
C81   C     C_R   0.458786 0.757630 0.626128 -0.125074
C82   C     C_R   0.381759 0.907962 0.830222 -0.128361
C83   C     C_R   0.362380 0.934548 0.871004 -0.166050
C84   C     C_R   0.246517 0.858663 0.865192 0.239141
C85   C     C_R   0.266673 0.832331 0.824234 -0.053395
C86   C     C_R   0.331700 0.859584 0.806574 -0.001848
C87   C     C_1   0.342273 0.843451 0.763685 -0.004731
C88   C     C_1   0.348966 0.831230 0.727579 -0.006027
C89   C     C_R   0.238134 0.449418 0.334356 0.038420
C90   C     C_R   0.291659 0.914055 0.888758 0.028482
C91   C     C_R   0.958653 0.265820 0.044176 0.527044
C92   C     C_R   0.271386 0.257184 0.060702 0.596076
C93   C     C_R   0.261988 0.954092 0.042322 0.543411
C94   C     C_R   0.957803 0.269862 0.931585 0.528855
C95   C     C_R   0.270918 0.264780 0.945538 0.559722
C96   C     C_R   0.256599 0.964361 0.929089 0.567431
Cr1   Cr    Cr6+3 0.576280 0.580550 0.506370 1.015720
Cr2   Cr    Cr6+3 0.346780 0.572400 0.496520 1.142551
Cr3   Cr    Cr6+3 0.576960 0.347070 0.497150 1.065468
Cr4   Cr    Cr6+3 0.087320 0.083240 0.984860 1.083301
Cr5   Cr    Cr6+3 0.087720 0.316210 0.996740 1.021443
Cr6   Cr    Cr6+3 0.317350 0.090340 0.995890 1.085700
H1    H     H_    0.756695 0.500694 0.328582 0.140386
H2    H     H_    0.870821 0.174710 0.341487 0.140234
H3    H     H_    0.882703 0.146872 0.153486 0.158255
H4    H     H_    0.211107 0.787208 0.398958 0.149213
H5    H     H_    0.526078 0.736864 0.408854 0.134714
H6    H     H_    0.505292 0.789450 0.339613 0.128479
H7    H     H_    0.475826 0.844152 0.159563 0.162422
H8    H     H_    0.513080 0.222198 0.594677 0.145246
H9    H     H_    0.132727 0.428896 0.904796 0.137216
H10   H     H_    0.189886 0.487559 0.654818 0.160470
H11   H     H_    0.481900 0.206700 0.663133 0.149731
H12   H     H_    0.473499 0.304278 0.296201 0.135969
H13   H     H_    0.451218 0.192984 0.908662 0.140028
H14   H     H_    0.468908 0.234200 0.841900 0.134035
H15   H     H_    0.737627 0.245068 0.677630 0.142231
H16   H     H_    0.681319 0.282995 0.607101 0.137901
H17   H     H_    0.822883 0.466145 0.817810 0.112010
H18   H     H_    0.900904 0.421466 0.682696 0.110362
H19   H     H_    0.398510 0.976729 0.887967 0.145542
H20   H     H_    0.432713 0.928803 0.816779 0.132888
H21   H     H_    0.514833 0.783655 0.686214 0.117772
H22   H     H_    0.533370 0.731116 0.613968 0.133011
H23   H     H_    0.214969 0.788570 0.600820 0.165664
H24   H     H_    0.229270 0.793118 0.805887 0.161621
H25   H     H_    0.197867 0.840759 0.673019 0.137961
H26   H     H_    0.296831 0.485168 0.162139 0.155336
H27   H     H_    0.705342 0.538420 0.397174 0.142910
N1    N     N_R   0.766165 0.385703 0.221962 -0.222009
N2    N     N_R   0.270845 0.440472 0.729160 -0.228975
N3    N     N_R   0.381255 0.261827 0.728473 -0.222954
N4    N     N_R   0.376520 0.263990 0.768332 -0.225894
N5    N     N_R   0.754714 0.393313 0.261429 -0.227863
N6    N     N_R   0.906883 0.236043 0.269758 -0.237575
N7    N     N_R   0.918816 0.228780 0.230109 -0.246920
N8    N     N_R   0.326540 0.758595 0.219621 -0.229729
N9    N     N_R   0.328483 0.754411 0.259530 -0.232430
N10   N     N_R   0.368639 0.890808 0.269553 -0.238335
N11   N     N_R   0.366225 0.895234 0.229506 -0.253513
N12   N     N_R   0.266759 0.442648 0.769081 -0.242246
O1    O     O_R   0.679450 0.499830 0.463150 -0.526358
O2    O     O_R   0.356040 0.477400 0.534170 -0.424263
O3    O     O_R   0.495910 0.323070 0.537100 -0.531501
O4    O     O_R   0.663920 0.359620 0.542290 -0.492057
O5    O     O_3   0.500010 0.500010 0.500010 -0.272697
O6    O     O_R   0.170070 0.978950 0.027680 -0.497882
O7    O     O_R   0.001760 0.175230 0.026640 -0.437464
O8    O     O_R   0.984760 0.333570 0.037150 -0.542622
O9    O     O_R   0.183410 0.309240 0.041890 -0.479499
O10   O     O_R   0.340240 0.172500 0.045430 -0.478829
O11   O     O_R   0.309670 0.000990 0.032050 -0.454739
O12   O     O_R   0.480650 0.664000 0.464630 -0.506447
O13   O     O_R   0.168330 0.982130 0.939200 -0.450147
O14   O     O_R   0.000140 0.178170 0.944610 -0.504221
O15   O     O_R   0.983010 0.336750 0.948660 -0.524550
O16   O     O_R   0.181800 0.312190 0.959860 -0.496578
O17   O     O_R   0.338500 0.175680 0.956950 -0.508622
O18   O     O_R   0.308050 0.003930 0.950020 -0.511753
O19   O     O_3   0.164130 0.163270 0.992500 -0.272162
O20   O     O_R   0.323930 0.675950 0.455370 -0.499363
O21   O     O_R   0.354700 0.475360 0.451930 -0.435290
O22   O     O_R   0.494470 0.320860 0.448390 -0.530768
O23   O     O_R   0.662580 0.357570 0.460050 -0.457470
O24   O     O_R   0.680900 0.502040 0.551870 -0.522240
O25   O     O_R   0.481990 0.666040 0.546870 -0.507021
O26   O     O_R   0.325370 0.678160 0.544080 -0.482616
C97   C     C_3   0.272941 0.130934 0.125137 -0.287970
C98   C     C_3   0.162050 0.151101 0.114592 -0.425032
H28   H     H_    0.157958 0.077772 0.113628 0.162796
H29   H     H_    0.137091 0.183459 0.084369 0.181599
H30   H     H_    0.108630 0.206410 0.137109 0.144515
H31   H     H_    0.321404 0.087322 0.099848 0.218439
H32   H     H_    0.308051 0.077466 0.150198 0.158593
Cl1   Cl    Cl    0.833675 0.169761 0.423476 -0.627741
C99   C     C_3   0.808798 0.482594 0.078546 -0.265505
C100  C     C_3   0.691906 0.544650 0.083362 -0.421131
H33   H     H_    0.653305 0.498584 0.070258 0.171623
H34   H     H_    0.674091 0.565748 0.115625 0.169976
H35   H     H_    0.658986 0.617152 0.066906 0.181107
H36   H     H_    0.847118 0.530522 0.088987 0.159860
H37   H     H_    0.816187 0.467066 0.045397 0.168253
C101  C     C_3   0.866539 0.474957 0.169153 -0.266895
C102  C     C_3   0.977539 0.458066 0.169939 -0.440911
H38   H     H_    0.032284 0.384103 0.184107 0.153584
H39   H     H_    0.000022 0.455476 0.138769 0.168260
H40   H     H_    0.983927 0.522368 0.188086 0.144726
H41   H     H_    0.812186 0.551565 0.157138 0.152193
H42   H     H_    0.848172 0.480729 0.201024 0.174580
Cl2   Cl    Cl    0.929861 0.080010 0.073509 -0.618961
C103  C     C_3   0.177738 0.811522 0.063894 -0.269507
C104  C     C_3   0.210118 0.698160 0.069614 -0.401838
H43   H     H_    0.294338 0.649711 0.065421 0.210508
H44   H     H_    0.194200 0.686601 0.100087 0.172702
H45   H     H_    0.166302 0.671599 0.046607 0.187338
H46   H     H_    0.093367 0.860841 0.067040 0.207510
H47   H     H_    0.191762 0.812920 0.031842 0.188185
C105  C     C_3   0.255447 0.218374 0.210045 -0.267973
C106  C     C_3   0.359214 0.143633 0.230915 -0.403521
H48   H     H_    0.408389 0.081926 0.209005 0.170107
H49   H     H_    0.401797 0.185393 0.244442 0.155687
H50   H     H_    0.345233 0.106841 0.255551 0.174788
H51   H     H_    0.206404 0.276375 0.232995 0.141527
H52   H     H_    0.211077 0.176685 0.199240 0.151729
C107  C     C_3   0.155626 0.857088 0.323904 -0.283200
C108  C     C_3   0.073674 0.958253 0.343038 -0.415898
H53   H     H_    0.063442 0.948059 0.374673 0.184845
H54   H     H_    0.096419 0.020056 0.343006 0.177276
H55   H     H_    0.998189 0.983044 0.325187 0.148966
H56   H     H_    0.156354 0.870618 0.291693 0.169730
H57   H     H_    0.132009 0.795946 0.324180 0.149614
C109  C     C_3   0.151314 0.850738 0.155077 -0.260509
C110  C     C_3   0.094993 0.952680 0.180098 -0.406228
H58   H     H_    0.142476 0.956138 0.207816 0.173730
H59   H     H_    0.075843 0.019273 0.161615 0.171656
H60   H     H_    0.021661 0.960062 0.189718 0.152283
H61   H     H_    0.092331 0.847852 0.132242 0.161616
H62   H     H_    0.175284 0.783726 0.173885 0.167687
Cl3   Cl    Cl    0.493410 0.887331 0.081232 -0.612427
Cl4   Cl    Cl    0.176179 0.542756 0.575283 -0.575770
C111  C     C_3   0.118709 0.494943 0.827998 -0.254067
C112  C     C_3   0.016759 0.546996 0.848953 -0.455569
H63   H     H_    0.993798 0.488258 0.854891 0.144455
H64   H     H_    0.023999 0.589137 0.877675 0.171929
H65   H     H_    0.954581 0.603952 0.828749 0.153661
H66   H     H_    0.136563 0.556991 0.821403 0.198427
H67   H     H_    0.104207 0.458667 0.798820 0.166912
C113  C     C_3   0.871324 0.128732 0.885378 -0.226365
C114  C     C_3   0.762426 0.140943 0.874697 -0.422777
H68   H     H_    0.703034 0.218700 0.885668 0.147052
H69   H     H_    0.747180 0.131275 0.841583 0.214141
H70   H     H_    0.754142 0.081317 0.889680 0.149384
H71   H     H_    0.931019 0.050757 0.874780 0.228590
H72   H     H_    0.878577 0.132502 0.918855 0.169791
Cl5   Cl    Cl    0.895343 0.106542 0.792544 -0.616699
C115  C     C_3   0.863024 0.475838 0.604878 -0.273094
C116  C     C_3   0.935443 0.411806 0.571534 -0.391304
H73   H     H_    0.001772 0.341002 0.584047 0.164450
H74   H     H_    0.893877 0.388896 0.546202 0.173028
H75   H     H_    0.966271 0.458387 0.559308 0.184778
H76   H     H_    0.797894 0.547856 0.592896 0.178356
H77   H     H_    0.907559 0.501713 0.627880 0.143457
C117  C     C_3   0.832955 0.490994 0.898889 -0.258783
C118  C     C_3   0.749905 0.515966 0.928330 -0.409612
H78   H     H_    0.678936 0.519868 0.911459 0.160567
H79   H     H_    0.778061 0.456596 0.951290 0.161271
H80   H     H_    0.729473 0.592212 0.944468 0.146276
H81   H     H_    0.902713 0.490588 0.915195 0.174074
H82   H     H_    0.801765 0.556847 0.878630 0.130136
C119  C     C_3   0.563020 0.248897 0.372790 -0.238892
C120  C     C_3   0.633064 0.185520 0.338508 -0.444744
H83   H     H_    0.599940 0.140603 0.319630 0.151481
H84   H     H_    0.644252 0.236833 0.319414 0.155264
H85   H     H_    0.710467 0.129616 0.351692 0.188390
H86   H     H_    0.597621 0.294819 0.389665 0.197568
H87   H     H_    0.565569 0.191639 0.392967 0.194307
Cl6   Cl    Cl    0.163596 0.821424 0.885011 -0.589554
Cl7   Cl    Cl    0.170630 0.482769 0.411556 -0.590022
Cl8   Cl    Cl    0.307260 0.445513 0.076733 -0.646454
C121  C     C_3   0.125047 0.513675 0.319761 -0.248579
C122  C     C_3   0.070260 0.447397 0.312992 -0.401836
H88   H     H_    0.108426 0.383879 0.289804 0.145881
H89   H     H_    0.071900 0.413441 0.341683 0.208401
H90   H     H_    0.988096 0.496028 0.302112 0.139954
H91   H     H_    0.083874 0.579357 0.341789 0.193403
H92   H     H_    0.118150 0.549970 0.290983 0.133449

loop_
_geom_bond_atom_site_label_1
_geom_bond_atom_site_label_2
_ccdc_geom_bond_type
C14   C23   S    
C7    C13   A    
C66   C68   A    
C87   C88   T    
C117  H82   S    
C55   C59   A    
Cr2   O2    S    
C95   O17   A    
C41   C42   A    
C74   C94   S    
C36   C42   S    
C13   C92   S    
C101  C102  S    
C1    O20   A    
Cr6   O17   S    
N6    N7    A    
Cr1   O24   S    
C55   H13   S    
C85   C86   A    
C102  H38   S    
C25   C28   A    
C97   H32   S    
C89   C121  S    
C26   C27   A    
C22   C101  S    
C59   C95   S    
C31   C107  S    
C114  H70   S    
C25   Cl2   S    
C5    C6    A    
C108  H54   S    
C120  H84   S    
C109  H61   S    
C107  H57   S    
Cr4   O6    S    
C68   C74   A    
C117  C118  S    
Cr5   O9    S    
C50   H8    S    
C118  H78   S    
C99   H36   S    
C18   C19   A    
Cr1   O5    S    
C49   H11   S    
C115  H77   S    
C56   O4    A    
C49   C50   A    
C103  H46   S    
C113  C114  S    
C44   C50   A    
C43   C93   S    
C7    Cl8   S    
C8    H26   S    
C40   C43   A    
C96   O13   A    
C62   C63   A    
C66   C71   A    
Cr5   O19   S    
C102  H39   S    
C16   C17   A    
C100  H34   S    
C56   O24   A    
C45   O3    A    
C65   H16   S    
C23   O1    A    
C99   C100  S    
C105  C106  S    
C104  H43   S    
Cr1   O12   S    
C29   C30   A    
N3    N4    A    
C36   N8    A    
C62   H18   S    
Cr2   O26   S    
N2    N12   A    
C34   C75   S    
C72   C73   T    
C61   C62   A    
C110  H59   S    
Cr3   O4    S    
Cr5   O16   S    
C106  H48   S    
C41   H7    S    
C116  H73   S    
C30   H4    S    
Cr3   O3    S    
C76   H23   S    
C98   H29   S    
C85   H24   S    
N1    N5    A    
C33   H6    S    
C84   C90   A    
C2    C11   S    
C101  H42   S    
C26   H3    S    
C91   O7    A    
Cr2   O21   S    
C114  H68   S    
C44   C46   A    
C57   H14   S    
C54   C59   A    
C51   N12   A    
C78   C89   A    
C119  H87   S    
C38   C39   A    
C12   C67   S    
C6    C97   S    
C53   C111  S    
C46   Cl4   S    
C15   C16   A    
C81   H22   S    
C103  C104  S    
C52   N3    A    
C98   H28   S    
C103  H47   S    
C84   Cl6   S    
C7    C8    A    
C94   O14   A    
C84   C85   A    
C120  H83   S    
C115  C116  S    
Cr6   O19   S    
C122  H89   S    
C108  H53   S    
C8    C9    A    
C120  H85   S    
C39   C43   A    
C63   C73   S    
Cr5   O15   S    
C25   C26   A    
C107  C108  S    
C111  H66   S    
C82   C83   A    
C83   H19   S    
C64   H15   S    
C1    O12   A    
C60   C61   A    
C104  H44   S    
C115  H76   S    
C2    C89   A    
C99   H37   S    
C75   C76   A    
C104  H45   S    
C5    C9    A    
C111  C112  S    
C111  H67   S    
C106  H50   S    
C39   C103  S    
C82   H20   S    
Cr4   O19   S    
C16   H1    S    
C47   C48   A    
C15   H27   S    
C97   H31   S    
C110  H58   S    
C70   H17   S    
N10   N11   A    
C100  H35   S    
C92   O10   A    
C1    C29   S    
C17   C18   A    
C78   Cl7   S    
C77   C79   A    
C69   C74   A    
C51   C58   S    
C18   H2    S    
C32   C37   S    
C76   C77   A    
C90   C96   S    
C20   N7    A    
C106  H49   S    
C113  H71   S    
C70   C71   A    
C79   C88   S    
Cr3   O22   S    
Cr4   O14   S    
C94   O15   A    
C97   C98   S    
Cr3   O5    S    
C60   C65   A    
C100  H33   S    
C22   C27   A    
C116  H74   S    
C40   Cl3   S    
C105  H52   S    
C98   H30   S    
C22   C24   A    
C79   C80   A    
C121  H92   S    
C3    C4    A    
C24   C99   S    
C21   N5    A    
Cr2   O20   S    
C44   C45   S    
C91   O8    A    
C23   O23   A    
C9    C10   S    
C110  H60   S    
Cr4   O13   S    
C119  H86   S    
C83   C90   A    
C29   C35   A    
C46   C47   A    
C40   C41   A    
C112  H64   S    
C86   C87   S    
C52   N2    A    
C113  H72   S    
C14   C19   A    
C31   C32   A    
C75   C81   A    
C24   C28   A    
C69   C117  S    
C80   C81   A    
C3    H12   S    
C77   H25   S    
Cr6   O18   S    
C122  H90   S    
C53   C58   A    
C68   C113  S    
C53   C54   A    
C5    C105  S    
C20   C27   S    
Cr2   O5    S    
N8    N9    A    
Cr6   O10   S    
C112  H65   S    
C102  H40   S    
C67   C78   A    
C66   Cl5   S    
C37   N9    A    
C32   C33   A    
C55   C57   A    
C2    C3    A    
C119  C120  S    
C4    C119  S    
C71   C72   S    
C114  H69   S    
C118  H80   S    
C82   C86   A    
C101  H41   S    
C121  C122  S    
C12   O22   A    
C92   O9    A    
C51   N4    A    
C108  H55   S    
C57   C58   A    
C122  H88   S    
C109  H62   S    
C107  H56   S    
Cr4   O7    S    
Cr1   O25   S    
C64   C65   A    
Cr5   O8    S    
Cr3   O23   S    
C33   C35   A    
C118  H79   S    
C54   H9    S    
C93   O6    A    
C28   C91   S    
C36   N11   A    
C69   C70   A    
C30   C31   A    
C19   Cl1   S    
Cr1   O1    S    
C35   H5    S    
C10   C11   T    
C12   O21   A    
C63   C64   A    
C38   C42   A    
C56   C60   S    
C48   C52   S    
C96   O18   A    
C109  C110  S    
C95   O16   A    
C117  H81   S    
C48   C49   A    
C116  H75   S    
C105  H51   S    
C45   O2    A    
C61   C115  S    
C14   C15   A    
C34   O26   A    
C93   O11   A    
C20   N1    A    
C38   C109  S    
C121  H91   S    
C34   O25   A    
C37   N10   A    
C112  H63   S    
C21   N6    A    
C4    C67   A    
C47   H10   S    
Cr6   O11   S    
C6    C13   A    
C80   H21   S    
C17   C21   S    
