data_mof_unit_34518.cif
_audit_creation_date              2012-12-10T16:50:11-0500
_audit_creation_method            fapswitch 2.2
_symmetry_space_group_name_H-M    P1
_symmetry_Int_Tables_number       1
_space_group_crystal_system       triclinic
_cell_length_a                    7.784944
_cell_length_b                    8.566134
_cell_length_c                    10.608288
_cell_angle_alpha                 90.943005
_cell_angle_beta                  85.692619
_cell_angle_gamma                 93.724466
_cell_volume                      703.897829787

loop_
_atom_site_label
_atom_site_type_symbol
_atom_type_description
_atom_site_fract_x
_atom_site_fract_y
_atom_site_fract_z
_atom_type_partial_charge
C1    C     C_R   0.545790 0.794684 0.496548 0.923077
C2    C     C_R   0.454211 0.205304 0.503020 0.987449
C3    C     C_R   0.498690 0.502264 0.260715 0.943495
C4    C     C_R   0.420208 0.786668 0.877112 -0.171153
C5    C     C_R   0.372524 0.918057 0.947341 -0.143639
C6    C     C_R   0.364474 0.915053 0.078734 -0.081661
C7    C     C_R   0.405749 0.781331 0.140217 -0.163690
C8    C     C_R   0.452950 0.646374 0.070350 0.015232
C9    C     C_3   0.761188 0.206602 0.089117 -0.276062
C10   C     C_R   0.459555 0.649098 0.938232 0.097741
C11   C     C_R   0.508059 0.513869 0.871065 -0.159780
C12   C     C_R   0.555261 0.381203 0.929773 -0.324775
C13   C     C_R   0.554375 0.378823 0.059540 0.504762
C14   C     C_R   0.497597 0.508985 0.128266 -0.217858
C15   C     C_2   0.569795 0.958252 0.494159 -0.373015
C16   C     C_2   0.430174 0.041696 0.504566 -0.392560
C17   C     C_R   0.502536 0.504118 0.739145 0.890177
H1    H     H_    0.587246 0.278021 0.874521 0.155478
H2    H     H_    0.796478 0.119391 0.157290 0.187543
H3    H     H_    0.854619 0.310252 0.094961 0.163375
H4    H     H_    0.773032 0.151643 0.993551 0.161558
H5    H     H_    0.986631 0.617876 0.594600 0.193212
H6    H     H_    0.427465 0.794453 0.775192 0.140377
H7    H     H_    0.342484 0.022620 0.899704 0.137534
H8    H     H_    0.327298 0.016960 0.133269 0.166587
H9    H     H_    0.401337 0.785640 0.242235 0.150159
H10   H     H_    0.701597 0.009453 0.484056 0.181817
H11   H     H_    0.298371 0.990476 0.514537 0.177643
H12   H     H_    0.013361 0.382171 0.405347 0.191648
N1    N     N_2   0.950330 0.457950 0.466250 -0.175344
N2    N     N_2   0.049670 0.542050 0.533750 -0.174238
O1    O     O_R   0.389250 0.738570 0.508280 -0.625435
O2    O     O_R   0.678390 0.711630 0.486650 -0.631131
O3    O     O_R   0.355400 0.513470 0.694050 -0.617250
O4    O     O_R   0.644540 0.486530 0.672420 -0.624514
O5    O     O_R   0.321610 0.288370 0.513350 -0.632132
O6    O     O_R   0.610750 0.261430 0.491720 -0.606662
O7    O     O_R   0.355460 0.513470 0.327580 -0.638447
O8    O     O_R   0.644600 0.486530 0.305950 -0.596163
O9    O     O_3   0.589815 0.244734 0.122063 -0.626436
Zn1   Zn    Zn3+2 0.306930 0.517990 0.514440 0.934532
Zn2   Zn    Zn3+2 0.693070 0.482010 0.485560 0.948548

loop_
_geom_bond_atom_site_label_1
_geom_bond_atom_site_label_2
_ccdc_geom_bond_type
C16   H11   S    
C17   O3    A    
O1    Zn1   S    
C6    C7    A    
C1    C15   S    
C2    C16   S    
C9    H3    S    
C15   H10   S    
C11   C12   A    
C5    H7    S    
C3    O8    A    
C7    C8    A    
N2    Zn1   S    
C13   C14   A    
C3    C14   S    
C2    O6    A    
C9    H4    S    
O5    Zn1   S    
H12   N1    S    
O3    Zn1   S    
C7    H9    S    
C5    C6    A    
O2    Zn2   S    
O8    Zn2   S    
C9    O9    S    
N1    N2    D    
C6    H8    S    
H5    N2    S    
C1    O2    A    
C15   C16   D    
C2    O5    A    
C12   C13   A    
O7    Zn1   S    
C8    C10   A    
C10   C11   A    
C12   H1    S    
O6    Zn2   S    
C4    H6    S    
O4    Zn2   S    
N1    Zn2   S    
C13   O9    S    
C8    C14   A    
C17   O4    A    
C4    C10   A    
C9    H2    S    
C1    O1    A    
C11   C17   S    
C3    O7    A    
C4    C5    A    
