data_mof_unit_20324.cif
_audit_creation_date              2013-03-05T16:06:02-0500
_audit_creation_method            fapswitch 2.2
_symmetry_space_group_name_H-M    P1
_symmetry_Int_Tables_number       1
_space_group_crystal_system       triclinic
_cell_length_a                    10.504522
_cell_length_b                    15.033588
_cell_length_c                    15.130247
_cell_angle_alpha                 82.618393
_cell_angle_beta                  89.61569
_cell_angle_gamma                 104.133583
_cell_volume                      2296.04507647

loop_
_atom_site_label
_atom_site_type_symbol
_atom_site_description
_atom_site_fract_x
_atom_site_fract_y
_atom_site_fract_z
_atom_type_partial_charge
O1    O     O_R   0.462600 0.383110 0.605620 -0.627645
O2    O     O_R   0.537400 0.616890 0.394380 -0.627791
O3    O     O_R   0.510210 0.531900 0.639510 -0.580929
O4    O     O_R   0.489790 0.468100 0.360490 -0.567299
C1    C     C_R   0.486161 0.442285 0.663167 0.885765
C2    C     C_R   0.522614 0.557760 0.336757 0.907759
O5    O     O_R   0.662240 0.425610 0.483080 -0.628563
O6    O     O_R   0.337760 0.574390 0.516920 -0.630737
O7    O     O_R   0.709860 0.574400 0.516970 -0.583958
O8    O     O_R   0.290140 0.425600 0.483030 -0.585936
C3    C     C_R   0.742431 0.500880 0.499022 0.925118
C4    C     C_R   0.257494 0.499130 0.500913 0.928447
Zn1   Zn    Zn3+2 0.468210 0.400660 0.477370 0.986604
Zn2   Zn    Zn3+2 0.531790 0.599340 0.522630 0.977402
C5    C     C_3   0.934687 0.431209 0.455004 -0.319439
C6    C     C_3   0.064924 0.568667 0.545103 -0.326835
C7    C     C_3   0.010205 0.416204 0.541051 -0.321938
C8    C     C_3   0.989396 0.583683 0.459062 -0.321340
H1    H     H_    0.023557 0.349280 0.574963 0.156820
H2    H     H_    0.975939 0.650594 0.425183 0.157821
H3    H     H_    0.878195 0.376466 0.417723 0.169132
H4    H     H_    0.121507 0.623340 0.582418 0.160208
C9    C     C_3   0.122128 0.498716 0.501642 -0.109218
C10   C     C_3   0.877603 0.501198 0.498371 -0.107902
C11   C     C_3   0.047698 0.513638 0.417357 0.617943
C12   C     C_3   0.951786 0.486260 0.582708 0.620529
C13   C     C_R   0.504825 0.408151 0.756388 -0.099199
C14   C     C_R   0.564455 0.591663 0.243193 -0.109631
C15   C     C_R   0.508829 0.282215 0.874539 0.500233
C16   C     C_R   0.671598 0.715011 0.126237 0.495634
C17   C     C_R   0.482160 0.313459 0.786496 -0.320769
C18   C     C_R   0.617812 0.685620 0.213735 -0.328782
C19   C     C_R   0.559567 0.471987 0.813005 -0.174905
C20   C     C_R   0.567030 0.526793 0.185956 -0.204946
C21   C     C_R   0.595579 0.443774 0.898867 -0.043590
C22   C     C_R   0.630168 0.552391 0.101854 -0.047215
C23   C     C_R   0.561500 0.347885 0.932669 -0.086344
C24   C     C_R   0.674806 0.647985 0.068571 -0.083040
C25   C     C_R   0.650601 0.510610 0.954851 -0.148226
C26   C     C_R   0.636123 0.483889 0.047088 -0.138863
C27   C     C_R   0.621510 0.388862 0.080307 0.309922
C28   C     C_R   0.713012 0.604401 0.922726 0.302597
C29   C     C_R   0.579538 0.321029 0.023915 0.504904
C30   C     C_R   0.720183 0.673150 0.978456 0.501837
H5    H     H_    0.517983 0.455110 0.207391 0.223640
H6    H     H_    0.571171 0.544759 0.790227 0.219750
H7    H     H_    0.618351 0.736148 0.258829 0.158980
H8    H     H_    0.442914 0.263631 0.741705 0.152770
N1    N     N_R   0.574200 0.731700 0.552740 -0.141032
N2    N     N_R   0.425800 0.268300 0.447260 -0.137134
C31   C     C_R   0.695804 0.843040 0.638600 -0.438147
C32   C     C_R   0.311221 0.158733 0.357009 -0.428978
C33   C     C_R   0.667916 0.754461 0.613090 0.671872
C34   C     C_R   0.337627 0.246967 0.383116 0.687605
C35   C     C_R   0.512435 0.793461 0.511163 -0.181991
C36   C     C_R   0.484688 0.205857 0.490766 -0.173070
C37   C     C_R   0.542104 0.885535 0.530595 0.004209
C38   C     C_R   0.457945 0.114494 0.469534 0.005394
C39   C     C_R   0.633783 0.908580 0.597324 0.110889
C40   C     C_R   0.369853 0.092327 0.400558 0.118846
C41   C     C_R   0.484137 0.954707 0.486895 0.098301
C42   C     C_R   0.516072 0.045362 0.513187 0.098235
C43   C     C_R   0.605248 0.063917 0.581915 -0.235121
C44   C     C_R   0.397006 0.936614 0.416989 -0.234241
C45   C     C_R   0.663391 0.996841 0.622537 -0.182489
C46   C     C_R   0.341155 0.004263 0.374906 -0.180339
H9    H     H_    0.732508 0.014376 0.674263 0.148219
H10   H     H_    0.274709 0.987373 0.321582 0.146034
H11   H     H_    0.551787 0.230188 0.540770 0.158335
H12   H     H_    0.440771 0.768131 0.464091 0.161434
H13   H     H_    0.764950 0.860601 0.690178 0.162278
H14   H     H_    0.246593 0.142384 0.302714 0.149927
H15   H     H_    0.633492 0.129998 0.605946 0.143967
H16   H     H_    0.370520 0.870906 0.392096 0.143615
O9    O     O_3   0.284409 0.315462 0.339830 -0.581942
C47   C     C_3   0.146195 0.289014 0.351260 -0.279851
H17   H     H_    0.107325 0.349905 0.328476 0.229424
H18   H     H_    0.113955 0.266107 0.422630 0.150843
H19   H     H_    0.102325 0.234506 0.309608 0.144634
O10   O     O_3   0.726303 0.687122 0.652772 -0.561973
C48   C     C_3   0.864065 0.716679 0.638601 -0.210031
H20   H     H_    0.905990 0.656151 0.655964 0.217893
H21   H     H_    0.907975 0.768347 0.683189 0.165862
H22   H     H_    0.893078 0.744422 0.567437 0.123948
O11   O     O_3   0.110082 0.528697 0.332005 -0.612772
C49   C     C_3   0.016524 0.534882 0.266722 -0.323758
H23   H     H_    0.969093 0.592305 0.273792 0.163401
H24   H     H_    0.941089 0.468266 0.268743 0.155499
H25   H     H_    0.067419 0.549830 0.200036 0.206643
O12   O     O_3   0.887897 0.471378 0.667566 -0.612410
C50   C     C_3   0.979860 0.464523 0.733729 -0.337466
H26   H     H_    0.055281 0.531034 0.732601 0.157983
H27   H     H_    0.027281 0.407060 0.726868 0.163251
H28   H     H_    0.927422 0.449094 0.799922 0.201575
O13   O     O_3   0.560512 0.228609 0.058200 -0.523521
C51   C     C_3   0.438246 0.198938 0.105928 -0.151545
H29   H     H_    0.356198 0.209871 0.063029 0.138620
H30   H     H_    0.438245 0.234020 0.166298 0.177635
H31   H     H_    0.419733 0.123601 0.128719 0.180759
O14   O     O_3   0.775933 0.764574 0.944669 -0.527167
C52   C     C_3   0.681743 0.799807 0.894710 -0.169195
H32   H     H_    0.653455 0.763077 0.835825 0.169048
H33   H     H_    0.725320 0.873754 0.869565 0.179026
H34   H     H_    0.592707 0.796129 0.936734 0.152035
O15   O     O_3   0.483507 0.188509 0.904271 -0.726200
H35   H     H_    0.447123 0.153038 0.855369 0.323567
O16   O     O_3   0.721930 0.808090 0.096983 -0.723474
H36   H     H_    0.711136 0.844662 0.145354 0.327661
O17   O     O_3   0.655913 0.360045 0.165244 -0.758675
H37   H     H_    0.719597 0.412444 0.186551 0.331376
O18   O     O_3   0.776751 0.630660 0.839975 -0.735214
H38   H     H_    0.799269 0.575859 0.820141 0.359114

loop_
_geom_bond_atom_site_label_1
_geom_bond_atom_site_label_2
_geom_bond_distance
_ccdc_geom_bond_type
C38   C42   1.424136 A    
C46   H10   1.084540 S    
C43   C45   1.383556 A    
C52   H32   1.112109 S    
C16   O16   1.382000 S    
O13   C51   1.412452 S    
C47   H19   1.110493 S    
C28   O18   1.380007 S    
C48   H20   1.107614 S    
O11   C49   1.408607 S    
C13   C19   1.390628 A    
O5    C3    1.286698 A    
C4    C9    1.420415 S    
C7    C9    1.537798 S    
C31   H13   1.083123 S    
C8    C10   1.536369 S    
C7    C12   1.537550 S    
C21   C23   1.422641 A    
C10   C12   1.520247 S    
C49   H24   1.111776 S    
C37   C39   1.416616 A    
Zn2   N1    2.041624 S    
C38   C40   1.417111 A    
C51   H31   1.109339 S    
C3    C10   1.418721 S    
C16   C24   1.421204 A    
O4    Zn1   1.904812 S    
C32   C40   1.395294 A    
C7    H1    1.110155 S    
C1    C13   1.469015 S    
C2    C14   1.467595 S    
O18   H38   0.991204 S    
C45   H9    1.084574 S    
C51   H30   1.111881 S    
C29   O13   1.384659 S    
O16   H36   0.991712 S    
C20   C22   1.394774 A    
C40   C46   1.390315 A    
C52   H33   1.109334 S    
C27   O17   1.381823 S    
C19   H6    1.080729 S    
C27   C29   1.404055 A    
C15   O15   1.382109 S    
O2    C2    1.306901 A    
C8    C11   1.537087 S    
C28   C30   1.404174 A    
O6    Zn2   1.984871 S    
C48   H21   1.111331 S    
C32   C34   1.396039 A    
C25   C28   1.422097 A    
C6    C12   1.536794 S    
C13   C17   1.398962 A    
C14   C18   1.398654 A    
C33   O10   1.383289 S    
C47   H17   1.107642 S    
O4    C2    1.308319 A    
C25   C26   1.398360 A    
O7    Zn2   1.998862 S    
C49   H23   1.112660 S    
C43   H15   1.075839 S    
N1    C35   1.352168 A    
C49   H25   1.109138 S    
N2    C36   1.351842 A    
Zn1   N2    2.041623 S    
C31   C33   1.396851 A    
C44   C46   1.383455 A    
C23   C29   1.415110 A    
C41   C44   1.412709 A    
C21   C25   1.415196 A    
O9    C47   1.411730 S    
C24   C30   1.414227 A    
C42   C43   1.413034 A    
C32   H14   1.083531 S    
C50   H27   1.112533 S    
C22   C26   1.414603 A    
O6    C4    1.287235 A    
C51   H29   1.113742 S    
C11   O11   1.410481 S    
C20   H5    1.081099 S    
N2    C34   1.359995 A    
O7    C3    1.293432 A    
O3    Zn2   1.904812 S    
O8    C4    1.293633 A    
C5    C10   1.541899 S    
C6    C9    1.542844 S    
C17   H8    1.083392 S    
C35   C37   1.412355 A    
C18   H7    1.083357 S    
O1    C1    1.305836 A    
O1    Zn1   1.922959 S    
C50   H26   1.111894 S    
C48   H22   1.115485 S    
C5    C7    1.549491 S    
C26   C27   1.422822 A    
C6    H4    1.110293 S    
C47   H18   1.114424 S    
O10   C48   1.412414 S    
O3    C1    1.309818 A    
O8    Zn1   1.998860 S    
C37   C41   1.423829 A    
C12   O12   1.410753 S    
O15   H35   0.991722 S    
C22   C24   1.421464 A    
C15   C17   1.407884 A    
O17   H37   0.991356 S    
C39   C45   1.390321 A    
C50   H28   1.109399 S    
C16   C18   1.408836 A    
C30   O14   1.384080 S    
O12   C50   1.407496 S    
C5    H3    1.110354 S    
N1    C33   1.359348 A    
O14   C52   1.412092 S    
C19   C21   1.397865 A    
C36   C38   1.412367 A    
C8    H2    1.110199 S    
C9    C11   1.520995 S    
C41   C42   1.430395 A    
O2    Zn2   1.922956 S    
C35   H12   1.075098 S    
C5    C11   1.536390 S    
C14   C20   1.389730 A    
C34   O9    1.383659 S    
O5    Zn1   1.984872 S    
C31   C39   1.395035 A    
C6    C8    1.549508 S    
C36   H11   1.074876 S    
C15   C23   1.420296 A    
C44   H16   1.076030 S    
C52   H34   1.113476 S    
