data_mof_unit_25590.cif
_audit_creation_date              2012-10-26T19:41:06-0400
_audit_creation_method            fapswitch 2.2
_symmetry_space_group_name_H-M    P1
_symmetry_Int_Tables_number       1
_space_group_crystal_system       triclinic
_cell_length_a                    11.646845
_cell_length_b                    11.008135
_cell_length_c                    9.974482
_cell_angle_alpha                 109.674797
_cell_angle_beta                  97.134044
_cell_angle_gamma                 94.08254
_cell_volume                      1186.07510436

loop_
_atom_site_label
_atom_site_type_symbol
_atom_type_description
_atom_site_fract_x
_atom_site_fract_y
_atom_site_fract_z
_atom_type_partial_charge
C1    C     C_R   0.496530 0.255111 0.442831 0.578681
C2    C     C_2   0.561276 0.874940 0.573453 -0.080333
C3    C     C_2   0.545892 0.077459 0.523698 0.237160
C4    C     C_2   0.492942 0.956635 0.540655 0.193807
C5    C     C_2   0.523869 0.496958 0.074440 0.084540
C6    C     C_2   0.492791 0.481103 0.918420 0.115129
C7    C     C_3   0.305788 0.883199 0.415669 -0.015878
C8    C     C_3   0.199460 0.804081 0.431671 -0.354547
C9    C     C_3   0.681644 0.138925 0.742814 -0.012854
C10   C     C_3   0.738925 0.267872 0.852980 -0.365614
C11   C     C_3   0.389357 0.379339 0.831423 -0.201945
C12   C     C_R   0.514737 0.744300 0.556336 0.582296
C13   C     C_3   0.401857 0.241437 0.832752 -0.319427
C14   C     C_3   0.283219 0.163232 0.811722 -0.433927
C15   C     C_3   0.649196 0.548787 0.152100 -0.212822
C16   C     C_3   0.742390 0.614532 0.093000 -0.361001
C17   C     C_3   0.862546 0.631637 0.183398 -0.459880
C18   C     C_R   0.284563 0.497771 0.500863 0.536408
C19   C     C_R   0.715287 0.500060 0.498699 0.550261
C20   C     C_1   0.162744 0.496561 0.502659 -0.041309
C21   C     C_1   0.836782 0.498438 0.496284 -0.027007
C22   C     C_1   0.059817 0.496532 0.500894 -0.054881
C23   C     C_1   0.939572 0.497328 0.497611 -0.052755
C24   C     C_2   0.491898 0.116210 0.419984 -0.066685
Cu1   Cu    Cu3+1 0.519790 0.521810 0.644910 0.926158
Cu2   Cu    Cu3+1 0.480210 0.478190 0.355090 0.891516
H1    H     H_    0.654149 0.888483 0.572319 0.033922
H2    H     H_    0.748414 0.070539 0.729576 0.133011
H3    H     H_    0.608764 0.104403 0.788040 0.120171
H4    H     H_    0.674802 0.338691 0.868476 0.178337
H5    H     H_    0.768472 0.256075 0.957633 0.087374
H6    H     H_    0.815028 0.304988 0.814866 0.164399
H7    H     H_    0.235628 0.209776 0.901942 0.135947
H8    H     H_    0.230432 0.156379 0.708122 0.165666
H9    H     H_    0.295460 0.063523 0.809606 0.190143
H10   H     H_    0.446234 0.191378 0.742446 0.211663
H11   H     H_    0.455331 0.240429 0.932253 0.169016
H12   H     H_    0.430495 0.050278 0.330186 0.025730
H13   H     H_    0.309320 0.414222 0.873757 0.100529
H14   H     H_    0.369973 0.367804 0.718764 0.213444
H15   H     H_    0.860808 0.690252 0.298024 0.154847
H16   H     H_    0.890313 0.535554 0.176774 0.157241
H17   H     H_    0.927622 0.682732 0.142102 0.147629
H18   H     H_    0.749772 0.555630 0.980558 0.184729
H19   H     H_    0.722457 0.713681 0.100884 0.150421
H20   H     H_    0.642723 0.623139 0.257349 0.198956
H21   H     H_    0.687068 0.461065 0.159172 0.184420
H22   H     H_    0.580289 0.647464 0.929499 0.205665
H23   H     H_    0.365354 0.415627 0.088721 0.216297
H24   H     H_    0.352179 0.817621 0.334020 0.144539
H25   H     H_    0.273356 0.959010 0.375599 0.126301
H26   H     H_    0.145306 0.869079 0.501629 0.143714
H27   H     H_    0.146273 0.751075 0.324353 0.094698
H28   H     H_    0.227843 0.733333 0.481735 0.177794
N1    N     N_2   0.450460 0.445430 0.137370 -0.366452
N2    N     N_2   0.549540 0.554570 0.862630 -0.365061
O1    O     O_R   0.510560 0.332330 0.577400 -0.470670
O2    O     O_3   0.646620 0.156616 0.610241 -0.551252
O3    O     O_R   0.489440 0.667670 0.422600 -0.514853
O4    O     O_R   0.477140 0.295500 0.332650 -0.493784
O5    O     O_R   0.522860 0.704500 0.667350 -0.490028
O6    O     O_R   0.353910 0.518430 0.622380 -0.514347
O7    O     O_R   0.646090 0.481570 0.377620 -0.528975
O8    O     O_R   0.320490 0.481600 0.377630 -0.492972
O9    O     O_R   0.679510 0.518400 0.622370 -0.475465
O10   O     O_3   0.375381 0.942874 0.552465 -0.587838

loop_
_geom_bond_atom_site_label_1
_geom_bond_atom_site_label_2
_ccdc_geom_bond_type
C16   H19   S    
C14   H8    S    
C24   H12   S    
Cu2   O7    S    
C17   H17   S    
C2    H1    S    
C1    O1    A    
C9    C10   S    
C10   H4    S    
C2    C4    D    
Cu1   N2    S    
C9    H3    S    
C2    C12   S    
Cu2   N1    S    
C14   H7    S    
C8    H27   S    
C7    H25   S    
C7    C8    S    
Cu1   O5    S    
C13   C14   S    
C6    N2    D    
C7    O10   S    
C11   H13   S    
C12   O5    A    
C11   C13   S    
C18   O8    A    
C3    C24   D    
C11   H14   S    
Cu1   O1    S    
C13   H10   S    
C7    H24   S    
C19   C21   S    
C20   C22   T    
C19   O9    A    
C18   C20   S    
Cu1   O6    S    
C21   C23   T    
C5    C6    S    
C17   H15   S    
C5    C15   S    
C3    C4    S    
C3    O2    S    
C10   H6    S    
C8    H26   S    
C14   H9    S    
Cu1   O9    S    
C4    O10   S    
C1    C24   S    
Cu2   O4    S    
C9    O2    S    
Cu2   O3    S    
C1    O4    A    
C8    H28   S    
C6    C11   S    
H22   N2    S    
C16   H18   S    
C15   H21   S    
C18   O6    A    
Cu2   O8    S    
C15   H20   S    
Cu1   Cu2   S    
C17   H16   S    
C12   O3    A    
C13   H11   S    
C10   H5    S    
C5    N1    D    
C22   C23   S    
C15   C16   S    
C9    H2    S    
C19   O7    A    
C16   C17   S    
H23   N1    S    
