data_mof_unit_19103.cif
_audit_creation_date              2012-12-10T19:16:29-0500
_audit_creation_method            fapswitch 2.2
_symmetry_space_group_name_H-M    P1
_symmetry_Int_Tables_number       1
_space_group_crystal_system       triclinic
_cell_length_a                    10.721966
_cell_length_b                    9.891098
_cell_length_c                    27.074276
_cell_angle_alpha                 89.63464
_cell_angle_beta                  90.10796
_cell_angle_gamma                 89.845523
_cell_volume                      2871.20756072

loop_
_atom_site_label
_atom_site_type_symbol
_atom_type_description
_atom_site_fract_x
_atom_site_fract_y
_atom_site_fract_z
_atom_type_partial_charge
C1    C     C_R   0.258199 0.499621 0.504572 0.827864
C2    C     C_R   0.254239 0.538882 0.974764 0.059642
C3    C     C_R   0.367276 0.320813 0.979456 -0.000745
C4    C     C_R   0.499593 0.500264 0.405860 0.956955
C5    C     C_R   0.318401 0.430953 0.951375 0.033213
C6    C     C_R   0.197181 0.639380 0.945036 -0.220488
C7    C     C_R   0.212812 0.640831 0.894154 -0.140408
C8    C     C_R   0.286637 0.542890 0.871351 -0.016922
C9    C     C_R   0.338134 0.436585 0.899748 -0.056185
C10   C     C_R   0.412450 0.338417 0.876631 -0.065596
C11   C     C_R   0.438061 0.351055 0.826140 0.554080
C12   C     C_R   0.296782 0.483773 0.294944 -0.094358
C13   C     C_R   0.312069 0.549804 0.820688 0.529559
C14   C     C_R   0.498285 0.573713 0.731845 0.189720
C15   C     C_R   0.528841 0.584828 0.681303 0.068259
C16   C     C_R   0.741313 0.499862 0.502876 0.898875
C17   C     C_R   0.401064 0.386673 0.664935 -0.343296
C18   C     C_R   0.372152 0.373847 0.714666 0.232143
C19   C     C_R   0.418839 0.468877 0.748116 0.225705
C20   C     C_R   0.253969 0.545637 0.026968 0.046780
C21   C     C_R   0.296252 0.432507 0.054637 0.067969
C22   C     C_R   0.340082 0.314802 0.030701 0.038716
C23   C     C_R   0.383304 0.478519 0.256710 0.243879
C24   C     C_R   0.218338 0.663841 0.052556 -0.222457
C25   C     C_R   0.357510 0.201581 0.110581 -0.146761
C26   C     C_R   0.447903 0.226474 0.955592 0.185921
C27   C     C_R   0.465716 0.234312 0.904607 -0.204784
C28   C     C_R   0.498766 0.499027 0.594321 0.901358
C29   C     C_R   0.356476 0.196241 0.059309 -0.183030
C30   C     C_3   0.067632 0.574315 0.556693 0.317023
C31   C     C_3   0.066637 0.346677 0.508943 0.372447
C32   C     C_3   0.922194 0.587016 0.550489 -0.393968
C33   C     C_3   0.925450 0.355046 0.516249 -0.399230
C34   C     C_R   0.299641 0.438500 0.106759 -0.050839
C35   C     C_3   0.069550 0.574672 0.462590 -0.415734
C36   C     C_3   0.119894 0.497976 0.509009 -0.049657
C37   C     C_3   0.877024 0.499867 0.506617 0.004300
C38   C     C_3   0.929175 0.556939 0.457862 -0.386198
C39   C     C_3   0.398356 0.080715 0.467128 0.101459
C40   C     C_3   0.386946 0.922536 0.474037 0.109789
C41   C     C_3   0.621702 0.079437 0.481409 0.109803
C42   C     C_3   0.615484 0.919445 0.476097 0.086901
C43   C     C_3   0.481456 0.079360 0.549388 -0.415704
C44   C     C_3   0.496652 0.919050 0.549918 -0.368387
C45   C     C_R   0.270668 0.559884 0.131058 -0.025475
C46   C     C_R   0.292174 0.568960 0.181962 0.504301
C47   C     C_R   0.356680 0.337869 0.185272 0.558458
C48   C     C_R   0.512374 0.485892 0.266659 0.220324
C49   C     C_R   0.553922 0.495906 0.315926 0.082873
C50   C     C_R   0.337660 0.493804 0.343281 -0.177834
C51   C     C_3   0.627181 0.608057 0.204235 -0.710011
C52   C     C_3   0.634854 0.194122 0.003925 -0.750797
C53   C     C_3   0.169619 0.286705 0.737661 -0.773839
C54   C     C_3   0.045492 0.537087 0.648405 -0.701195
C55   C     C_3   0.082090 0.122002 0.552644 -0.734471
C56   C     C_R   0.227786 0.671011 0.103706 -0.138110
C57   C     C_3   0.658633 0.621653 0.792112 -0.724940
C58   C     C_R   0.337129 0.324518 0.134470 -0.034969
C59   C     C_R   0.465157 0.499730 0.354015 -0.082648
C60   C     C_R   0.476951 0.492321 0.647689 -0.122231
H1    H     H_    0.269690 0.493932 0.372694 0.163841
H2    H     H_    0.880672 0.279536 0.492455 0.213633
H3    H     H_    0.089480 0.684289 0.465564 0.240224
H4    H     H_    0.114989 0.540585 0.428087 0.203262
H5    H     H_    0.886021 0.656339 0.448446 0.219044
H6    H     H_    0.907821 0.486507 0.427198 0.237981
H7    H     H_    0.309841 0.125699 0.479709 0.142074
H8    H     H_    0.306531 0.908276 0.499126 0.127111
H9    H     H_    0.549547 0.124057 0.575609 0.206319
H10   H     H_    0.583646 0.891798 0.569991 0.206163
H11   H     H_    0.387480 0.107092 0.563513 0.180461
H12   H     H_    0.378086 0.110077 0.131276 0.197377
H13   H     H_    0.419512 0.873001 0.571515 0.229590
H14   H     H_    0.693101 0.099946 0.510387 0.089952
H15   H     H_    0.697328 0.877723 0.496493 0.113740
H16   H     H_    0.204455 0.765421 0.121590 0.191322
H17   H     H_    0.169313 0.721353 0.872909 0.189128
H18   H     H_    0.138865 0.717797 0.960192 0.142679
H19   H     H_    0.189831 0.755397 0.033831 0.142087
H20   H     H_    0.676766 0.421215 0.233844 0.267900
H21   H     H_    0.689014 0.592193 0.171927 0.236521
H22   H     H_    0.675638 0.674320 0.231091 0.269856
H23   H     H_    0.362328 0.313669 0.639477 0.166318
H24   H     H_    0.540743 0.658887 0.191129 0.257865
H25   H     H_    0.544159 0.045705 0.964095 0.226020
H26   H     H_    0.684997 0.117354 0.026587 0.242053
H27   H     H_    0.609466 0.279947 0.028227 0.257684
H28   H     H_    0.698076 0.230600 0.974233 0.238550
H29   H     H_    0.317985 0.173489 0.712102 0.248443
H30   H     H_    0.126630 0.200498 0.757737 0.255827
H31   H     H_    0.123983 0.296218 0.700964 0.243456
H32   H     H_    0.153510 0.379896 0.759428 0.255122
H33   H     H_    0.196526 0.484062 0.604696 0.214777
H34   H     H_    0.527686 0.161930 0.887362 0.191605
H35   H     H_    0.116330 0.532868 0.678367 0.250658
H36   H     H_    0.969669 0.464994 0.657484 0.238007
H37   H     H_    0.006593 0.641171 0.647561 0.277859
H38   H     H_    0.207220 0.279545 0.561595 0.230523
H39   H     H_    0.106878 0.082978 0.589927 0.257837
H40   H     H_    0.132474 0.062071 0.524626 0.259082
H41   H     H_    0.980325 0.108270 0.547433 0.252347
H42   H     H_    0.552531 0.765152 0.754376 0.272115
H43   H     H_    0.685675 0.697374 0.820241 0.239160
H44   H     H_    0.736517 0.610004 0.765457 0.259518
H45   H     H_    0.368760 0.098263 0.042647 0.176109
H46   H     H_    0.642420 0.523809 0.811261 0.250369
H47   H     H_    0.871120 0.555669 0.584273 0.185856
H48   H     H_    0.898927 0.325855 0.554675 0.184447
H49   H     H_    0.197879 0.477127 0.287172 0.177002
H50   H     H_    0.894992 0.693973 0.543397 0.206122
I1    I     I_    0.139538 0.776488 0.566676 -0.500504
I2    I     I_    0.094210 0.248495 0.437366 -0.351065
I3    I     I_    0.400685 0.136649 0.388509 -0.125351
I4    I     I_    0.301081 0.816547 0.412539 -0.229689
I5    I     I_    0.716563 0.180930 0.419984 -0.207200
I6    I     I_    0.655945 0.845774 0.402368 -0.183026
I7    I     I_    0.666790 0.727024 0.658006 -0.461520
I8    I     I_    0.748045 0.506067 0.332462 -0.318003
N1    N     N_R   0.340204 0.460628 0.207240 -0.342481
N2    N     N_2   0.546826 0.666731 0.766870 -0.282734
N3    N     N_R   0.388670 0.456146 0.799454 -0.327800
N4    N     N_3   0.499750 0.138610 0.498940 -0.111638
N5    N     N_3   0.499750 0.861390 0.498940 -0.106577
N6    N     N_2   0.598532 0.478979 0.226818 -0.305433
N7    N     N_2   0.524382 0.134049 0.982622 -0.325711
N8    N     N_2   0.301394 0.261095 0.731544 -0.272697
N9    N     N_2   0.101718 0.499624 0.601572 -0.303990
N10   N     N_2   0.118152 0.262653 0.549107 -0.315822
O1    O     O_R   0.314910 0.616040 0.499990 -0.578945
O2    O     O_2   0.261597 0.649638 0.792847 -0.565207
O3    O     O_2   0.395642 0.230648 0.212318 -0.520449
O4    O     O_2   0.513805 0.260717 0.803963 -0.561285
O5    O     O_R   0.314910 0.383960 0.499990 -0.629956
O6    O     O_R   0.500140 0.616020 0.428740 -0.561593
O7    O     O_R   0.500140 0.383980 0.428740 -0.560032
O8    O     O_R   0.685320 0.616040 0.499970 -0.622115
O9    O     O_R   0.685320 0.383960 0.499970 -0.616582
O10   O     O_R   0.500090 0.616050 0.571230 -0.589892
O11   O     O_R   0.500090 0.383950 0.571230 -0.643693
O12   O     O_2   0.270051 0.686178 0.205680 -0.534339
Zn1   Zn    Zn3+2 0.500150 0.654960 0.499980 0.991071
Zn2   Zn    Zn3+2 0.500150 0.345040 0.499980 0.962216

loop_
_geom_bond_atom_site_label_1
_geom_bond_atom_site_label_2
_ccdc_geom_bond_type
C10   C27   A    
O9    Zn2   S    
C8    C13   A    
C56   H16   S    
C22   C29   A    
C15   C60   A    
H25   N7    S    
C16   O9    A    
C11   O4    S    
C7    C8    A    
C11   N3    A    
C45   C46   A    
C33   H48   S    
C12   C23   A    
C42   H15   S    
C37   C38   S    
C39   N4    S    
C32   H50   S    
C50   C59   A    
C4    O6    A    
C1    O1    A    
C23   N1    S    
O11   Zn2   S    
C6    H18   S    
O1    Zn1   S    
C18   C19   A    
C41   C42   S    
C57   H44   S    
C41   H14   S    
O7    Zn2   S    
C40   I4    S    
C20   C24   A    
C45   C56   A    
C33   H2    S    
C39   I3    S    
C32   H47   S    
C55   H40   S    
C53   H31   S    
C31   I2    S    
C31   C33   S    
C54   H37   S    
C44   H10   S    
C35   H4    S    
C9    C10   A    
C51   H21   S    
C54   H36   S    
C16   C37   S    
C7    H17   S    
H38   N10   S    
C57   H46   S    
C43   H9    S    
C21   C22   A    
C51   N6    S    
C29   H45   S    
C2    C6    A    
C28   O11   A    
C31   N10   S    
C41   I5    S    
C1    O5    A    
C12   H49   S    
C42   N5    S    
H29   N8    S    
C28   C60   S    
C25   C29   A    
C57   H43   S    
C2    C20   A    
C38   H6    S    
C52   H28   S    
C35   C38   S    
C28   O10   A    
C53   N8    S    
C39   C40   S    
C25   H12   S    
C8    C9    A    
C21   C34   A    
C3    C22   A    
C33   C37   S    
C15   I7    S    
C47   O3    S    
C17   H23   S    
C26   N7    S    
C41   N4    S    
C43   C44   S    
H33   N9    S    
C5    C9    A    
O8    Zn1   S    
C13   N3    A    
C24   H19   S    
C49   I8    S    
C43   N4    S    
C38   H5    S    
C13   O2    S    
N5    Zn1   S    
C53   H32   S    
C17   C18   A    
O5    Zn2   S    
C34   C45   A    
C32   C37   S    
C55   N10   S    
C51   H22   S    
C54   H35   S    
C4    O7    A    
C42   I6    S    
C48   C49   A    
C14   N2    S    
C57   N2    S    
C26   C27   A    
C2    C5    A    
C25   C58   A    
N4    Zn2   S    
C16   O8    A    
H42   N2    S    
C46   O12   S    
H20   N6    S    
C40   N5    S    
C30   N9    S    
C19   N3    S    
C43   H11   S    
C23   C48   A    
C31   C36   S    
C39   H7    S    
C14   C19   A    
C52   H27   S    
C3    C5    A    
O10   Zn1   S    
C48   N6    S    
C12   C50   A    
C52   N7    S    
C6    C7    A    
C24   C56   A    
C3    C26   A    
C54   N9    S    
C55   H41   S    
C44   N5    S    
C49   C59   A    
C30   C36   S    
C30   I1    S    
C52   H26   S    
C18   N8    S    
C47   C58   A    
C30   C32   S    
C4    C59   S    
C47   N1    A    
C46   N1    A    
C44   H13   S    
C10   C11   A    
C17   C60   A    
C20   C21   A    
C40   H8    S    
C55   H39   S    
C53   H30   S    
C34   C58   A    
C50   H1    S    
C14   C15   A    
C27   H34   S    
C35   H3    S    
C35   C36   S    
C51   H24   S    
C1    C36   S    
O6    Zn1   S    
