data_mof_unit_16067.cif
_audit_creation_date              2012-12-11T14:17:58-0500
_audit_creation_method            fapswitch 2.2
_symmetry_space_group_name_H-M    P1
_symmetry_Int_Tables_number       1
_space_group_crystal_system       triclinic
_cell_length_a                    11.042564
_cell_length_b                    11.100875
_cell_length_c                    18.858315
_cell_angle_alpha                 89.877993
_cell_angle_beta                  90.016794
_cell_angle_gamma                 119.999969
_cell_volume                      2001.97953392

loop_
_atom_site_label
_atom_site_type_symbol
_atom_type_description
_atom_site_fract_x
_atom_site_fract_y
_atom_site_fract_z
_atom_type_partial_charge
C1    C     C_R   0.521184 0.459269 0.147210 0.582058
C2    C     C_R   0.938736 0.392215 0.545089 0.390417
C3    C     C_R   0.443609 0.024053 0.542581 0.397813
C4    C     C_R   0.606408 0.539169 0.545222 0.419286
C5    C     C_R   0.669189 0.861894 0.533466 0.410531
C6    C     C_R   0.073222 0.774976 0.545872 0.477385
C7    C     C_R   0.220537 0.293975 0.547976 0.463388
C8    C     C_R   0.142520 0.740175 0.408558 0.351915
C9    C     C_R   0.586558 0.840721 0.392849 0.365835
C10   C     C_R   0.255024 0.394677 0.409923 0.354572
C11   C     C_R   0.743458 0.841017 0.479715 0.487840
C12   C     C_R   0.540575 0.062075 0.147156 0.584898
C13   C     C_R   0.128129 0.885070 0.497754 0.490054
C14   C     C_R   0.108911 0.236671 0.500243 0.482476
C15   C     C_R   0.161984 0.867958 0.429283 0.395771
C16   C     C_R   0.699064 0.824422 0.410035 0.406956
C17   C     C_R   0.126234 0.286977 0.431461 0.397572
C18   C     C_R   0.521223 0.455253 0.354524 0.697394
C19   C     C_R   0.542812 0.062913 0.353384 0.705546
C20   C     C_R   0.933868 0.477854 0.354556 0.704780
C21   C     C_R   0.453104 0.516140 0.645697 0.566639
C22   C     C_R   0.063525 0.547125 0.645548 0.562637
C23   C     C_R   0.937825 0.478626 0.147175 0.579749
C24   C     C_R   0.458525 0.881217 0.638065 0.526799
C25   C     C_R   0.492799 0.969882 0.929395 -0.023697
C26   C     C_R   0.029890 0.522939 0.929358 -0.023960
C27   C     C_R   0.477240 0.507233 0.929431 -0.024143
C28   C     C_R   0.000395 0.491631 0.076731 -0.008225
C29   C     C_R   0.490979 0.999776 0.076750 -0.007995
C30   C     C_R   0.508079 0.508972 0.076831 -0.007701
C31   C     C_R   0.425428 0.037813 0.957982 -0.107785
C32   C     C_R   0.961825 0.388053 0.958242 -0.107008
C33   C     C_R   0.612707 0.575323 0.958312 -0.107810
C34   C     C_R   0.452937 0.521318 0.854534 0.566223
C35   C     C_R   0.960803 0.372556 0.032749 -0.107242
C36   C     C_R   0.411226 0.039410 0.032497 -0.108278
C37   C     C_R   0.627811 0.589449 0.032823 -0.108439
C38   C     C_R   0.546704 0.923254 0.047807 0.418624
C39   C     C_R   0.076702 0.623547 0.047471 0.415643
C40   C     C_R   0.375582 0.452540 0.047613 0.416853
C41   C     C_R   0.093996 0.639111 0.974916 0.401633
C42   C     C_R   0.545094 0.905905 0.975254 0.403482
C43   C     C_R   0.360201 0.454050 0.975024 0.402716
C44   C     C_R   0.362052 0.093835 0.913983 -0.090101
C45   C     C_R   0.068545 0.547289 0.854514 0.566801
C46   C     C_R   0.905423 0.268890 0.914525 -0.090098
C47   C     C_R   0.732768 0.639354 0.914607 -0.090764
C48   C     C_R   0.927100 0.240260 0.059712 -0.012956
C49   C     C_R   0.312600 0.073775 0.059246 -0.014896
C50   C     C_R   0.760372 0.688514 0.059812 -0.012600
C51   C     C_R   0.267211 0.128364 0.941874 0.472720
C52   C     C_R   0.871464 0.140203 0.942620 0.470984
C53   C     C_R   0.861793 0.734488 0.942733 0.472820
C54   C     C_R   0.883645 0.126505 0.014999 0.501548
C55   C     C_R   0.241739 0.116932 0.014287 0.501684
C56   C     C_R   0.478732 0.931472 0.854568 0.573708
C57   C     C_R   0.874953 0.759768 0.015125 0.503395
C58   C     C_R   0.487128 0.931689 0.565020 -0.029465
C59   C     C_R   0.011000 0.525745 0.572699 0.003859
C60   C     C_R   0.472860 0.482234 0.573137 0.000411
C61   C     C_R   0.986603 0.490374 0.426240 0.027082
C62   C     C_R   0.497987 0.997057 0.421887 0.030413
C63   C     C_R   0.507234 0.491027 0.426733 -0.008252
C64   C     C_R   0.560966 0.892139 0.516069 -0.190271
C65   C     C_R   0.054185 0.642896 0.525972 -0.171119
C66   C     C_R   0.353926 0.406573 0.527095 -0.166938
C67   C     C_R   0.458873 0.064118 0.472407 0.398219
C68   C     C_R   0.069526 0.623791 0.453712 -0.181427
C69   C     C_R   0.538578 0.901543 0.443190 -0.172363
C70   C     C_R   0.372672 0.439057 0.454568 -0.181970
C71   C     C_R   0.915350 0.375370 0.472663 0.393083
C72   C     C_R   0.622366 0.532169 0.472763 0.372101
Cr1   Cr    Cr6+3 0.768550 0.541320 0.250660 1.226984
Cr2   Cr    Cr6+3 0.458680 0.227230 0.250660 1.222152
Cr3   Cr    Cr6+3 0.772770 0.231450 0.250660 1.224169
Cr4   Cr    Cr6+3 0.541320 0.768550 0.749340 1.240090
Cr5   Cr    Cr6+3 0.227230 0.458680 0.749340 1.211397
Cr6   Cr    Cr6+3 0.231450 0.772770 0.749340 1.224778
F1    F     F_    0.601500 0.863735 0.090368 -0.530740
F2    F     F_    0.858174 0.003474 0.042290 -0.492852
F3    F     F_    0.144083 0.142951 0.041420 -0.493624
F4    F     F_    0.998354 0.857201 0.042510 -0.493846
F5    F     F_    0.437045 0.170172 0.454098 -0.557396
F6    F     F_    0.820685 0.247217 0.448453 -0.549770
F7    F     F_    0.750758 0.566593 0.447739 -0.569749
F8    F     F_    0.881957 0.279516 0.588650 -0.509942
F9    F     F_    0.397436 0.084991 0.589445 -0.497041
F10   F     F_    0.719926 0.594438 0.588350 -0.492830
F11   F     F_    0.722734 0.872080 0.598962 -0.449073
F12   F     F_    0.136222 0.737732 0.089715 -0.533321
F13   F     F_    0.013267 0.792969 0.604733 -0.413584
F14   F     F_    0.202725 0.218602 0.607811 -0.428413
F15   F     F_    0.182816 0.727117 0.342248 -0.524110
F16   F     F_    0.539200 0.817548 0.324892 -0.516045
F17   F     F_    0.267374 0.446962 0.343379 -0.527158
F18   F     F_    0.856447 0.830548 0.496186 -0.446375
F19   F     F_    0.144648 0.008702 0.517462 -0.436563
F20   F     F_    0.984361 0.127283 0.520240 -0.420061
F21   F     F_    0.206048 0.973308 0.381670 -0.501989
F22   F     F_    0.769280 0.798941 0.358767 -0.499696
F23   F     F_    0.260667 0.397118 0.089948 -0.535038
F24   F     F_    0.020896 0.224317 0.383824 -0.494585
F25   F     F_    0.176233 0.769313 0.949308 -0.552621
F26   F     F_    0.593560 0.823939 0.949908 -0.553130
F27   F     F_    0.229312 0.404656 0.949406 -0.551698
F28   F     F_    0.193332 0.164183 0.897833 -0.497014
F29   F     F_    0.835607 0.030918 0.898774 -0.499024
F30   F     F_    0.971956 0.808575 0.898918 -0.497794
H1    H     H_    0.380163 0.105649 0.857410 0.167237
H2    H     H_    0.893026 0.274933 0.857990 0.164697
H3    H     H_    0.727192 0.621362 0.858077 0.165021
H4    H     H_    0.945604 0.223880 0.114045 0.233882
H5    H     H_    0.278092 0.056115 0.113646 0.233156
H6    H     H_    0.776279 0.722679 0.114188 0.235057
O1    O     O_R   0.910960 0.572410 0.171010 -0.454962
O2    O     O_R   0.528530 0.639750 0.824400 -0.466990
O3    O     O_R   0.111220 0.471470 0.824400 -0.462817
O4    O     O_R   0.360250 0.888780 0.824400 -0.461634
O5    O     O_R   0.909330 0.572400 0.331540 -0.395879
O6    O     O_R   0.427600 0.336930 0.331540 -0.402343
O7    O     O_R   0.663070 0.090670 0.331540 -0.405935
O8    O     O_R   0.572400 0.909330 0.668460 -0.378130
O9    O     O_R   0.336930 0.427600 0.668460 -0.448612
O10   O     O_R   0.090670 0.663070 0.668460 -0.447938
O11   O     O_R   0.638240 0.528520 0.324410 -0.410374
O12   O     O_R   0.427590 0.338550 0.171010 -0.457739
O13   O     O_R   0.471480 0.109720 0.324410 -0.410397
O14   O     O_R   0.890280 0.361760 0.324410 -0.412376
O15   O     O_R   0.528520 0.638240 0.675590 -0.458041
O16   O     O_R   0.109720 0.471480 0.675590 -0.482046
O17   O     O_R   0.361760 0.890280 0.675590 -0.440678
O18   O     O_3   0.666667 0.333333 0.250630 -0.376819
O19   O     O_3   0.333333 0.666667 0.749370 -0.382190
O20   O     O_R   0.661450 0.089040 0.171010 -0.453768
O21   O     O_R   0.572410 0.910960 0.828990 -0.404054
O22   O     O_R   0.338550 0.427590 0.828990 -0.402604
O23   O     O_R   0.089040 0.661450 0.828990 -0.405402
O24   O     O_R   0.639750 0.528530 0.175600 -0.538025
O25   O     O_R   0.471470 0.111220 0.175600 -0.542218
O26   O     O_R   0.888780 0.360250 0.175600 -0.542376

loop_
_geom_bond_atom_site_label_1
_geom_bond_atom_site_label_2
_ccdc_geom_bond_type
C11   F18   S    
C25   C31   A    
C49   H5    S    
C26   C32   A    
Cr1   O5    S    
Cr2   O18   S    
C12   C29   S    
C53   F30   S    
C25   C56   S    
Cr6   O17   S    
C72   F7    S    
Cr3   O20   S    
C39   C41   A    
Cr2   O12   S    
C27   C33   A    
C67   F5    S    
C29   C36   A    
C62   C67   A    
Cr6   O4    S    
C9    C16   A    
C9    C69   A    
C20   O14   A    
Cr5   O3    S    
Cr3   O26   S    
C31   C36   A    
C18   O11   A    
C47   H3    S    
C18   C63   S    
C38   F1    S    
C19   C62   S    
C34   O2    A    
C6    F13   S    
C46   C52   A    
Cr3   O14   S    
C43   F27   S    
C20   C61   S    
C26   C45   S    
C40   F23   S    
C7    C14   A    
C52   F29   S    
C29   C38   A    
Cr5   O22   S    
C55   F3    S    
Cr6   O10   S    
C39   F12   S    
C47   C53   A    
C44   H1    S    
C61   C71   A    
Cr1   O18   S    
C60   C66   A    
C12   O20   A    
C22   O16   A    
C14   C17   A    
Cr5   O19   S    
C35   C48   A    
C24   O8    A    
Cr4   O21   S    
C52   C54   A    
C14   F20   S    
C54   F2    S    
C6    C65   A    
C27   C34   S    
C58   C64   A    
C31   C44   A    
C3    F9    S    
C32   C35   A    
C23   O26   A    
C1    O12   A    
C28   C35   A    
C21   C60   S    
C22   C59   S    
C53   C57   A    
C2    C59   A    
C16   F22   S    
C28   C39   A    
C49   C55   A    
C33   C37   A    
C41   F25   S    
C30   C37   A    
C50   H6    S    
C21   O9    A    
C48   C54   A    
C17   F24   S    
C3    C58   A    
Cr5   O9    S    
Cr4   O15   S    
Cr2   O13   S    
C63   C70   A    
C34   O22   A    
C65   C68   A    
C4    C60   A    
C45   O23   A    
C12   O25   A    
C30   C40   A    
C23   C28   S    
C21   O15   A    
C10   C70   A    
C44   C51   A    
C48   H4    S    
C8    C68   A    
C8    C15   A    
C46   H2    S    
C5    C11   A    
C33   C47   A    
C2    C71   A    
Cr6   O23   S    
C18   O6    A    
C4    C72   A    
C56   O21   A    
Cr2   O6    S    
Cr3   O18   S    
C71   F6    S    
C45   O3    A    
C61   C68   A    
C19   O7    A    
Cr3   O7    S    
C50   C57   A    
C32   C46   A    
C3    C67   A    
C8    F15   S    
C15   F21   S    
C42   F26   S    
C25   C42   A    
Cr4   O19   S    
C22   O10   A    
C4    F10   S    
C64   C69   A    
Cr2   O25   S    
Cr1   O1    S    
C5    C64   A    
Cr4   O8    S    
C40   C43   A    
C13   C15   A    
C59   C65   A    
C7    C66   A    
C56   O4    A    
C37   C50   A    
C24   O17   A    
C66   C70   A    
C10   F17   S    
C51   F28   S    
Cr1   O11   S    
C7    F14   S    
C19   O13   A    
C1    C30   S    
Cr4   O2    S    
C2    F8    S    
C51   C55   A    
Cr5   O16   S    
C13   F19   S    
Cr6   O19   S    
C11   C16   A    
C1    O24   A    
C23   O1    A    
C38   C42   A    
C27   C43   A    
C63   C72   A    
C62   C69   A    
C24   C58   S    
Cr1   O24   S    
C57   F4    S    
C10   C17   A    
C9    F16   S    
C20   O5    A    
C5    F11   S    
C36   C49   A    
C26   C41   A    
C6    C13   A    
