data_mof_unit_7063.cif
_audit_creation_date              2012-12-11T14:52:43-0500
_audit_creation_method            fapswitch 2.2
_symmetry_space_group_name_H-M    P1
_symmetry_Int_Tables_number       1
_space_group_crystal_system       triclinic
_cell_length_a                    18.766278
_cell_length_b                    10.948499
_cell_length_c                    18.700508
_cell_angle_alpha                 90.176469
_cell_angle_beta                  91.847367
_cell_angle_gamma                 90.217553
_cell_volume                      3840.21014256

loop_
_atom_site_label
_atom_site_type_symbol
_atom_type_description
_atom_site_fract_x
_atom_site_fract_y
_atom_site_fract_z
_atom_type_partial_charge
C1    C     C_R   0.271669 0.044642 0.853112 0.541033
C2    C     C_R   0.682305 0.575451 0.029316 -0.142574
C3    C     C_3   0.996553 0.328773 0.073451 0.051898
C4    C     C_3   0.134234 0.738677 0.548827 -0.375348
C5    C     C_3   0.845206 0.800419 0.458541 -0.391035
C6    C     C_3   0.634240 0.238686 0.548828 -0.375358
C7    C     C_3   0.345207 0.300416 0.458542 -0.391033
C8    C     C_3   0.512541 0.064747 0.426641 -0.372979
C9    C     C_3   0.419231 0.018037 0.546163 -0.350034
C10   C     C_3   0.012528 0.564759 0.426629 -0.372961
C11   C     C_3   0.919260 0.518078 0.546185 -0.350051
C12   C     C_R   0.808518 0.045270 0.964491 -0.153245
C13   C     C_R   0.182304 0.075457 0.029315 -0.142578
C14   C     C_R   0.301922 0.533432 0.038111 -0.156921
C15   C     C_R   0.692605 0.543735 0.958032 -0.145393
C16   C     C_R   0.801922 0.033426 0.038111 -0.156919
C17   C     C_R   0.192604 0.043741 0.958031 -0.145381
C18   C     C_R   0.237265 0.562048 0.069296 0.030830
C19   C     C_R   0.748831 0.596574 0.920923 0.027650
C20   C     C_R   0.737266 0.062054 0.069297 0.030829
C21   C     C_R   0.725633 0.037909 0.144410 0.544833
C22   C     C_R   0.248832 0.096574 0.920923 0.027652
C23   C     C_R   0.178116 0.594996 0.025832 -0.142665
C24   C     C_R   0.790836 0.687921 0.954126 -0.130520
C25   C     C_R   0.678119 0.095018 0.025835 -0.142674
C26   C     C_R   0.290839 0.187914 0.954128 -0.130522
C27   C     C_R   0.184058 0.603730 0.952879 -0.138406
C28   C     C_R   0.781403 0.717588 0.025148 -0.138590
C29   C     C_R   0.684059 0.103747 0.952882 -0.138409
C30   C     C_R   0.281406 0.217582 0.025149 -0.138592
C31   C     C_R   0.250013 0.584812 0.922000 0.029230
C32   C     C_R   0.771669 0.544641 0.853112 0.541032
C33   C     C_R   0.728981 0.658600 0.064127 0.017308
C34   C     C_R   0.750013 0.084816 0.922001 0.029234
C35   C     C_R   0.228982 0.158600 0.064127 0.017298
C36   C     C_R   0.529682 0.731322 0.547614 -0.155407
C37   C     C_R   0.542929 0.727284 0.476077 -0.159089
C38   C     C_R   0.029690 0.231331 0.547617 -0.155402
C39   C     C_R   0.042937 0.227292 0.476081 -0.159092
C40   C     C_R   0.537505 0.832484 0.434493 0.036226
C41   C     C_R   0.497366 0.834279 0.575908 0.027822
C42   C     C_R   0.037508 0.332491 0.434495 0.036221
C43   C     C_R   0.225632 0.537908 0.144409 0.544834
C44   C     C_R   0.997373 0.334287 0.575910 0.027819
C45   C     C_R   0.511520 0.942337 0.464440 0.011608
C46   C     C_R   0.481011 0.935276 0.531318 -0.010731
C47   C     C_R   0.011525 0.442349 0.464441 0.011634
C48   C     C_R   0.981021 0.435291 0.531323 -0.010741
C49   C     C_R   0.438180 0.817185 0.861970 0.569129
C50   C     C_R   0.526769 0.821653 0.146081 0.551234
C51   C     C_R   0.938180 0.317185 0.861970 0.569130
C52   C     C_R   0.026767 0.321653 0.146082 0.551231
C53   C     C_R   0.206401 0.710625 0.518063 -0.005248
C54   C     C_3   0.510867 0.734332 0.973763 -0.107655
C55   C     C_R   0.784391 0.725794 0.485700 -0.021403
C56   C     C_R   0.706403 0.210625 0.518062 -0.005255
C57   C     C_R   0.284389 0.225796 0.485701 -0.021406
C58   C     C_R   0.207052 0.700096 0.444635 -0.102067
C59   C     C_R   0.783381 0.707406 0.558760 -0.108849
C60   C     C_R   0.707054 0.200099 0.444634 -0.102068
C61   C     C_R   0.283379 0.207408 0.558761 -0.108844
C62   C     C_R   0.257256 0.624963 0.412902 0.017486
C63   C     C_R   0.741686 0.614168 0.586126 0.015768
C64   C     C_R   0.757257 0.124964 0.412901 0.017483
C65   C     C_3   0.459040 0.721168 0.035476 -0.120067
C66   C     C_R   0.241685 0.114167 0.586126 0.015768
C67   C     C_R   0.321799 0.602505 0.449507 -0.150553
C68   C     C_R   0.689347 0.558093 0.543211 -0.147221
C69   C     C_R   0.821800 0.102506 0.449506 -0.150553
C70   C     C_R   0.189349 0.058085 0.543210 -0.147226
C71   C     C_R   0.327989 0.630083 0.522330 -0.154040
C72   C     C_R   0.687773 0.577431 0.470408 -0.155084
C73   C     C_R   0.827989 0.130082 0.522329 -0.154034
C74   C     C_R   0.187776 0.077423 0.470407 -0.155090
C75   C     C_R   0.268565 0.674735 0.558487 0.033514
C76   C     C_3   0.010841 0.234301 0.973771 -0.107657
C77   C     C_R   0.734376 0.661879 0.440630 0.037431
C78   C     C_R   0.768566 0.174734 0.558487 0.033518
C79   C     C_R   0.234376 0.161877 0.440630 0.037423
C80   C     C_R   0.260531 0.634587 0.851126 0.549730
C81   C     C_R   0.724971 0.685750 0.140654 0.565161
C82   C     C_R   0.760531 0.134587 0.851126 0.549731
C83   C     C_R   0.224972 0.185750 0.140654 0.565159
C84   C     C_R   0.268117 0.053485 0.650159 0.534807
C85   C     C_R   0.731800 0.054833 0.350054 0.538769
C86   C     C_R   0.768118 0.553484 0.650159 0.534813
C87   C     C_3   0.959013 0.221191 0.035485 -0.120078
C88   C     C_R   0.231800 0.554832 0.350054 0.538773
C89   C     C_R   0.468267 0.823683 0.646313 0.546401
C90   C     C_R   0.558841 0.821091 0.360952 0.546741
C91   C     C_R   0.968268 0.323685 0.646314 0.546407
C92   C     C_R   0.058841 0.321092 0.360952 0.546743
C93   C     C_R   0.273814 0.690811 0.636296 0.571761
C94   C     C_R   0.727138 0.687523 0.364312 0.556548
C95   C     C_R   0.773814 0.190810 0.636296 0.571766
C96   C     C_R   0.227138 0.187522 0.364312 0.556547
C97   C     C_3   0.445109 0.920691 0.038289 -0.124688
C98   C     C_R   0.308519 0.545275 0.964491 -0.153257
C99   C     C_3   0.496762 0.933686 0.975699 -0.109742
C100  C     C_3   0.945132 0.420722 0.038283 -0.124683
C101  C     C_3   0.996787 0.433662 0.975692 -0.109745
C102  C     C_3   0.406958 0.812646 0.998907 -0.139157
C103  C     C_3   0.548554 0.842184 0.012201 -0.115417
C104  C     C_3   0.906955 0.312698 0.998908 -0.139146
C105  C     C_3   0.048555 0.342131 0.012201 -0.115409
C106  C     C_3   0.459253 0.825391 0.937912 0.051342
C107  C     C_3   0.496555 0.828770 0.073450 0.051905
C108  C     C_3   0.959251 0.325388 0.937913 0.051340
Cr1   Cr    Cr6+3 0.229630 0.835900 0.747350 0.993461
Cr2   Cr    Cr6+3 0.614200 0.677120 0.250660 1.007434
Cr3   Cr    Cr6+3 0.885800 0.177120 0.749340 1.001852
Cr4   Cr    Cr6+3 0.114200 0.177120 0.250660 1.007435
Cr5   Cr    Cr6+3 0.770370 0.835900 0.252650 0.993737
Cr6   Cr    Cr6+3 0.729630 0.335900 0.747350 0.993463
Cr7   Cr    Cr6+3 0.270370 0.335900 0.252650 0.993738
Cr8   Cr    Cr6+3 0.387410 0.989850 0.750850 0.997972
Cr9   Cr    Cr6+3 0.612590 0.989850 0.249150 0.994676
Cr10  Cr    Cr6+3 0.887410 0.489850 0.750850 0.997962
Cr11  Cr    Cr6+3 0.112590 0.489850 0.249150 0.994672
Cr12  Cr    Cr6+3 0.385800 0.677120 0.749340 1.001851
H1    H     H_    0.348351 0.801346 0.991716 0.123310
H2    H     H_    0.650922 0.523792 0.437383 0.126732
H3    H     H_    0.877386 0.108872 0.551074 0.139072
H4    H     H_    0.150927 0.023780 0.437381 0.126734
H5    H     H_    0.418397 0.996528 0.066300 0.129888
H6    H     H_    0.512319 0.020575 0.949935 0.117474
H7    H     H_    0.918441 0.496585 0.066287 0.129883
H8    H     H_    0.012366 0.520530 0.949921 0.117473
H9    H     H_    0.538181 0.657915 0.946886 0.131551
H10   H     H_    0.444994 0.634281 0.061832 0.117680
H11   H     H_    0.038135 0.157857 0.946902 0.131542
H12   H     H_    0.607202 0.853747 0.018984 0.117945
H13   H     H_    0.944945 0.134328 0.061851 0.117688
H14   H     H_    0.360081 0.530240 0.941658 0.129127
H15   H     H_    0.640108 0.531087 0.057798 0.135911
H16   H     H_    0.860078 0.030225 0.941656 0.129121
H17   H     H_    0.140106 0.031097 0.057796 0.135914
H18   H     H_    0.347015 0.502603 0.070665 0.112513
H19   H     H_    0.659155 0.473535 0.933366 0.129890
H20   H     H_    0.847014 0.002584 0.070663 0.112503
H21   H     H_    0.159152 0.973547 0.933363 0.129890
H22   H     H_    0.137798 0.632511 0.921182 0.130352
H23   H     H_    0.848345 0.301435 0.991718 0.123307
H24   H     H_    0.817240 0.783356 0.050507 0.131333
H25   H     H_    0.637799 0.132537 0.921187 0.130358
H26   H     H_    0.317244 0.283348 0.050509 0.131338
H27   H     H_    0.538288 0.649321 0.578986 0.134359
H28   H     H_    0.557021 0.640912 0.453039 0.127635
H29   H     H_    0.038296 0.149329 0.578989 0.134359
H30   H     H_    0.057031 0.140919 0.453043 0.127636
H31   H     H_    0.094983 0.771147 0.507539 0.082830
H32   H     H_    0.112226 0.654238 0.572555 0.161802
H33   H     H_    0.136661 0.810602 0.589956 0.161887
H34   H     H_    0.107205 0.353656 0.018984 0.117944
H35   H     H_    0.876470 0.847265 0.502090 0.100915
H36   H     H_    0.882268 0.741479 0.429119 0.143635
H37   H     H_    0.824134 0.870043 0.422567 0.181249
H38   H     H_    0.594986 0.271145 0.507539 0.082834
H39   H     H_    0.612233 0.154254 0.572565 0.161809
H40   H     H_    0.636673 0.310618 0.589951 0.161892
H41   H     H_    0.376469 0.347266 0.502093 0.100917
H42   H     H_    0.382270 0.241470 0.429127 0.143631
H43   H     H_    0.324139 0.370037 0.422565 0.181251
H44   H     H_    0.365508 0.558918 0.423207 0.118633
H45   H     H_    0.160836 0.731671 0.413892 0.131159
H46   H     H_    0.652646 0.494392 0.565169 0.113889
H47   H     H_    0.865509 0.058920 0.423206 0.118634
H48   H     H_    0.152650 0.994377 0.565167 0.113896
H49   H     H_    0.126367 0.612060 0.047834 0.138228
H50   H     H_    0.833985 0.731554 0.926634 0.133862
H51   H     H_    0.626372 0.112094 0.047838 0.138228
H52   H     H_    0.333990 0.231542 0.926638 0.133865
H53   H     H_    0.566886 0.084892 0.409374 0.174774
H54   H     H_    0.473713 0.065290 0.380575 0.160494
H55   H     H_    0.499689 0.141870 0.462478 0.092138
H56   H     H_    0.822722 0.753344 0.593178 0.137075
H57   H     H_    0.374624 0.962343 0.565953 0.161739
H58   H     H_    0.436143 0.091511 0.584104 0.161110
H59   H     H_    0.396248 0.059178 0.496737 0.129533
H60   H     H_    0.066866 0.584912 0.409337 0.174790
H61   H     H_    0.973679 0.565290 0.380578 0.160479
H62   H     H_    0.999699 0.641892 0.462463 0.092118
H63   H     H_    0.874636 0.462397 0.565941 0.161745
H64   H     H_    0.936176 0.591489 0.584156 0.161139
H65   H     H_    0.896301 0.559302 0.496785 0.129505
H66   H     H_    0.660838 0.231674 0.413891 0.131162
H67   H     H_    0.322719 0.253349 0.593179 0.137074
H68   H     H_    0.377385 0.608873 0.551074 0.139072
O1    O     O_R   0.214270 0.709000 0.827470 -0.518636
O2    O     O_R   0.543270 0.717630 0.330160 -0.524227
O3    O     O_R   0.956730 0.217630 0.669840 -0.535495
O4    O     O_R   0.043270 0.217630 0.330160 -0.524225
O5    O     O_R   0.320620 0.625640 0.672920 -0.502374
O6    O     O_R   0.679380 0.625640 0.327080 -0.509901
O7    O     O_R   0.820620 0.125640 0.672920 -0.502374
O8    O     O_R   0.179380 0.125640 0.327080 -0.509901
O9    O     O_3   0.334280 0.834290 0.749180 -0.284454
O10   O     O_3   0.665720 0.834290 0.250820 -0.296326
O11   O     O_3   0.834280 0.334290 0.749180 -0.284450
O12   O     O_R   0.785730 0.709000 0.172530 -0.510514
O13   O     O_3   0.165720 0.334290 0.250820 -0.296325
O14   O     O_R   0.236160 0.958490 0.823130 -0.505848
O15   O     O_R   0.763840 0.958490 0.176870 -0.521818
O16   O     O_R   0.736160 0.458490 0.823130 -0.505849
O17   O     O_R   0.263840 0.458490 0.176870 -0.521817
O18   O     O_R   0.332080 0.075470 0.831280 -0.528319
O19   O     O_R   0.667920 0.075470 0.168720 -0.518560
O20   O     O_R   0.832080 0.575470 0.831280 -0.528315
O21   O     O_R   0.167920 0.575470 0.168720 -0.518558
O22   O     O_R   0.446300 0.918110 0.826620 -0.496280
O23   O     O_R   0.714270 0.209000 0.827470 -0.518638
O24   O     O_R   0.553700 0.918110 0.173380 -0.500051
O25   O     O_R   0.946300 0.418110 0.826620 -0.496280
O26   O     O_R   0.053700 0.418110 0.173380 -0.500053
O27   O     O_R   0.457110 0.716200 0.831760 -0.520362
O28   O     O_R   0.542890 0.716200 0.168240 -0.525478
O29   O     O_R   0.957110 0.216200 0.831760 -0.520362
O30   O     O_R   0.042890 0.216200 0.168240 -0.525475
O31   O     O_R   0.320980 0.624310 0.823030 -0.516125
O32   O     O_R   0.679020 0.624310 0.176970 -0.491130
O33   O     O_R   0.820980 0.124310 0.823030 -0.516126
O34   O     O_R   0.285730 0.209000 0.172530 -0.510516
O35   O     O_R   0.179020 0.124310 0.176970 -0.491128
O36   O     O_R   0.213890 0.710430 0.665540 -0.523654
O37   O     O_R   0.786110 0.710430 0.334460 -0.513028
O38   O     O_R   0.713890 0.210430 0.665540 -0.523657
O39   O     O_R   0.286110 0.210430 0.334460 -0.513028
O40   O     O_R   0.235810 0.959820 0.673020 -0.523461
O41   O     O_R   0.764190 0.959820 0.326980 -0.529504
O42   O     O_R   0.735810 0.459820 0.673020 -0.523458
O43   O     O_R   0.264190 0.459820 0.326980 -0.529502
O44   O     O_R   0.331700 0.076900 0.669350 -0.542271
O45   O     O_R   0.445950 0.919440 0.676520 -0.502490
O46   O     O_R   0.668300 0.076900 0.330650 -0.542981
O47   O     O_R   0.831700 0.576900 0.669350 -0.542281
O48   O     O_R   0.168300 0.576900 0.330650 -0.542990
O49   O     O_R   0.554050 0.919440 0.323480 -0.505686
O50   O     O_R   0.945950 0.419440 0.676520 -0.502506
O51   O     O_R   0.054050 0.419440 0.323480 -0.505688
O52   O     O_R   0.456730 0.717630 0.669840 -0.535500

loop_
_geom_bond_atom_site_label_1
_geom_bond_atom_site_label_2
_ccdc_geom_bond_type
Cr10  O50   S    
C58   C62   A    
C74   H4    S    
C92   O51   A    
Cr3   O3    S    
C76   C105  S    
C55   C59   A    
C4    C53   S    
C43   O17   A    
C100  H7    S    
C80   O1    A    
C57   C79   A    
Cr7   O34   S    
C99   C103  S    
Cr11  O13   S    
C61   H67   S    
C71   H68   S    
Cr10  O25   S    
C1    O14   A    
C27   H22   S    
C80   O31   A    
C6    H39   S    
C36   C41   A    
C8    H55   S    
C9    H57   S    
C31   C80   S    
C82   O33   A    
C16   H20   S    
C45   C46   A    
C3    C105  S    
Cr12  O27   S    
Cr7   O39   S    
C7    H41   S    
C39   H30   S    
C62   C67   A    
C65   C102  S    
Cr1   O14   S    
C13   C35   A    
C37   C40   A    
Cr12  O31   S    
C29   H25   S    
C38   C39   A    
C55   C77   A    
C76   H11   S    
C8    H54   S    
Cr2   O10   S    
C20   C25   A    
Cr10  O11   S    
C42   C92   S    
C77   C94   S    
C100  C104  S    
C101  H8    S    
C56   C78   A    
C84   O44   A    
C17   H21   S    
Cr3   O33   S    
C31   C98   A    
C89   O45   A    
C54   H9    S    
C58   H45   S    
C87   H13   S    
C8    C45   S    
Cr4   O8    S    
Cr8   O22   S    
C94   O37   A    
C97   C99   S    
C83   O34   A    
Cr1   O9    S    
C67   H44   S    
C14   H18   S    
Cr1   O1    S    
C51   C108  S    
C73   H3    S    
Cr8   O45   S    
C70   C74   A    
C60   H66   S    
C41   C46   A    
C14   C98   A    
C28   H24   S    
C23   C27   A    
C32   O20   A    
C102  H1    S    
C24   H50   S    
C103  H12   S    
C38   H29   S    
Cr7   O43   S    
C97   C102  S    
C9    H59   S    
C16   C20   A    
Cr10  O20   S    
C83   O35   A    
C25   H51   S    
C101  C108  S    
Cr3   O29   S    
C4    H33   S    
C26   H52   S    
C9    C46   S    
C76   C108  S    
Cr2   O6    S    
C94   O6    A    
Cr8   O44   S    
C101  C105  S    
C89   O52   A    
C11   C48   S    
C53   C75   A    
Cr4   O13   S    
C81   O12   A    
C4    H32   S    
C19   C32   S    
C61   C66   A    
C50   O24   A    
C6    H38   S    
Cr1   O40   S    
C30   H26   S    
C99   H6    S    
C15   H19   S    
C25   C29   A    
C40   C45   A    
C88   O48   A    
C7    H42   S    
Cr11  O21   S    
C54   C106  S    
C3    C87   S    
C85   O46   A    
C86   O42   A    
C96   O39   A    
C12   C16   A    
C54   C103  S    
C11   H63   S    
C97   H5    S    
C59   H56   S    
C3    C100  S    
C54   C65   S    
C35   C83   S    
Cr2   O28   S    
C5    H35   S    
C73   C78   A    
C27   C31   A    
C29   C34   A    
Cr2   O2    S    
C51   O29   A    
C56   C60   A    
C68   C72   A    
C66   C84   S    
C13   H17   S    
Cr6   O23   S    
C49   O22   A    
C7    H43   S    
C15   C19   A    
C69   H47   S    
C38   C44   A    
C72   C77   A    
C2    C15   A    
C70   H48   S    
C32   O16   A    
Cr6   O38   S    
C36   H27   S    
Cr5   O37   S    
C47   C48   A    
C23   H49   S    
C50   O28   A    
C78   C95   S    
Cr5   O10   S    
C86   O47   A    
C52   O26   A    
Cr12  O9    S    
C104  H23   S    
C85   O41   A    
C64   C69   A    
C69   C73   A    
C1    O18   A    
C44   C91   S    
C76   C87   S    
Cr1   O36   S    
Cr4   O4    S    
Cr12  O52   S    
C39   C42   A    
C30   C35   A    
C2    C33   A    
C28   C33   A    
C26   C30   A    
C5    H37   S    
Cr6   O11   S    
Cr7   O17   S    
C63   C86   S    
C12   H16   S    
C50   C107  S    
C10   H62   S    
Cr4   O35   S    
Cr6   O16   S    
C62   C88   S    
C12   C34   A    
C21   O15   A    
C84   O40   A    
C64   C85   S    
C104  C108  S    
Cr2   O32   S    
C75   C93   S    
C24   C28   A    
C82   O23   A    
C90   O2    A    
C74   C79   A    
C102  C106  S    
C99   C106  S    
C98   H14   S    
C63   C68   A    
C36   C37   A    
C95   O7    A    
C90   O49   A    
C72   H2    S    
C41   C89   S    
C11   H65   S    
C52   O30   A    
C14   C18   A    
C5    C55   S    
Cr9   O24   S    
C93   O5    A    
C11   H64   S    
C2    H15   S    
Cr12  O5    S    
C6    C56   S    
Cr9   O19   S    
Cr6   O42   S    
C6    H40   S    
C53   C58   A    
C57   C61   A    
C49   C106  S    
C5    H36   S    
C34   C82   S    
C49   O27   A    
C59   C63   A    
C17   C22   A    
C13   C17   A    
C60   C64   A    
C10   H60   S    
C21   O19   A    
C19   C24   A    
C95   O38   A    
C79   C96   S    
C18   C43   S    
C3    C52   S    
C71   C75   A    
Cr8   O9    S    
C81   O32   A    
Cr11  O51   S    
C66   C70   A    
C91   O3    A    
Cr9   O46   S    
C4    H31   S    
C18   C23   A    
Cr7   O13   S    
C91   O50   A    
Cr3   O11   S    
C100  C101  S    
Cr5   O12   S    
C65   C107  S    
C105  H34   S    
C93   O36   A    
C67   C71   A    
C42   C47   A    
Cr5   O15   S    
C37   H28   S    
C43   O21   A    
C9    H58   S    
Cr9   O49   S    
C87   C104  S    
C97   C107  S    
C92   O4    A    
Cr11  O48   S    
C1    C22   S    
C88   O43   A    
C96   O8    A    
C20   C21   S    
Cr11  O26   S    
C22   C26   A    
C65   H10   S    
C10   C47   S    
C10   H61   S    
Cr4   O30   S    
C51   O25   A    
C103  C107  S    
C8    H53   S    
C40   C90   S    
Cr10  O47   S    
C33   C81   S    
Cr5   O41   S    
C7    C57   S    
Cr8   O18   S    
Cr9   O10   S    
C44   C48   A    
Cr3   O7    S    
C68   H46   S    
