data_mof_unit_43406.cif
_audit_creation_date              2012-10-26T18:30:20-0400
_audit_creation_method            fapswitch 2.2
_symmetry_space_group_name_H-M    P1
_symmetry_Int_Tables_number       1
_space_group_crystal_system       triclinic
_cell_length_a                    10.650575
_cell_length_b                    12.962186
_cell_length_c                    11.715222
_cell_angle_alpha                 100.445724
_cell_angle_beta                  93.555229
_cell_angle_gamma                 90.757436
_cell_volume                      1586.98371458

loop_
_atom_site_label
_atom_site_type_symbol
_atom_type_description
_atom_site_fract_x
_atom_site_fract_y
_atom_site_fract_z
_atom_type_partial_charge
C1    C     C_R   0.501671 0.299478 0.478012 0.619929
C2    C     C_R   0.607292 0.589960 0.858504 0.399517
C3    C     C_R   0.550840 0.543041 0.157638 0.024372
C4    C     C_R   0.449161 0.456958 0.842362 0.024377
C5    C     C_R   0.542712 0.535926 0.034873 -0.043023
C6    C     C_R   0.457289 0.464073 0.965127 -0.043020
C7    C     C_R   0.259608 0.500156 0.500752 0.579240
C8    C     C_R   0.740392 0.499844 0.499247 0.579252
C9    C     C_3   0.046159 0.510940 0.610185 -0.003000
C10   C     C_3   0.953840 0.489058 0.389812 -0.002988
C11   C     C_3   0.959737 0.420067 0.546460 -0.023201
C12   C     C_R   0.498338 0.700524 0.521989 0.619919
C13   C     C_3   0.040262 0.579931 0.453535 -0.023204
C14   C     C_3   0.876568 0.499573 0.497610 0.045879
C15   C     C_3   0.123431 0.500425 0.502386 0.045864
C16   C     C_3   0.962017 0.591575 0.561926 -0.076601
C17   C     C_3   0.037983 0.408424 0.438070 -0.076597
C18   C     C_R   0.490830 0.813844 0.535178 -0.009722
C19   C     C_R   0.509210 0.186160 0.464830 -0.009704
C20   C     C_R   0.607133 0.024047 0.385145 0.312682
C21   C     C_R   0.392976 0.975975 0.614909 0.312698
C22   C     C_R   0.595999 0.132139 0.392561 0.200791
C23   C     C_R   0.430719 0.133041 0.527448 0.219193
C24   C     C_R   0.404076 0.867880 0.607476 0.200824
C25   C     C_3   0.912903 0.328902 0.599241 -0.347678
C26   C     C_3   0.087092 0.671094 0.400747 -0.347671
C27   C     C_3   0.096506 0.523422 0.736509 -0.344021
C28   C     C_3   0.903492 0.476571 0.263487 -0.344015
C29   C     C_R   0.569342 0.866958 0.472570 0.219204
C30   C     C_R   0.454932 0.027750 0.536219 -0.061563
C31   C     C_R   0.545160 0.972261 0.463820 -0.061546
C32   C     C_R   0.382183 0.401096 0.019729 -0.100575
C33   C     C_R   0.617818 0.598903 0.980271 -0.100581
C34   C     C_R   0.392708 0.410040 0.141496 0.399513
Cl1   Cl    Cl    0.708699 0.802906 0.425411 -0.526238
Cl2   Cl    Cl    0.291336 0.197060 0.574592 -0.526206
Cl3   Cl    Cl    0.307911 0.800372 0.689789 -0.500585
Cl4   Cl    Cl    0.692157 0.199662 0.310257 -0.500650
Cl5   Cl    Cl    0.685650 0.956774 0.265578 -0.367013
Cl6   Cl    Cl    0.314534 0.043269 0.734514 -0.367033
Cl7   Cl    Cl    0.705698 0.673088 0.798768 -0.511816
Cl8   Cl    Cl    0.294301 0.326912 0.201232 -0.511812
Cu1   Cu    Cu3+1 0.509400 0.507730 0.615930 1.084631
Cu2   Cu    Cu3+1 0.490600 0.492270 0.384070 1.084634
H1    H     H_    0.929357 0.666357 0.612007 0.199363
H2    H     H_    0.005755 0.716061 0.374346 0.197481
H3    H     H_    0.150170 0.723611 0.465657 0.179725
H4    H     H_    0.139653 0.640786 0.323252 0.152513
H5    H     H_    0.016695 0.530573 0.793782 0.157808
H6    H     H_    0.151529 0.453794 0.749075 0.148902
H7    H     H_    0.157653 0.595070 0.759931 0.197557
H8    H     H_    0.983302 0.469406 0.206212 0.157810
H9    H     H_    0.842337 0.404926 0.240072 0.197574
H10   H     H_    0.848479 0.546201 0.250915 0.148900
H11   H     H_    0.070643 0.333641 0.387990 0.199366
H12   H     H_    0.383414 0.401483 0.788603 0.161663
H13   H     H_    0.616587 0.598516 0.211397 0.161664
H14   H     H_    0.315400 0.344879 0.968192 0.163424
H15   H     H_    0.684601 0.655119 0.031808 0.163418
H16   H     H_    0.994238 0.283929 0.625636 0.197466
H17   H     H_    0.860342 0.359206 0.676737 0.152511
H18   H     H_    0.849822 0.276391 0.534327 0.179746
N1    N     N_R   0.523540 0.519360 0.790140 -0.231634
N2    N     N_R   0.476460 0.480640 0.209860 -0.231634
O1    O     O_R   0.506670 0.354460 0.582000 -0.503402
O2    O     O_R   0.493330 0.645540 0.418000 -0.503398
O3    O     O_R   0.490800 0.341410 0.386200 -0.410308
O4    O     O_R   0.509200 0.658590 0.613800 -0.410309
O5    O     O_R   0.324790 0.506500 0.597880 -0.505187
O6    O     O_R   0.675210 0.493500 0.402120 -0.505179
O7    O     O_R   0.308910 0.493440 0.402080 -0.479146
O8    O     O_R   0.691090 0.506560 0.597920 -0.479148

loop_
_geom_bond_atom_site_label_1
_geom_bond_atom_site_label_2
_ccdc_geom_bond_type
C6    C32   A    
Cu1   O8    S    
Cu2   O2    S    
C34   Cl8   S    
C32   H14   S    
Cu1   N1    S    
C3    N2    A    
Cu2   N2    S    
C12   O4    A    
C4    N1    A    
C18   C24   A    
C9    C16   S    
C7    O7    A    
C30   C31   A    
C11   C14   S    
C11   C25   S    
C2    Cl7   S    
C22   Cl4   S    
Cu2   O7    S    
Cu1   O4    S    
C5    C33   A    
C1    O1    A    
Cu2   O6    S    
C25   H16   S    
C17   H11   S    
C27   H6    S    
C26   H4    S    
C7    C15   S    
C33   H15   S    
C4    H12   S    
C27   H7    S    
C1    C19   S    
C8    O8    A    
C23   C30   A    
C19   C22   A    
C4    C6    A    
C10   C14   S    
C20   Cl5   S    
C28   H10   S    
C12   O2    A    
C32   C34   A    
C19   C23   A    
Cu1   Cu2   S    
Cu1   O1    S    
C34   N2    A    
C24   Cl3   S    
C18   C29   A    
C25   H17   S    
C9    C11   S    
C26   H3    S    
C3    H13   S    
C2    C33   A    
C20   C22   A    
C13   C15   S    
C14   C16   S    
C13   C26   S    
C13   C16   S    
C2    N1    A    
C9    C27   S    
C10   C28   S    
C15   C17   S    
C11   C17   S    
C8    C14   S    
C3    C5    A    
C10   C13   S    
C16   H1    S    
C7    O5    A    
C28   H9    S    
C21   C30   A    
C29   Cl1   S    
C8    O6    A    
C9    C15   S    
C29   C31   A    
C28   H8    S    
C5    C6    A    
C21   Cl6   S    
C1    O3    A    
C25   H18   S    
C26   H2    S    
Cu1   O5    S    
C23   Cl2   S    
C21   C24   A    
C12   C18   S    
Cu2   O3    S    
C10   C17   S    
C27   H5    S    
C20   C31   A    
