data_mof_unit_63826.cif
_audit_creation_date              2012-10-26T19:38:16-0400
_audit_creation_method            fapswitch 2.2
_symmetry_space_group_name_H-M    P1
_symmetry_Int_Tables_number       1
_space_group_crystal_system       triclinic
_cell_length_a                    15.785338
_cell_length_b                    17.146397
_cell_length_c                    23.552019
_cell_angle_alpha                 90.382665
_cell_angle_beta                  92.447236
_cell_angle_gamma                 96.390711
_cell_volume                      6328.81950162

loop_
_atom_site_label
_atom_site_type_symbol
_atom_type_description
_atom_site_fract_x
_atom_site_fract_y
_atom_site_fract_z
_atom_type_partial_charge
C1    C     C_R   0.489573 0.348462 0.499536 0.595517
C2    C     C_R   0.423139 0.496172 0.700758 0.385462
C3    C     C_R   0.575071 0.503654 0.240085 0.004209
C4    C     C_R   0.424929 0.496352 0.759915 0.004210
C5    C     C_R   0.497463 0.499247 0.208681 0.122510
C6    C     C_R   0.502537 0.500752 0.791319 0.122510
C7    C     C_R   0.483936 0.262284 0.499435 0.018423
C8    C     C_R   0.516064 0.737715 0.500565 0.018423
C9    C     C_R   0.556027 0.224305 0.487842 0.315637
C10   C     C_R   0.443973 0.775695 0.512158 0.315637
C11   C     C_R   0.551272 0.142928 0.488827 -0.038667
C12   C     C_R   0.510427 0.651538 0.500463 0.595519
C13   C     C_R   0.448728 0.857072 0.511172 -0.038667
C14   C     C_R   0.474387 0.097706 0.501420 0.115910
C15   C     C_R   0.525613 0.902294 0.498580 0.115910
C16   C     C_R   0.500191 0.499854 0.390747 0.566243
C17   C     C_R   0.499808 0.500146 0.609253 0.566243
C18   C     C_R   0.402676 0.135321 0.512228 -0.054227
C19   C     C_R   0.597324 0.864679 0.487772 -0.054227
C20   C     C_R   0.406881 0.216851 0.511349 0.342507
C21   C     C_R   0.593119 0.783149 0.488651 0.342508
C22   C     C_R   0.751465 0.462272 0.472049 0.014933
C23   C     C_R   0.419953 0.494822 0.236676 0.031953
C24   C     C_R   0.248535 0.537728 0.527951 0.014934
C25   C     C_R   0.840871 0.464450 0.473686 -0.152632
C26   C     C_R   0.159129 0.535550 0.526313 -0.152632
C27   C     C_R   0.891314 0.516142 0.511759 0.169495
C28   C     C_R   0.108686 0.483858 0.488241 0.169494
C29   C     C_R   0.849009 0.564099 0.546986 0.434886
C30   C     C_R   0.150991 0.435901 0.453013 0.434887
C31   C     C_R   0.759493 0.560070 0.543979 0.571141
C32   C     C_R   0.240507 0.439930 0.456021 0.571140
C33   C     C_R   0.504674 0.570373 0.880883 0.437552
C34   C     C_R   0.580047 0.505172 0.763324 0.031954
C35   C     C_R   0.495326 0.429627 0.119117 0.437551
C36   C     C_R   0.497522 0.430469 0.879784 0.436143
C37   C     C_R   0.502477 0.569531 0.120216 0.436144
C38   C     C_R   0.496844 0.428542 0.939449 -0.012128
C39   C     C_R   0.503156 0.571458 0.060551 -0.012127
C40   C     C_R   0.500259 0.500105 0.969978 -0.170158
C41   C     C_R   0.499741 0.499895 0.030022 -0.170158
C42   C     C_R   0.504168 0.571876 0.940576 -0.012650
C43   C     C_R   0.495832 0.428124 0.059424 -0.012650
C44   C     C_R   0.492952 0.357394 0.969291 0.454085
C45   C     C_R   0.422154 0.495051 0.296303 -0.130861
C46   C     C_R   0.507047 0.642605 0.030709 0.454085
C47   C     C_R   0.492465 0.357189 0.028461 0.454343
C48   C     C_R   0.507535 0.642810 0.971538 0.454343
C49   C     C_2   0.337122 0.490003 0.203863 0.333606
C50   C     C_2   0.662878 0.509984 0.796137 0.333607
C51   C     C_R   0.577845 0.504943 0.703696 -0.130860
C52   C     C_R   0.500145 0.499602 0.328036 -0.006649
C53   C     C_R   0.499855 0.500398 0.671964 -0.006648
C54   C     C_R   0.576862 0.503834 0.299241 0.385462
Cu1   Cu    Cu3+1 0.415220 0.496180 0.497250 1.166488
Cu2   Cu    Cu3+1 0.584780 0.503820 0.502750 1.166489
F1    F     F_    0.489608 0.287309 0.941599 -0.480455
F2    F     F_    0.511361 0.713085 0.944953 -0.479390
F3    F     F_    0.653733 0.508250 0.327906 -0.580541
F4    F     F_    0.346268 0.491763 0.672094 -0.580544
F5    F     F_    0.368841 0.734594 0.525115 -0.595484
F6    F     F_    0.631159 0.265406 0.474884 -0.595485
F7    F     F_    0.510392 0.712691 0.058401 -0.480455
F8    F     F_    0.335915 0.250852 0.523258 -0.545443
F9    F     F_    0.664085 0.749148 0.476742 -0.545442
F10   F     F_    0.894579 0.614812 0.584282 -0.521727
F11   F     F_    0.105421 0.385188 0.415718 -0.521727
F12   F     F_    0.720173 0.607046 0.578401 -0.528709
F13   F     F_    0.279827 0.392953 0.421599 -0.528710
F14   F     F_    0.488639 0.286914 0.055047 -0.479390
H1    H     H_    0.286604 0.577487 0.557279 0.224882
H2    H     H_    0.607942 0.115717 0.479694 0.200152
H3    H     H_    0.343259 0.101052 0.521854 0.193014
H4    H     H_    0.656741 0.898948 0.478146 0.193014
H5    H     H_    0.335151 0.489817 0.157767 0.137725
H6    H     H_    0.664849 0.510172 0.842233 0.137725
H7    H     H_    0.713396 0.422513 0.442721 0.224878
H8    H     H_    0.130257 0.573955 0.554579 0.205133
H9    H     H_    0.869743 0.426045 0.445421 0.205132
H10   H     H_    0.362772 0.491663 0.318050 0.219920
H11   H     H_    0.637228 0.508326 0.681950 0.219916
H12   H     H_    0.634405 0.507021 0.218306 0.182155
H13   H     H_    0.365596 0.492990 0.781694 0.182155
H14   H     H_    0.392058 0.884283 0.520305 0.200152
N1    N     N_R   0.501627 0.500536 0.852160 -0.444082
N2    N     N_R   0.498373 0.499464 0.147840 -0.444082
N3    N     N_2   0.466235 0.014648 0.503731 -0.204181
N4    N     N_2   0.533765 0.985352 0.496268 -0.204181
N5    N     N_R   0.712130 0.509560 0.506880 -0.278722
N6    N     N_R   0.287870 0.490440 0.493120 -0.278723
N7    N     N_2   0.983034 0.522166 0.516256 -0.150395
N8    N     N_2   0.016965 0.477834 0.483744 -0.150395
O1    O     O_R   0.420530 0.382500 0.497430 -0.403337
O2    O     O_2   0.491630 0.362140 0.148495 -0.348342
O3    O     O_2   0.494318 0.363185 0.849346 -0.353372
O4    O     O_2   0.505681 0.636815 0.150654 -0.353371
O5    O     O_2   0.269768 0.486150 0.227899 -0.422602
O6    O     O_2   0.730231 0.513830 0.772101 -0.422605
O7    O     O_R   0.579470 0.617500 0.502570 -0.403336
O8    O     O_R   0.563720 0.388950 0.502070 -0.478625
O9    O     O_R   0.436280 0.611050 0.497930 -0.478623
O10   O     O_R   0.428390 0.496750 0.415560 -0.493390
O11   O     O_R   0.571610 0.503250 0.584440 -0.493390
O12   O     O_R   0.571580 0.503200 0.420200 -0.447252
O13   O     O_R   0.428420 0.496800 0.579800 -0.447253
O14   O     O_2   0.508370 0.637860 0.851504 -0.348341

loop_
_geom_bond_atom_site_label_1
_geom_bond_atom_site_label_2
_ccdc_geom_bond_type
C38   C40   A    
Cu1   Cu2   S    
C23   C45   A    
C27   C29   A    
C14   C18   A    
Cu1   O1    S    
C39   C41   A    
C15   C19   A    
C13   H14   S    
C34   C51   A    
C26   H8    S    
C6    N1    S    
Cu1   O13   S    
C33   C42   A    
C19   C21   A    
C24   C26   A    
C14   N3    S    
Cu1   N6    S    
C50   H6    S    
C8    C10   A    
C11   C14   A    
C2    F4    S    
C23   C49   S    
C33   N1    A    
C12   O7    A    
C16   O12   A    
C32   N6    A    
C31   N5    A    
C22   C25   A    
C5    C23   A    
C49   H5    S    
C27   N7    S    
C35   C43   A    
C51   H11   S    
C30   F11   S    
C44   C47   A    
Cu2   O11   S    
C40   C42   A    
C1    C7    S    
C41   C43   A    
C1    O8    A    
C52   C54   A    
C54   F3    S    
C31   F12   S    
C37   C39   A    
C46   C48   A    
C34   C50   S    
C50   O6    D    
C9    F6    S    
C37   N2    A    
Cu2   O12   S    
C4    C6    A    
N7    N8    D    
C11   H2    S    
C45   C52   A    
C10   C13   A    
C6    C34   A    
C37   O4    S    
C51   C53   A    
C20   F8    S    
C2    C4    A    
C47   F14   S    
C38   C44   A    
C17   O13   A    
Cu1   O10   S    
C44   F1    S    
C8    C12   S    
C3    H12   S    
C8    C21   A    
C28   N8    S    
C42   C48   A    
C9    C11   A    
C3    C54   A    
C39   C46   A    
C5    N2    S    
C16   O10   A    
Cu2   N5    S    
C18   H3    S    
C13   C15   A    
C10   F5    S    
Cu2   O8    S    
C17   C53   S    
C35   O2    S    
C7    C9    A    
C40   C41   A    
C21   F9    S    
C25   H9    S    
C19   H4    S    
C33   O14   S    
C16   C52   S    
C22   H7    S    
C3    C5    A    
C2    C53   A    
C24   N6    A    
C48   F2    S    
C32   F13   S    
C36   N1    A    
C25   C27   A    
Cu1   O9    S    
C26   C28   A    
C46   F7    S    
C28   C30   A    
C17   O11   A    
C12   O9    A    
C29   C31   A    
C30   C32   A    
C36   O3    S    
C4    H13   S    
C36   C38   A    
C35   N2    A    
C22   N5    A    
C45   H10   S    
C18   C20   A    
C49   O5    D    
C29   F10   S    
N3    N4    D    
C1    O1    A    
C7    C20   A    
Cu2   O7    S    
C43   C47   A    
C24   H1    S    
C15   N4    S    
