data_mof_unit_7434.cif
_audit_creation_date              2012-12-10T16:47:19-0500
_audit_creation_method            fapswitch 2.2
_symmetry_space_group_name_H-M    P1
_symmetry_Int_Tables_number       1
_space_group_crystal_system       monoclinic
_cell_length_a                    12.035737
_cell_length_b                    12.18696
_cell_length_c                    7.856845
_cell_angle_alpha                 90.0
_cell_angle_beta                  94.726846
_cell_angle_gamma                 90.0
_cell_volume                      1148.51496207

loop_
_atom_site_label
_atom_site_type_symbol
_atom_type_description
_atom_site_fract_x
_atom_site_fract_y
_atom_site_fract_z
_atom_type_partial_charge
Br1   Br    Br    0.687417 0.000000 0.988051 -0.387818
Br2   Br    Br    0.312583 0.000000 0.011948 -0.387818
Br3   Br    Br    0.187417 0.500000 0.988051 -0.387818
Br4   Br    Br    0.812583 0.500000 0.011948 -0.387818
C1    C     C_R   0.354754 0.850921 0.455389 0.950724
C2    C     C_2   0.725872 0.768052 0.568059 -0.343149
C3    C     C_2   0.725872 0.231948 0.568059 -0.343149
C4    C     C_2   0.274128 0.768052 0.431941 -0.343149
C5    C     C_2   0.774128 0.731948 0.431941 -0.343149
C6    C     C_2   0.225872 0.268052 0.568059 -0.343149
C7    C     C_2   0.225872 0.731948 0.568059 -0.343149
C8    C     C_2   0.774128 0.268052 0.431941 -0.343149
C9    C     C_R   0.645246 0.149079 0.544611 0.950723
C10   C     C_R   0.645246 0.850921 0.544611 0.950724
C11   C     C_R   0.354754 0.149079 0.455389 0.950724
C12   C     C_R   0.854754 0.350921 0.455389 0.950724
C13   C     C_R   0.145246 0.649079 0.544611 0.950723
C14   C     C_R   0.145246 0.350921 0.544611 0.950724
C15   C     C_R   0.854754 0.649079 0.455389 0.950724
C16   C     C_2   0.274128 0.231948 0.431941 -0.343149
H1    H     H_    0.754753 0.762983 0.303073 0.211213
H2    H     H_    0.245246 0.237017 0.696927 0.211213
H3    H     H_    0.245246 0.762983 0.696927 0.211213
H4    H     H_    0.754754 0.237017 0.303073 0.211213
H5    H     H_    0.254753 0.262983 0.303073 0.211213
H6    H     H_    0.745246 0.737017 0.696927 0.211213
H7    H     H_    0.745246 0.262983 0.696927 0.211213
H8    H     H_    0.254753 0.737017 0.303073 0.211213
N1    N     N_2   0.541470 0.000000 0.055820 0.079439
N2    N     N_2   0.458530 0.000000 0.944180 0.079439
N3    N     N_2   0.041470 0.500000 0.055820 0.079439
N4    N     N_2   0.958530 0.500000 0.944180 0.079439
O1    O     O_R   0.375700 0.885870 0.609240 -0.605537
O2    O     O_R   0.597720 0.114130 0.675960 -0.592048
O3    O     O_R   0.597720 0.885870 0.675960 -0.592048
O4    O     O_R   0.402280 0.114130 0.324040 -0.592048
O5    O     O_R   0.902280 0.385870 0.324040 -0.592048
O6    O     O_R   0.097720 0.614130 0.675960 -0.592048
O7    O     O_R   0.097720 0.385870 0.675960 -0.592048
O8    O     O_R   0.902280 0.614130 0.324040 -0.592048
O9    O     O_R   0.624300 0.114130 0.390760 -0.605537
O10   O     O_R   0.624300 0.885870 0.390760 -0.605537
O11   O     O_R   0.375700 0.114130 0.609240 -0.605537
O12   O     O_R   0.875700 0.385870 0.609240 -0.605537
O13   O     O_R   0.124300 0.614130 0.390760 -0.605537
O14   O     O_R   0.124300 0.385870 0.390760 -0.605537
O15   O     O_R   0.875700 0.614130 0.609240 -0.605537
O16   O     O_R   0.402280 0.885870 0.324040 -0.592048
Zn1   Zn    Zn3+2 0.482250 0.000000 0.690430 1.065975
Zn2   Zn    Zn3+2 0.517750 0.000000 0.309570 1.065975
Zn3   Zn    Zn3+2 0.982250 0.500000 0.690430 1.065975
Zn4   Zn    Zn3+2 0.017750 0.500000 0.309570 1.065975

loop_
_geom_bond_atom_site_label_1
_geom_bond_atom_site_label_2
_ccdc_geom_bond_type
C12   O5    A    
O3    Zn1   S    
C1    C4    S    
O7    Zn3   S    
C14   O7    A    
N4    Zn3   S    
N1    N2    D    
C2    C10   S    
C8    H4    S    
N3    N4    D    
Br2   N2    S    
N3    Zn4   S    
C10   O10   A    
C2    C5    D    
Br1   N1    S    
C11   O11   A    
C9    O2    A    
C2    H6    S    
C6    H2    S    
Br3   N3    S    
C5    H1    S    
Br4   N4    S    
C6    C16   D    
N1    Zn2   S    
C6    C14   S    
C4    C7    D    
C14   O14   A    
O12   Zn3   S    
O16   Zn2   S    
N2    Zn1   S    
O10   Zn2   S    
C13   O6    A    
C3    C8    D    
C4    H8    S    
C1    O16   A    
C15   O15   A    
C16   H5    S    
O1    Zn1   S    
O14   Zn4   S    
O9    Zn2   S    
C3    C9    S    
C3    H7    S    
C15   O8    A    
C7    H3    S    
C10   O3    A    
O5    Zn4   S    
C12   O12   A    
C9    O9    A    
C7    C13   S    
O2    Zn1   S    
O15   Zn3   S    
O6    Zn3   S    
O13   Zn4   S    
C11   O4    A    
O8    Zn4   S    
C5    C15   S    
O11   Zn1   S    
C8    C12   S    
O4    Zn2   S    
C13   O13   A    
C11   C16   S    
C1    O1    A    
