data_mof_unit_54026.cif
_audit_creation_date              2012-12-10T18:16:30-0500
_audit_creation_method            fapswitch 2.2
_symmetry_space_group_name_H-M    P1
_symmetry_Int_Tables_number       1
_space_group_crystal_system       triclinic
_cell_length_a                    12.588008
_cell_length_b                    13.138987
_cell_length_c                    27.738562
_cell_angle_alpha                 90.721132
_cell_angle_beta                  103.030391
_cell_angle_gamma                 82.264296
_cell_volume                      4428.2242692

loop_
_atom_site_label
_atom_site_type_symbol
_atom_type_description
_atom_site_fract_x
_atom_site_fract_y
_atom_site_fract_z
_atom_type_partial_charge
C1    C     C_R   0.438641 0.691215 0.492363 0.856145
C2    C     C_R   0.443542 0.586505 0.020565 0.044908
C3    C     C_R   0.554922 0.414990 0.030437 0.044314
C4    C     C_R   0.501037 0.500587 0.593882 0.902543
C5    C     C_R   0.497832 0.499705 0.050567 0.071439
C6    C     C_R   0.393245 0.671168 0.043157 -0.213834
C7    C     C_R   0.392499 0.668850 0.093023 -0.136925
C8    C     C_R   0.442273 0.582462 0.122345 -0.021852
C9    C     C_R   0.495173 0.497658 0.101346 -0.051611
C10   C     C_R   0.545702 0.410924 0.131288 -0.021448
C11   C     C_R   0.542982 0.410904 0.181425 0.503075
C12   C     C_R   0.598685 0.528993 0.731391 0.531203
C13   C     C_R   0.441886 0.579375 0.172693 0.504174
C14   C     C_R   0.591663 0.504705 0.286760 -0.105411
C15   C     C_R   0.593436 0.506340 0.336994 -0.225845
C16   C     C_R   0.561190 0.308704 0.505063 0.871099
C17   C     C_R   0.399183 0.486786 0.318567 -0.211885
C18   C     C_R   0.397666 0.485431 0.268311 -0.101804
C19   C     C_R   0.493835 0.494479 0.252462 0.321569
C20   C     C_R   0.441847 0.586244 0.969302 0.044799
C21   C     C_R   0.503397 0.503782 0.949732 0.073557
C22   C     C_R   0.562451 0.419486 0.980330 0.044897
C23   C     C_R   0.506451 0.506893 0.747683 0.217180
C24   C     C_R   0.379712 0.665449 0.936585 -0.214649
C25   C     C_R   0.630540 0.345750 0.910003 -0.136459
C26   C     C_R   0.601772 0.327901 0.061230 -0.213812
C27   C     C_R   0.597417 0.326252 0.110697 -0.137590
C28   C     C_R   0.499004 0.499422 0.406135 0.853868
C29   C     C_R   0.627931 0.342653 0.959646 -0.210282
C30   C     C_R   0.701935 0.063755 0.465541 -0.189818
C31   C     C_R   0.596835 0.200032 0.500933 -0.049035
C32   C     C_R   0.299575 0.838370 0.499210 -0.186855
C33   C     C_R   0.271046 0.943193 0.503711 -0.140747
C34   C     C_R   0.505624 0.505441 0.898900 -0.052965
C35   C     C_R   0.344729 0.010373 0.498990 -0.186935
C36   C     C_R   0.446839 0.973447 0.487166 0.085783
C37   C     C_R   0.467154 0.869421 0.474992 0.082488
C38   C     C_R   0.529523 0.036189 0.487004 0.077549
C39   C     C_R   0.621957 0.999813 0.467183 0.170884
C40   C     C_R   0.446540 0.585909 0.817422 0.489766
C41   C     C_R   0.632029 0.900994 0.448549 -0.242887
C42   C     C_R   0.555592 0.836410 0.452360 -0.190494
C43   C     C_R   0.523598 0.133816 0.506924 -0.251767
C44   C     C_R   0.688325 0.164632 0.481581 -0.197768
C45   C     C_R   0.444322 0.586491 0.867609 -0.017337
C46   C     C_R   0.399171 0.800778 0.486528 -0.111996
C47   C     C_R   0.087515 0.345246 0.432096 -0.303138
C48   C     C_R   0.799982 0.630745 0.558185 0.021499
C49   C     C_R   0.904673 0.659824 0.569942 -0.241934
C50   C     C_R   0.985985 0.610505 0.547854 -0.195806
C51   C     C_R   0.962703 0.531116 0.513785 0.015871
C52   C     C_R   0.568451 0.428129 0.828762 0.573367
C53   C     C_R   0.854593 0.504212 0.503196 0.238893
C54   C     C_R   0.041776 0.477628 0.489863 -0.012961
C55   C     C_R   0.011102 0.398824 0.456029 0.195419
C56   C     C_R   0.381333 0.665506 0.886787 -0.139386
C57   C     C_R   0.904616 0.373876 0.446491 -0.295257
C58   C     C_R   0.827813 0.425714 0.469843 -0.221805
C59   C     C_R   0.150846 0.498580 0.498095 -0.052603
C60   C     C_R   0.193818 0.369710 0.441907 0.007230
C61   C     C_R   0.412512 0.484706 0.713787 -0.177641
C62   C     C_R   0.410542 0.482952 0.663562 -0.217609
C63   C     C_R   0.597324 0.525286 0.680974 -0.314701
C64   C     C_3   0.692006 0.655674 0.768188 0.066987
C65   C     C_3   0.788674 0.678448 0.808822 -0.769132
C66   C     C_R   0.568744 0.425789 0.879186 -0.043611
C67   C     C_R   0.503091 0.502817 0.646806 -0.104863
C68   C     C_R   0.497083 0.497576 0.353252 -0.038533
H1    H     H_    0.669795 0.540297 0.668825 0.178527
H2    H     H_    0.700028 0.872950 0.431787 0.153626
H3    H     H_    0.772259 0.037094 0.450073 0.138773
H4    H     H_    0.459564 0.162174 0.525730 0.150960
H5    H     H_    0.245435 0.786558 0.507205 0.152521
H6    H     H_    0.318483 0.090818 0.503534 0.135587
H7    H     H_    0.193611 0.972175 0.512994 0.144826
H8    H     H_    0.565765 0.760734 0.436828 0.174939
H9    H     H_    0.254336 0.328833 0.423967 0.138711
H10   H     H_    0.880455 0.313688 0.420874 0.158800
H11   H     H_    0.065316 0.284952 0.406245 0.149961
H12   H     H_    0.341253 0.468329 0.726535 0.163563
H13   H     H_    0.181973 0.556414 0.523165 0.124296
H14   H     H_    0.736321 0.669034 0.575087 0.139045
H15   H     H_    0.332282 0.727888 0.863271 0.189622
H16   H     H_    0.065668 0.636160 0.558145 0.137621
H17   H     H_    0.922724 0.720579 0.596010 0.155665
H18   H     H_    0.747880 0.402422 0.461093 0.211453
H19   H     H_    0.670099 0.514335 0.362966 0.168592
H20   H     H_    0.666001 0.511914 0.274357 0.139867
H21   H     H_    0.352832 0.735631 0.108548 0.190549
H22   H     H_    0.355476 0.741834 0.023665 0.143649
H23   H     H_    0.681388 0.284695 0.895864 0.189473
H24   H     H_    0.326589 0.727839 0.947902 0.143629
H25   H     H_    0.336822 0.465545 0.637983 0.174872
H26   H     H_    0.614983 0.694384 0.777556 0.164784
H27   H     H_    0.700860 0.688157 0.732620 0.140206
H28   H     H_    0.867177 0.642156 0.800371 0.261461
H29   H     H_    0.789546 0.762741 0.811520 0.206930
H30   H     H_    0.781275 0.647842 0.844900 0.257930
H31   H     H_    0.640754 0.258393 0.048110 0.143852
H32   H     H_    0.323837 0.479863 0.330164 0.164738
H33   H     H_    0.635079 0.257949 0.132795 0.190171
H34   H     H_    0.321994 0.477471 0.241641 0.141018
H35   H     H_    0.680175 0.279624 0.980984 0.143232
H36   H     H_    0.745702 0.215804 0.476586 0.149696
N1    N     N_R   0.507670 0.507270 0.799190 -0.340665
N2    N     N_R   0.492110 0.494578 0.200941 -0.356889
N3    N     N_R   0.222180 0.444690 0.474320 -0.102863
N4    N     N_R   0.776980 0.554780 0.525420 -0.131376
O1    O     O_R   0.366730 0.627160 0.487740 -0.613804
O2    O     O_R   0.410930 0.482330 0.420550 -0.616269
O3    O     O_R   0.589030 0.517690 0.436960 -0.646692
O4    O     O_2   0.388418 0.663242 0.787003 -0.578625
O5    O     O_3   0.692226 0.548366 0.765192 -0.591617
O6    O     O_2   0.392797 0.660679 0.193476 -0.558878
O7    O     O_2   0.627405 0.351590 0.809220 -0.540216
O8    O     O_2   0.590636 0.328129 0.210533 -0.561493
O9    O     O_R   0.544830 0.662520 0.504140 -0.620139
O10   O     O_R   0.410970 0.482310 0.563040 -0.623249
O11   O     O_R   0.589070 0.517670 0.579450 -0.618597
O12   O     O_R   0.455170 0.337480 0.495860 -0.615575
O13   O     O_R   0.633270 0.372840 0.512260 -0.632364
Zn1   Zn    Zn3+2 0.381080 0.476390 0.489050 0.944080
Zn2   Zn    Zn3+2 0.618920 0.523610 0.510950 0.932573

loop_
_geom_bond_atom_site_label_1
_geom_bond_atom_site_label_2
_ccdc_geom_bond_type
C10   C27   A    
C35   H6    S    
C8    C13   A    
C22   C29   A    
C41   C42   A    
C35   C36   A    
C47   H11   S    
C4    O10   A    
C34   C66   A    
C30   H3    S    
C44   H36   S    
C50   H16   S    
C7    C8    A    
C39   C41   A    
C57   H10   S    
C16   C31   S    
C12   C23   A    
C26   C27   A    
C43   H4    S    
C31   C43   A    
C62   C67   A    
C47   C55   A    
C36   C37   A    
C28   C68   S    
C65   H30   S    
C16   O12   A    
C18   H34   S    
C38   C39   A    
O1    Zn1   S    
C61   H12   S    
C7    H21   S    
C24   H24   S    
C29   H35   S    
C18   C19   A    
O10   Zn1   S    
C37   C42   A    
C20   C24   A    
C1    O1    A    
C47   C60   A    
C33   H7    S    
C65   H28   S    
C63   H1    S    
C45   C56   A    
C8    C9    A    
C4    O11   A    
C9    C10   A    
C13   O6    S    
C26   H31   S    
C21   C22   A    
C30   C44   A    
C2    C6    A    
C58   H18   S    
O12   Zn1   S    
C50   C51   A    
C54   C59   A    
C28   O3    A    
C25   C29   A    
C40   C45   A    
C63   C67   A    
C60   H9    S    
C25   H23   S    
C31   C44   A    
C2    C20   A    
C49   H17   S    
C40   O4    S    
C32   H5    S    
C12   C63   A    
C21   C34   A    
C28   O2    A    
C6    H22   S    
O3    Zn2   S    
C27   H33   S    
C59   N3    A    
C51   C53   A    
C16   O13   A    
C5    C9    A    
C11   N2    A    
C17   C18   A    
C34   C45   A    
C1    O9    A    
C11   O8    S    
C60   N3    A    
C48   C49   A    
C52   N1    A    
C55   C57   A    
C2    C5    A    
N4    Zn2   S    
C52   C66   A    
C56   H15   S    
C15   H19   S    
C12   O5    S    
C52   O7    S    
C54   C55   A    
C17   C68   A    
C64   O5    S    
C32   C46   A    
C14   C19   A    
C3    C26   A    
C25   C66   A    
C59   H13   S    
C64   H27   S    
C13   N2    A    
C3    C5    A    
C4    C67   S    
C53   C58   A    
C6    C7    A    
O11   Zn2   S    
C24   C56   A    
C42   H8    S    
C51   C54   A    
C64   C65   S    
C36   C38   A    
O9    Zn2   S    
C64   H26   S    
C38   C43   A    
C32   C33   A    
C53   N4    A    
C57   C58   A    
C48   N4    A    
C15   C68   A    
C33   C35   A    
C48   H14   S    
C30   C39   A    
C61   C62   A    
C1    C46   S    
C17   H32   S    
O13   Zn2   S    
C10   C11   A    
C14   H20   S    
C19   N2    S    
C23   C61   A    
C20   C21   A    
C65   H29   S    
C49   C50   A    
C62   H25   S    
C14   C15   A    
C40   N1    A    
C3    C22   A    
N3    Zn1   S    
C37   C46   A    
O2    Zn1   S    
C41   H2    S    
C23   N1    S    
