data_mof_unit_62092.cif
_audit_creation_date              2012-12-10T17:57:52-0500
_audit_creation_method            fapswitch 2.2
_symmetry_space_group_name_H-M    P1
_symmetry_Int_Tables_number       1
_space_group_crystal_system       triclinic
_cell_length_a                    18.687017
_cell_length_b                    18.757607
_cell_length_c                    18.923011
_cell_angle_alpha                 109.58162
_cell_angle_beta                  109.674128
_cell_angle_gamma                 109.072713
_cell_volume                      5111.29783867

loop_
_atom_site_label
_atom_site_type_symbol
_atom_type_description
_atom_site_fract_x
_atom_site_fract_y
_atom_site_fract_z
_atom_type_partial_charge
C1    C     C_R   0.381569 0.381366 0.500167 0.799612
C2    C     C_3   0.809228 0.498139 0.807432 0.143423
C3    C     C_3   0.832239 0.496286 0.735471 -0.421640
C4    C     C_3   0.804666 0.582070 0.847531 -0.406588
C5    C     C_R   0.243380 0.244096 0.425968 0.128944
C6    C     C_R   0.316779 0.315362 0.501827 -0.087452
C7    C     C_R   0.325195 0.321569 0.580928 -0.216654
C8    C     C_R   0.260727 0.256207 0.580948 -0.210905
C9    C     C_R   0.186033 0.185829 0.501961 -0.090693
C10   C     C_R   0.180154 0.183316 0.426087 0.129331
C11   C     C_3   0.125017 0.132541 0.329871 -0.475640
C12   C     C_R   0.620635 0.501099 0.619355 0.794697
C13   C     C_3   0.196860 0.202587 0.329808 -0.484634
C14   C     C_R   0.256936 0.429859 0.232339 0.074903
C15   C     C_R   0.314562 0.502001 0.314803 -0.088381
C16   C     C_R   0.305692 0.577156 0.331863 -0.201550
C17   C     C_R   0.241147 0.577465 0.266381 -0.206862
C18   C     C_R   0.183577 0.502019 0.184064 -0.079948
C19   C     C_R   0.193770 0.429631 0.170500 0.057872
C20   C     C_3   0.160953 0.338570 0.104341 -0.064641
C21   C     C_3   0.232699 0.338586 0.175345 -0.434660
C22   C     C_R   0.671843 0.688372 0.424884 0.096241
C23   C     C_R   0.619322 0.618935 0.500684 0.813811
C24   C     C_R   0.685151 0.686921 0.501318 -0.074780
C25   C     C_R   0.758658 0.757626 0.580243 -0.199486
C26   C     C_R   0.823249 0.822077 0.580302 -0.219905
C27   C     C_R   0.813061 0.817523 0.501578 -0.084589
C28   C     C_R   0.734309 0.753278 0.425141 0.141188
C29   C     C_3   0.719107 0.691343 0.340411 -0.483000
C30   C     C_3   0.650578 0.619972 0.340354 -0.460097
C31   C     C_R   0.997586 0.381244 0.878883 0.788573
C32   C     C_R   0.877693 0.498355 0.876393 0.764223
C33   C     C_R   0.996730 0.619034 0.115355 0.795897
C34   C     C_R   0.380767 0.500406 0.380792 0.801007
C35   C     C_R   0.116664 0.500244 0.116478 0.796014
C36   C     C_R   0.998998 0.118303 0.617727 0.796985
C37   C     C_R   0.118855 0.118722 0.500340 0.796619
C38   C     C_R   0.001091 0.881528 0.382015 0.791214
C39   C     C_R   0.880935 0.881367 0.499924 0.791041
C40   C     C_R   0.974930 0.233104 0.802473 0.134545
C41   C     C_R   0.997313 0.315179 0.811640 -0.105951
C42   C     C_R   0.020978 0.332159 0.753069 -0.207987
C43   C     C_R   0.020663 0.267023 0.688112 -0.216900
C44   C     C_R   0.999166 0.185413 0.682868 -0.074983
C45   C     C_3   0.647935 0.418341 0.693030 -0.465663
C46   C     C_R   0.977505 0.171883 0.742121 0.126549
C47   C     C_3   0.948065 0.106083 0.768100 -0.497365
C48   C     C_3   0.945532 0.176066 0.837490 -0.457291
C49   C     C_R   0.015863 0.687969 0.261595 0.099973
C50   C     C_R   0.999986 0.687099 0.183736 -0.078280
C51   C     C_R   0.997880 0.758745 0.176741 -0.212725
C52   C     C_R   0.999113 0.823409 0.242232 -0.212412
C53   C     C_R   0.005558 0.818233 0.316368 -0.083996
C54   C     C_R   0.019675 0.753102 0.327350 0.138505
C55   C     C_3   0.973661 0.691070 0.350576 -0.484290
C56   C     C_3   0.717632 0.417767 0.765102 -0.358864
C57   C     C_3   0.969323 0.619480 0.278093 -0.460307
C58   C     C_3   0.762348 0.499106 0.664902 0.011993
C59   C     C_3   0.731515 0.581797 0.778289 -0.356463
C60   C     C_3   0.689719 0.501062 0.687569 0.157513
Cu1   Cu    Cu3+1 0.500370 0.438220 0.438550 0.937244
Cu2   Cu    Cu3+1 0.499630 0.561780 0.561450 0.936938
Cu3   Cu    Cu3+1 0.935500 0.438280 0.997350 0.927612
Cu4   Cu    Cu3+1 0.059110 0.561800 0.997270 0.934945
Cu5   Cu    Cu3+1 0.062130 0.000020 0.562160 0.945621
Cu6   Cu    Cu3+1 0.937870 0.000080 0.437940 0.941758
H1    H     H_    0.618715 0.358792 0.629953 0.171422
H2    H     H_    0.868336 0.640486 0.874669 0.168622
H3    H     H_    0.898375 0.551900 0.763938 0.181143
H4    H     H_    0.381591 0.375833 0.642049 0.149242
H5    H     H_    0.268446 0.261413 0.642130 0.156256
H6    H     H_    0.119833 0.067422 0.302012 0.191317
H7    H     H_    0.061975 0.132711 0.306913 0.205635
H8    H     H_    0.232754 0.177817 0.301335 0.206191
H9    H     H_    0.175414 0.243572 0.307455 0.189473
H10   H     H_    0.348995 0.635619 0.394863 0.160977
H11   H     H_    0.594066 0.416216 0.706793 0.164413
H12   H     H_    0.235644 0.635733 0.280200 0.144476
H13   H     H_    0.092807 0.292271 0.083147 0.160302
H14   H     H_    0.206197 0.294079 0.197895 0.166474
H15   H     H_    0.285651 0.335211 0.162426 0.208051
H16   H     H_    0.768041 0.760682 0.641111 0.150123
H17   H     H_    0.881530 0.874147 0.641217 0.153561
H18   H     H_    0.690892 0.705564 0.288424 0.203541
H19   H     H_    0.776830 0.683264 0.346350 0.185954
H20   H     H_    0.582880 0.593036 0.288302 0.195779
H21   H     H_    0.698431 0.418508 0.814901 0.182977
H22   H     H_    0.668668 0.570555 0.346434 0.211688
H23   H     H_    0.038498 0.394819 0.756673 0.160232
H24   H     H_    0.038104 0.280623 0.643137 0.146904
H25   H     H_    0.882406 0.049124 0.716734 0.193870
H26   H     H_    0.999533 0.090245 0.795416 0.210188
H27   H     H_    0.878409 0.159225 0.826300 0.201972
H28   H     H_    0.995417 0.200406 0.904837 0.206869
H29   H     H_    0.990939 0.762379 0.119043 0.145765
H30   H     H_    0.993019 0.876026 0.234129 0.151170
H31   H     H_    0.016728 0.704502 0.416122 0.203750
H32   H     H_    0.719865 0.356541 0.737238 0.165283
H33   H     H_    0.908453 0.683838 0.338091 0.186047
H34   H     H_    0.009865 0.591647 0.301885 0.196617
H35   H     H_    0.901540 0.570773 0.223459 0.210472
H36   H     H_    0.731589 0.438131 0.602415 0.156491
H37   H     H_    0.834990 0.435783 0.705379 0.136733
H38   H     H_    0.758099 0.643362 0.776863 0.164727
H39   H     H_    0.680720 0.580182 0.796911 0.174559
H40   H     H_    0.791942 0.586881 0.901903 0.154979
O1    O     O_R   0.410140 0.357660 0.448100 -0.587234
O2    O     O_R   0.049970 0.462000 0.907620 -0.588583
O3    O     O_R   0.854460 0.447890 0.906680 -0.594936
O4    O     O_R   0.958840 0.552200 0.906620 -0.596467
O5    O     O_R   0.944630 0.538080 0.087010 -0.585914
O6    O     O_R   0.049020 0.642390 0.086940 -0.585174
O7    O     O_R   0.035760 0.447880 0.088010 -0.588958
O8    O     O_R   0.140150 0.552190 0.087940 -0.581046
O9    O     O_R   0.051980 0.090160 0.642200 -0.585418
O10   O     O_R   0.947040 0.090210 0.537310 -0.584905
O11   O     O_R   0.142640 0.090190 0.552500 -0.585834
O12   O     O_R   0.409510 0.462000 0.551890 -0.585844
O13   O     O_R   0.037710 0.090250 0.447610 -0.588253
O14   O     O_R   0.052960 0.909890 0.462790 -0.581640
O15   O     O_R   0.948020 0.909940 0.357900 -0.588858
O16   O     O_R   0.962290 0.909850 0.552490 -0.587763
O17   O     O_R   0.857360 0.909910 0.447600 -0.582572
O18   O     O_R   0.590970 0.447830 0.538770 -0.590792
O19   O     O_R   0.590340 0.552170 0.642560 -0.602812
O20   O     O_R   0.590490 0.538000 0.448110 -0.582525
O21   O     O_R   0.589860 0.642340 0.551900 -0.589549
O22   O     O_R   0.409660 0.447830 0.357440 -0.588217
O23   O     O_R   0.409030 0.552170 0.461230 -0.588859
O24   O     O_R   0.945590 0.357690 0.907690 -0.587341
N1    N     N_3   0.801591 0.572901 0.653111 -0.612173
H41   H     H_    0.840974 0.562495 0.627149 0.219558
H42   H     H_    0.842642 0.630406 0.713106 0.222408
N2    N     N_3   0.176211 0.334009 0.032319 -0.572801
H43   H     H_    0.239708 0.382227 0.055955 0.236671
H44   H     H_    0.133415 0.348204 0.995059 0.212379

loop_
_geom_bond_atom_site_label_1
_geom_bond_atom_site_label_2
_ccdc_geom_bond_type
C45   C60   S    
C26   H17   S    
C47   H26   S    
C19   C20   S    
C56   H32   S    
C7    H4    S    
C39   O17   A    
C7    C8    A    
C53   C54   A    
C40   C46   A    
C26   C27   A    
C59   H39   S    
C39   O16   A    
C48   H28   S    
Cu1   O18   S    
C59   H38   S    
C14   C21   S    
C28   C29   S    
C3    H3    S    
C31   O24   A    
C5    C6    A    
Cu4   O6    S    
C58   C60   S    
C15   C16   A    
C49   C57   S    
C4    C59   S    
C35   O8    A    
C2    C32   S    
C18   C19   A    
C41   C42   A    
Cu3   O24   S    
C32   O3    A    
C54   C55   S    
C13   H9    S    
C34   O23   A    
C27   C39   S    
C8    C9    A    
C12   O18   A    
C17   C18   A    
C45   H1    S    
C23   C24   S    
C35   O7    A    
Cu1   O20   S    
C33   O5    A    
C30   H20   S    
C31   C41   S    
C18   C35   S    
C15   C34   S    
C5    C13   S    
C38   O14   A    
C59   C60   S    
C22   C28   A    
Cu5   O9    S    
Cu2   O23   S    
C47   H25   S    
C44   C46   A    
Cu4   O2    S    
C43   H24   S    
Cu4   O8    S    
C48   H27   S    
C51   C52   A    
C24   C25   A    
C45   C56   S    
C29   H18   S    
C11   H7    S    
C4    H2    S    
C11   H6    S    
C16   C17   A    
C56   H21   S    
N2    H44   S    
C12   O19   A    
C33   C50   S    
C57   H34   S    
C4    H40   S    
C1    C6    S    
C12   C60   S    
Cu3   O3    S    
C2    C4    S    
C43   C44   A    
C29   C30   S    
Cu4   O4    S    
C47   C48   S    
C37   O13   A    
C58   N1    S    
C55   H31   S    
C9    C37   S    
C50   C51   A    
Cu6   O15   S    
C33   O6    A    
Cu5   O16   S    
C13   H8    S    
C6    C7    A    
Cu6   O10   S    
C1    O1    A    
C23   O20   A    
C58   H36   S    
C40   C41   A    
C21   H15   S    
C49   C50   A    
Cu6   O13   S    
C55   C57   S    
C25   H16   S    
C22   C24   A    
C36   C44   S    
C42   C43   A    
C30   H22   S    
N1    H41   S    
C36   O10   A    
C31   O2    A    
C52   C53   A    
C23   O21   A    
C9    C10   A    
C3    H37   S    
C40   C48   S    
C46   C47   S    
C8    H5    S    
C22   C30   S    
C20   H13   S    
C16   H10   S    
C29   H19   S    
C14   C19   A    
N1    H42   S    
Cu2   O19   S    
N2    H43   S    
C57   H35   S    
C42   H23   S    
C2    C3    S    
C25   C26   A    
C5    C10   A    
C2    C56   S    
Cu6   O17   S    
C11   C13   S    
Cu2   O21   S    
C38   C53   S    
C21   H14   S    
C17   H12   S    
Cu5   O14   S    
C52   H30   S    
Cu1   O22   S    
C1    O12   A    
Cu3   O5    S    
Cu1   Cu2   S    
Cu1   O1    S    
Cu2   O12   S    
C38   O15   A    
C10   C11   S    
Cu3   Cu4   S    
Cu3   O7    S    
C3    C58   S    
C37   O11   A    
C20   C21   S    
C34   O22   A    
Cu5   Cu6   S    
C32   O4    A    
C55   H33   S    
C27   C28   A    
Cu5   O11   S    
C14   C15   A    
C45   H11   S    
C20   N2    S    
C36   O9    A    
C49   C54   A    
C51   H29   S    
