data_mof_unit_27583.cif
_audit_creation_date              2012-12-11T15:53:55-0500
_audit_creation_method            fapswitch 2.2
_symmetry_space_group_name_H-M    P1
_symmetry_Int_Tables_number       1
_space_group_crystal_system       triclinic
_cell_length_a                    10.676338
_cell_length_b                    10.747086
_cell_length_c                    17.0059
_cell_angle_alpha                 80.472324
_cell_angle_beta                  99.56589
_cell_angle_gamma                 119.317065
_cell_volume                      1669.62746885

loop_
_atom_site_label
_atom_site_type_symbol
_atom_type_description
_atom_site_fract_x
_atom_site_fract_y
_atom_site_fract_z
_atom_type_partial_charge
C1    C     C_R   0.384961 0.283607 0.632059 0.565888
C2    C     C_R   0.413951 0.825176 0.681017 -0.132384
C3    C     C_R   0.396366 0.846990 0.756352 -0.147325
C4    C     C_3   0.046313 0.482393 0.769518 -0.248680
C5    C     C_3   0.058483 0.461819 0.683986 -0.070756
C6    C     C_R   0.319388 0.694502 0.647145 0.013478
C7    C     C_1   0.849152 0.670281 0.702582 -0.049505
C8    C     C_1   0.895826 0.704963 0.769297 -0.043831
C9    C     C_1   0.366325 0.231490 0.714322 -0.000124
C10   C     C_1   0.335067 0.184556 0.781568 0.014500
C11   C     C_1   0.318105 0.682314 0.280270 -0.055124
C12   C     C_R   0.367885 0.656113 0.584317 0.542840
C13   C     C_1   0.296965 0.706341 0.209658 -0.057975
C14   C     C_R   0.803840 0.652866 0.150035 0.017424
C15   C     C_R   0.777856 0.526029 0.199356 0.016992
C16   C     C_R   0.765113 0.517784 0.278696 0.019918
C17   C     C_R   0.765569 0.744703 0.259109 -0.134671
C18   C     C_R   0.782293 0.756143 0.178066 -0.132021
C19   C     C_3   0.857329 0.439369 0.217146 -0.244878
C20   C     C_3   0.841323 0.430771 0.304762 -0.241960
C21   C     C_R   0.775788 0.633210 0.311561 0.012741
C22   C     C_R   0.339951 0.183942 0.154886 0.026516
C23   C     C_R   0.780821 0.621151 0.626159 0.538396
C24   C     C_R   0.270125 0.251227 0.177560 -0.007835
C25   C     C_R   0.272923 0.262004 0.256527 0.016295
C26   C     C_R   0.440220 0.167980 0.292748 -0.153993
C27   C     C_R   0.438145 0.156854 0.211984 -0.156014
C28   C     C_3   0.122617 0.240101 0.158236 -0.259458
C29   C     C_3   0.128000 0.256429 0.246311 -0.047693
C30   C     C_R   0.346164 0.208310 0.315981 0.063884
C31   C     C_R   0.946445 0.725091 0.851634 0.534519
C32   C     C_R   0.281436 0.751603 0.882823 0.556709
C33   C     C_R   0.286740 0.117797 0.858320 0.551824
C34   C     C_R   0.353886 0.233163 0.397211 0.578038
C35   C     C_R   0.882731 0.688500 0.081694 0.555040
C36   C     C_R   0.284524 0.738641 0.125579 0.570864
C37   C     C_R   0.288661 0.111962 0.083207 0.552812
C38   C     C_R   0.362037 0.656941 0.361696 0.544860
C39   C     C_R   0.759517 0.615994 0.395568 0.542255
C40   C     C_R   0.283800 0.739010 0.799601 0.008745
C41   C     C_R   0.179899 0.622405 0.759168 -0.013954
C42   C     C_R   0.196473 0.600611 0.685822 -0.003778
Cr1   Cr    Cr6+3 0.608440 0.389080 0.519680 1.031757
Cr2   Cr    Cr6+3 0.288640 0.400090 0.490760 1.065646
Cr3   Cr    Cr6+3 0.602940 0.710800 0.489510 1.040190
Cr4   Cr    Cr6+3 0.052530 0.947560 0.964210 1.032961
Cr5   Cr    Cr6+3 0.059970 0.626800 0.992920 1.002750
Cr6   Cr    Cr6+3 0.373320 0.938440 0.995370 1.012061
H1    H     H_    0.508238 0.906749 0.652563 0.158414
H2    H     H_    0.794967 0.333734 0.192271 0.164929
H3    H     H_    0.768939 0.320587 0.330333 0.169565
H4    H     H_    0.945875 0.489039 0.341289 0.147999
H5    H     H_    0.509131 0.138346 0.336898 0.137669
H6    H     H_    0.500565 0.111546 0.196213 0.150975
H7    H     H_    0.037634 0.133753 0.139758 0.164003
H8    H     H_    0.124658 0.333333 0.117674 0.145627
H9    H     H_    0.136860 0.360235 0.256342 0.110910
H10   H     H_    0.475768 0.944637 0.782404 0.144257
H11   H     H_    0.949058 0.490917 0.774008 0.138621
H12   H     H_    0.065320 0.408769 0.818176 0.185106
H13   H     H_    0.976137 0.472142 0.638371 0.147395
H14   H     H_    0.752320 0.826109 0.280901 0.180742
H15   H     H_    0.792771 0.851578 0.140123 0.147228
H16   H     H_    0.972350 0.500628 0.204624 0.156126
O1    O     O_R   0.754020 0.497590 0.609930 -0.526929
O2    O     O_R   0.295080 0.533620 0.397890 -0.511639
O3    O     O_R   0.485280 0.746620 0.388440 -0.501108
O4    O     O_R   0.720550 0.696220 0.420010 -0.512558
O5    O     O_3   0.500010 0.499990 0.499980 -0.279250
O6    O     O_R   0.163320 0.092900 0.874450 -0.469829
O7    O     O_R   0.934650 0.822080 0.882840 -0.472391
O8    O     O_R   0.915520 0.604140 0.893670 -0.516338
O9    O     O_R   0.191760 0.638110 0.923230 -0.496291
O10   O     O_R   0.406180 0.826930 0.920660 -0.497310
O11   O     O_R   0.358620 0.062870 0.901950 -0.535797
O12   O     O_R   0.481420 0.271390 0.600630 -0.499175
O13   O     O_R   0.163910 0.085460 0.050210 -0.518031
O14   O     O_R   0.935200 0.815170 0.045770 -0.498459
O15   O     O_R   0.916120 0.596690 0.069430 -0.526672
O16   O     O_R   0.192310 0.631200 0.086170 -0.503322
O17   O     O_R   0.406770 0.819480 0.096420 -0.491379
O18   O     O_R   0.359170 0.055960 0.064880 -0.522743
O19   O     O_3   0.161940 0.837600 0.984160 -0.315094
O20   O     O_R   0.263810 0.254550 0.589590 -0.481691
O21   O     O_R   0.300820 0.531200 0.560890 -0.492392
O22   O     O_R   0.491480 0.744020 0.564270 -0.519642
O23   O     O_R   0.726290 0.693800 0.583010 -0.485507
O24   O     O_R   0.747830 0.500190 0.434090 -0.511806
O25   O     O_R   0.475680 0.273800 0.437630 -0.512128
O26   O     O_R   0.257620 0.257160 0.413750 -0.484124
C43   C     C_2   0.010761 0.128158 0.289144 0.582503
O27   O     O_2   0.890705 0.118316 0.283697 -0.559612
O28   O     O_R   0.038876 0.022876 0.335798 -0.693031
H17   H     H_    0.956598 0.951935 0.368318 0.336028
C44   C     C_2   0.069360 0.329924 0.679320 0.602465
O29   O     O_2   0.141742 0.294244 0.731527 -0.523134
O30   O     O_R   0.988788 0.243597 0.617340 -0.689192
H18   H     H_    0.996738 0.152245 0.623113 0.348072

loop_
_geom_bond_atom_site_label_1
_geom_bond_atom_site_label_2
_ccdc_geom_bond_type
C5    C42   S    
O28   H17   S    
C44   O29   D    
C39   O4    A    
C14   C18   A    
Cr2   O2    S    
C19   C20   S    
Cr5   O15   S    
O30   H18   S    
C28   H8    S    
C27   H6    S    
C7    C8    T    
C1    O20   A    
C15   C19   S    
C26   C27   A    
C16   C21   A    
C12   O21   A    
Cr1   O24   S    
C39   O24   A    
C28   C29   S    
Cr3   O23   S    
C20   H3    S    
C6    C12   S    
C18   H15   S    
C4    C41   S    
C15   C16   A    
Cr1   O12   S    
Cr6   O17   S    
C41   C42   A    
C33   O11   A    
C38   O2    A    
Cr3   O3    S    
Cr5   O19   S    
C9    C10   T    
C19   H16   S    
Cr1   O1    S    
C31   O7    A    
Cr1   O5    S    
C23   O23   A    
C8    C31   S    
Cr6   O11   S    
C2    C6    A    
Cr5   O16   S    
C5    C44   S    
C28   H7    S    
C25   C29   S    
C30   C34   S    
Cr3   O5    S    
Cr6   O10   S    
C1    C9    S    
C24   C25   A    
Cr5   O9    S    
C13   C36   S    
C36   O16   A    
C32   O9    A    
Cr4   O14   S    
C22   C37   S    
C37   O13   A    
C14   C35   S    
C17   C21   A    
C11   C38   S    
C34   O26   A    
C2    H1    S    
C17   H14   S    
C43   O28   S    
C21   C39   S    
C36   O17   A    
C16   C20   S    
C4    H12   S    
Cr3   O4    S    
C17   C18   A    
C5    H13   S    
Cr2   O5    S    
Cr1   O25   S    
Cr4   O7    S    
C33   O6    A    
C31   O8    A    
C29   H9    S    
C3    C40   A    
C26   C30   A    
C22   C27   A    
C22   C24   A    
C37   O18   A    
Cr2   O21   S    
C26   H5    S    
C43   O27   D    
Cr2   O26   S    
C25   C30   A    
C40   C41   A    
C1    O12   A    
C24   C28   S    
C4    C5    S    
Cr2   O20   S    
Cr4   O13   S    
C44   O30   S    
C35   O14   A    
Cr6   O19   S    
C12   O22   A    
C23   O1    A    
C2    C3    A    
C34   O25   A    
C20   H4    S    
C32   O10   A    
C11   C13   T    
C19   H2    S    
C7    C23   S    
C4    H11   S    
C35   O15   A    
Cr6   O18   S    
Cr3   O22   S    
C10   C33   S    
C32   C40   S    
Cr5   O8    S    
Cr4   O6    S    
Cr4   O19   S    
C3    H10   S    
C38   O3    A    
C6    C42   A    
C14   C15   A    
C29   C43   S    
