data_mof_unit_60458.cif
_audit_creation_date              2013-03-05T16:58:27-0500
_audit_creation_method            fapswitch 2.2
_symmetry_space_group_name_H-M    P1
_symmetry_Int_Tables_number       1
_space_group_crystal_system       triclinic
_cell_length_a                    17.592169
_cell_length_b                    16.749886
_cell_length_c                    27.736503
_cell_angle_alpha                 90.184816
_cell_angle_beta                  90.460445
_cell_angle_gamma                 90.019327
_cell_volume                      8172.72031212

loop_
_atom_site_label
_atom_site_type_symbol
_atom_site_description
_atom_site_fract_x
_atom_site_fract_y
_atom_site_fract_z
_atom_type_partial_charge
O1    O     O_R   0.389110 0.566570 0.500000 -0.579752
O2    O     O_R   0.610890 0.433430 0.500000 -0.576966
O3    O     O_R   0.610890 0.566570 0.500000 -0.567096
O4    O     O_R   0.389110 0.433430 0.500000 -0.565642
C1    C     C_R   0.353577 0.499912 0.499937 1.017818
C2    C     C_R   0.646406 0.499897 0.499632 1.018720
O5    O     O_R   0.500010 0.566530 0.428750 -0.567352
O6    O     O_R   0.499990 0.433470 0.571250 -0.529353
O7    O     O_R   0.499990 0.566530 0.571250 -0.584365
O8    O     O_R   0.500010 0.433470 0.428750 -0.542476
C3    C     C_R   0.500286 0.499939 0.405712 1.049073
C4    C     C_R   0.499458 0.500086 0.594424 1.030100
Zn1   Zn    Zn3+2 0.500000 0.588860 0.500000 1.163873
Zn2   Zn    Zn3+2 0.500000 0.411140 0.500000 1.186558
C5    C     C_R   0.436066 0.527811 0.177551 0.670910
C6    C     C_R   0.551026 0.482067 0.822413 0.664652
O9    O     O_2   0.381033 0.563210 0.203641 -0.385027
O10   O     O_2   0.615260 0.476841 0.796300 -0.389975
N1    N     N_R   0.495439 0.491628 0.200717 -0.349572
N2    N     N_R   0.482501 0.488074 0.799264 -0.350731
C7    C     C_R   0.551732 0.453029 0.176407 0.704717
C8    C     C_R   0.415457 0.490905 0.823589 0.708925
C9    C     C_R   0.474097 0.429246 0.278099 -0.176804
C10   C     C_R   0.469311 0.425542 0.720734 -0.172405
C11   C     C_R   0.474419 0.431175 0.327982 0.681029
C12   C     C_R   0.475571 0.427673 0.671026 0.703123
C13   C     C_R   0.525762 0.566678 0.326384 0.164371
C14   C     C_R   0.506815 0.569624 0.675344 0.137853
C15   C     C_R   0.525115 0.564355 0.275711 0.271430
C16   C     C_R   0.499948 0.566946 0.725774 0.273066
C17   C     C_R   0.499144 0.494957 0.252036 0.012286
C18   C     C_R   0.481673 0.494206 0.748017 0.009930
C19   C     C_R   0.491392 0.490805 0.101155 -0.204832
C20   C     C_R   0.486152 0.487872 0.898819 -0.205079
C21   C     C_R   0.432517 0.528139 0.127012 -0.174474
C22   C     C_R   0.554529 0.481809 0.872910 -0.172437
C23   C     C_R   0.373857 0.567599 0.101871 0.648259
C24   C     C_R   0.624403 0.479754 0.897914 0.649480
C25   C     C_R   0.551357 0.452188 0.125919 -0.250062
C26   C     C_R   0.415713 0.491537 0.874120 -0.251392
C27   C     C_R   0.500292 0.499548 0.352746 -0.314784
C28   C     C_R   0.494664 0.499463 0.647525 -0.335199
C29   C     C_R   0.420698 0.506419 0.975336 -0.094817
C30   C     C_R   0.553978 0.463303 0.024658 -0.094585
C31   C     C_R   0.557400 0.477486 0.974469 -0.020311
C32   C     C_R   0.426281 0.522140 0.025429 -0.019791
C33   C     C_R   0.488137 0.490608 0.949546 -0.000775
C34   C     C_R   0.490513 0.492163 0.050410 -0.000554
C35   C     C_R   0.350412 0.501989 0.950573 0.582732
C36   C     C_R   0.609388 0.418213 0.049568 0.581034
C37   C     C_R   0.347971 0.495391 0.900569 0.665808
C38   C     C_R   0.608513 0.413378 0.099593 0.666300
O11   O     O_2   0.349343 0.494905 0.798716 -0.383993
O12   O     O_2   0.608309 0.417095 0.201292 -0.385759
C39   C     C_R   0.371258 0.566717 0.051349 0.197635
C40   C     C_R   0.626562 0.479722 0.948411 0.196196
H1    H     H_    0.455983 0.369756 0.738420 0.215769
H2    H     H_    0.453488 0.376591 0.259353 0.216027
C41   C     C_R   0.849823 0.534660 0.533901 0.220955
C42   C     C_R   0.153664 0.450001 0.533670 0.227422
C43   C     C_R   0.151851 0.534105 0.461520 0.219834
C44   C     C_R   0.844541 0.450955 0.461277 0.227805
C45   C     C_R   0.770522 0.538540 0.534592 0.181342
C46   C     C_R   0.233027 0.454884 0.535215 0.183853
C47   C     C_R   0.231152 0.538666 0.462608 0.183779
C48   C     C_R   0.765128 0.455234 0.461559 0.195892
C49   C     C_R   0.728593 0.498938 0.498243 -0.316417
C50   C     C_R   0.271334 0.498976 0.499622 -0.320709
C51   C     C_R   0.885919 0.490683 0.497587 -0.202601
C52   C     C_R   0.114059 0.489648 0.496707 -0.200848
C53   C     C_1   0.966256 0.489597 0.496693 0.225172
C54   C     C_1   0.033689 0.489239 0.496465 0.224672
C55   C     C_R   0.444655 0.832019 0.473374 0.100021
C56   C     C_R   0.554117 0.168164 0.527747 0.099087
C57   C     C_R   0.550895 0.832285 0.529998 0.099977
C58   C     C_R   0.451182 0.167686 0.468663 0.095479
C59   C     C_R   0.447886 0.747553 0.472848 0.638713
C60   C     C_R   0.550683 0.252592 0.528301 0.643470
C61   C     C_R   0.551427 0.747883 0.527617 0.640766
C62   C     C_R   0.450717 0.252153 0.470768 0.645200
N3    N     N_R   0.500000 0.707230 0.500000 -0.246816
N4    N     N_R   0.500000 0.292770 0.500000 -0.244026
C63   C     C_R   0.497218 0.875554 0.502150 -0.285240
C64   C     C_R   0.503146 0.124537 0.497899 -0.283564
C65   C     C_1   0.499301 0.963543 0.500721 0.272880
C66   C     C_1   0.501136 0.036548 0.499418 0.274440
N5    N     N_R   0.557162 0.634848 0.350665 0.258122
O13   O     O_R   0.626121 0.632177 0.367855 -0.290874
O14   O     O_R   0.514587 0.696539 0.359626 -0.239552
N6    N     N_R   0.525491 0.643742 0.652888 0.269195
O15   O     O_R   0.472460 0.696215 0.644786 -0.295285
O16   O     O_R   0.596394 0.664010 0.648251 -0.160515
N7    N     N_R   0.732746 0.576828 0.574165 0.268839
O17   O     O_R   0.683531 0.537384 0.599509 -0.328117
O18   O     O_R   0.750951 0.649138 0.587045 -0.163010
N8    N     N_R   0.274739 0.414797 0.572719 0.255275
O19   O     O_R   0.264366 0.338975 0.580332 -0.235022
O20   O     O_R   0.321388 0.454611 0.600349 -0.362991
N9    N     N_R   0.270685 0.578773 0.424488 0.268529
O21   O     O_R   0.322827 0.541467 0.400223 -0.333354
O22   O     O_R   0.250902 0.650407 0.411479 -0.178041
N10   N     N_R   0.721612 0.414336 0.425047 0.249182
O23   O     O_R   0.731892 0.338435 0.417398 -0.250232
O24   O     O_R   0.673604 0.453478 0.398191 -0.359287
N11   N     N_R   0.387520 0.872340 0.445192 0.280961
O25   O     O_R   0.367140 0.844532 0.403174 -0.164163
O26   O     O_R   0.350537 0.932531 0.463249 -0.276010
N12   N     N_R   0.610106 0.127923 0.556844 0.279470
O27   O     O_R   0.627854 0.155040 0.599486 -0.189295
O28   O     O_R   0.649094 0.069001 0.538976 -0.270883
N13   N     N_R   0.604041 0.872855 0.561194 0.285147
O29   O     O_R   0.672983 0.845972 0.566499 -0.174740
O30   O     O_R   0.581513 0.931691 0.588278 -0.262761
N14   N     N_R   0.399712 0.126956 0.436401 0.284017
O31   O     O_R   0.331382 0.154355 0.429139 -0.189349
O32   O     O_R   0.423131 0.066820 0.410697 -0.269190
F1    F     F_    0.397640 0.705370 0.445678 -0.532302
F2    F     F_    0.599802 0.294912 0.556328 -0.546938
F3    F     F_    0.602848 0.706051 0.553781 -0.528212
F4    F     F_    0.402035 0.294073 0.442423 -0.522467
N15   N     N_R   0.551916 0.631405 0.248340 0.248647
O33   O     O_R   0.530520 0.703545 0.259174 -0.211940
O34   O     O_R   0.596555 0.620614 0.211722 -0.294599
N16   N     N_R   0.512100 0.637531 0.754530 0.248148
O35   O     O_R   0.571306 0.682470 0.747606 -0.207121
O36   O     O_R   0.465364 0.655779 0.788965 -0.296497
F5    F     F_    0.321036 0.610816 0.126121 -0.508443
F6    F     F_    0.691053 0.482284 0.873522 -0.507264
F7    F     F_    0.462238 0.359029 0.646166 -0.556309
F8    F     F_    0.447909 0.366368 0.351836 -0.541981
F9    F     F_    0.278867 0.492620 0.878430 -0.492013
F10   F     F_    0.663809 0.370181 0.121863 -0.493587
F11   F     F_    0.283735 0.497232 0.974702 -0.542141
F12   F     F_    0.660930 0.373029 0.025611 -0.544741
N17   N     N_R   0.319904 0.620450 0.027132 0.282092
O37   O     O_R   0.344102 0.664978 0.992072 -0.292120
O38   O     O_R   0.250963 0.630480 0.042710 -0.142399
N18   N     N_R   0.698219 0.493936 0.972362 0.282879
O39   O     O_R   0.703016 0.546473 0.006936 -0.287413
O40   O     O_R   0.760055 0.460028 0.956990 -0.140410
N19   N     N_R   0.893814 0.572565 0.571207 0.245136
O41   O     O_R   0.907814 0.648692 0.568806 -0.235011
O42   O     O_R   0.930001 0.529256 0.602750 -0.252254
N20   N     N_R   0.113366 0.407512 0.570548 0.257688
O43   O     O_R   0.128828 0.420494 0.615857 -0.213718
O44   O     O_R   0.060875 0.355965 0.559015 -0.264180
N21   N     N_R   0.109589 0.572136 0.423645 0.246254
O45   O     O_R   0.092404 0.647417 0.427310 -0.238698
O46   O     O_R   0.077344 0.528978 0.390194 -0.249920
N22   N     N_R   0.882970 0.408694 0.423353 0.258016
O47   O     O_R   0.864648 0.421225 0.378465 -0.209643
O48   O     O_R   0.936314 0.357486 0.433502 -0.264457

loop_
_geom_bond_atom_site_label_1
_geom_bond_atom_site_label_2
_geom_bond_distance
_ccdc_geom_bond_type
C43   C52   1.401349 A    
C9    H2    1.083250 S    
C30   C34   1.414696 A    
N5    O13   1.300720 A    
C62   F4    1.355633 S    
N7    O17   1.301024 A    
C13   C15   1.405856 A    
C48   N10   1.436548 S    
N21   O45   1.300640 A    
O3    C2    1.279901 A    
N1    C17   1.425288 S    
C58   C64   1.417008 A    
N14   O31   1.301255 A    
N18   O39   1.301645 A    
N17   O37   1.301625 A    
C65   C66   1.223901 T    
O5    C3    1.283703 A    
N11   O26   1.301160 A    
C19   C25   1.412339 A    
O1    C1    1.279397 A    
C46   C50   1.410415 A    
C61   F3    1.352420 S    
C60   F2    1.355998 S    
C10   C12   1.384583 A    
C59   F1    1.354225 S    
N19   O42   1.300924 A    
C7    O12   1.349587 S    
C56   C64   1.416745 A    
C30   C36   1.411022 A    
Zn1   N3    1.982684 S    
N12   O27   1.301239 A    
C5    O9    1.349600 S    
C51   C53   1.413832 S    
O7    Zn1   2.012493 S    
C4    C28   1.475996 S    
C64   C66   1.474959 S    
N6    O16   1.300082 A    
N13   O29   1.301278 A    
C31   C40   1.420716 A    
N12   O28   1.301114 A    
C10   H1    1.083242 S    
C35   C37   1.391294 A    
C15   N15   1.439043 S    
C32   C39   1.421101 A    
C13   C27   1.417726 A    
C36   C38   1.390341 A    
C42   C52   1.403845 A    
O3    Zn1   1.986323 S    
C6    N2    1.365158 A    
C48   C49   1.410780 A    
N7    O18   1.300880 A    
O2    C2    1.276576 A    
C1    C50   1.446879 S    
C11   F8    1.357516 S    
C5    C21   1.402701 A    
O7    C4    1.287070 A    
C14   N6    1.430082 S    
C8    O11   1.349331 S    
C32   C34   1.413892 A    
C31   C33   1.413690 A    
C45   C49   1.408529 A    
C44   C48   1.398988 A    
N10   O23   1.301165 A    
C38   F10   1.358343 S    
C47   N9    1.438405 S    
N20   O44   1.301327 A    
C36   F12   1.357717 S    
C11   C27   1.407160 A    
C61   N3    1.361621 A    
C37   F9    1.358282 S    
C29   C35   1.411421 A    
C44   C51   1.403753 A    
N8    O20   1.300673 A    
C9    C17   1.392165 A    
C5    N1    1.365015 A    
C10   C18   1.390781 A    
C40   N18   1.439610 S    
C60   N4    1.362582 A    
C55   N11   1.438291 S    
N9    O21   1.300944 A    
C7    C25   1.400329 A    
C59   N3    1.362512 A    
O6    C4    1.285977 A    
C47   C50   1.410198 A    
C8    C26   1.401530 A    
N8    O19   1.301155 A    
N13   O30   1.301093 A    
N10   O24   1.300535 A    
C24   F6    1.359130 S    
C46   N8    1.436651 S    
N15   O33   1.300717 A    
C12   F7    1.358139 S    
N18   O40   1.301549 A    
C41   C51   1.402191 A    
C62   N4    1.362593 A    
C2    C49   1.446768 S    
N9    O22   1.300773 A    
N2    C8    1.364233 A    
C42   N20   1.439210 S    
N5    O14   1.300904 A    
O8    Zn2   2.012495 S    
N22   O48   1.301323 A    
O1    Zn1   1.986079 S    
Zn2   N4    1.982684 S    
C30   C31   1.414700 A    
C12   C28   1.411364 A    
N16   O36   1.300977 A    
N2    C18   1.425410 S    
C21   C23   1.407085 A    
N17   O38   1.301522 A    
C35   F11   1.357611 S    
O6    Zn2   2.010122 S    
C44   N22   1.439282 S    
N21   O46   1.300819 A    
C57   N13   1.437835 S    
C58   C62   1.415858 A    
C16   N16   1.438979 S    
O4    C1    1.277199 A    
N14   O32   1.301161 A    
C26   C37   1.405831 A    
N11   O25   1.301302 A    
C45   N7    1.437057 S    
C41   C45   1.396882 A    
C42   C46   1.398828 A    
N20   O43   1.301275 A    
C22   C24   1.407000 A    
C43   N21   1.433243 S    
C53   C54   1.186381 T    
C15   C17   1.407504 A    
N19   O41   1.300625 A    
C13   N5    1.432187 S    
C16   C18   1.405768 A    
C57   C63   1.416317 A    
N6    O15   1.300698 A    
C58   N14   1.438282 S    
C57   C61   1.415103 A    
C39   N17   1.439471 S    
C14   C28   1.418982 A    
C19   C21   1.409835 A    
C14   C16   1.405785 A    
C3    C27   1.469072 S    
C20   C22   1.409680 A    
C9    C11   1.383808 A    
O4    Zn2   1.986327 S    
C63   C65   1.474911 S    
O2    Zn2   1.986076 S    
C29   C32   1.415942 A    
N15   O34   1.301022 A    
O8    C3    1.285508 A    
C56   N12   1.437688 S    
C23   C39   1.401717 A    
C43   C47   1.397226 A    
O5    Zn1   2.010124 S    
C24   C40   1.400813 A    
C41   N19   1.433621 S    
C6    O10   1.349808 S    
C56   C60   1.415502 A    
C19   C34   1.407726 A    
C55   C59   1.415998 A    
N22   O47   1.301280 A    
C20   C26   1.412550 A    
C52   C54   1.413866 S    
C20   C33   1.407721 A    
C23   F5    1.359118 S    
C29   C33   1.414916 A    
C55   C63   1.416953 A    
C6    C22   1.401513 A    
C25   C38   1.405705 A    
N16   O35   1.300747 A    
N1    C7    1.364451 A    
