data_mof_unit_28879.cif
_audit_creation_date              2013-03-05T15:59:28-0500
_audit_creation_method            fapswitch 2.2
_symmetry_space_group_name_H-M    P1
_symmetry_Int_Tables_number       1
_space_group_crystal_system       triclinic
_cell_length_a                    18.369289
_cell_length_b                    26.083738
_cell_length_c                    18.447278
_cell_angle_alpha                 90.016378
_cell_angle_beta                  89.997791
_cell_angle_gamma                 90.025114
_cell_volume                      8838.82242704

loop_
_atom_site_label
_atom_site_type_symbol
_atom_site_description
_atom_site_fract_x
_atom_site_fract_y
_atom_site_fract_z
_atom_type_partial_charge
Zn1   Zn    Zn3+2 0.500000 0.706650 0.586810 1.131538
Zn2   Zn    Zn3+2 0.500000 0.293350 0.413190 1.144389
Zn3   Zn    Zn3+2 0.500000 0.706650 0.413190 1.133235
Zn4   Zn    Zn3+2 0.500000 0.293350 0.586810 1.147132
Zn5   Zn    Zn3+2 1.000000 0.206650 0.086810 1.144048
Zn6   Zn    Zn3+2 0.000000 0.793350 0.913190 1.133938
Zn7   Zn    Zn3+2 1.000000 0.206650 0.913190 1.145422
Zn8   Zn    Zn3+2 0.000000 0.793350 0.086810 1.130347
Zn9   Zn    Zn3+2 0.586710 0.793420 0.500000 1.144399
Zn10  Zn    Zn3+2 0.413290 0.206580 0.500000 1.146588
Zn11  Zn    Zn3+2 0.413290 0.793420 0.500000 1.143590
Zn12  Zn    Zn3+2 0.586710 0.206580 0.500000 1.144452
Zn13  Zn    Zn3+2 0.086710 0.293420 0.000000 1.148523
Zn14  Zn    Zn3+2 0.913290 0.706580 0.000000 1.137331
Zn15  Zn    Zn3+2 0.913290 0.293420 0.000000 1.145109
Zn16  Zn    Zn3+2 0.086710 0.706580 0.000000 1.150854
O1    O     O_3   0.500000 0.750040 0.500000 -0.600401
O2    O     O_3   0.500000 0.249960 0.500000 -0.603618
O3    O     O_3   0.000000 0.250040 0.000000 -0.603665
O4    O     O_3   0.000000 0.749960 0.000000 -0.600842
O5    O     O_R   0.585420 0.719700 0.353880 -0.577604
O6    O     O_R   0.414580 0.280300 0.646120 -0.566853
O7    O     O_R   0.414580 0.719700 0.646120 -0.579942
O8    O     O_R   0.585420 0.280300 0.353880 -0.569851
O9    O     O_R   0.585420 0.280300 0.646120 -0.579487
O10   O     O_R   0.414580 0.719700 0.353880 -0.576924
O11   O     O_R   0.414580 0.280300 0.353880 -0.577192
O12   O     O_R   0.585420 0.719700 0.646120 -0.578641
O13   O     O_R   0.085420 0.219700 0.853880 -0.578928
O14   O     O_R   0.914580 0.780300 0.146120 -0.578177
O15   O     O_R   0.914580 0.219700 0.146120 -0.578564
O16   O     O_R   0.085420 0.780300 0.853880 -0.574624
O17   O     O_R   0.085420 0.780300 0.146120 -0.576840
O18   O     O_R   0.914580 0.219700 0.853880 -0.569255
O19   O     O_R   0.914580 0.780300 0.853880 -0.577104
O20   O     O_R   0.085420 0.219700 0.146120 -0.568156
O21   O     O_R   0.646120 0.780390 0.585510 -0.572899
O22   O     O_R   0.353880 0.219610 0.414490 -0.558484
O23   O     O_R   0.353880 0.780390 0.414490 -0.569004
O24   O     O_R   0.646120 0.219610 0.585510 -0.557391
O25   O     O_R   0.646120 0.219610 0.414490 -0.577403
O26   O     O_R   0.353880 0.780390 0.585510 -0.560623
O27   O     O_R   0.353880 0.219610 0.585510 -0.578458
O28   O     O_R   0.646120 0.780390 0.414490 -0.560102
O29   O     O_R   0.146120 0.280390 0.085510 -0.576875
O30   O     O_R   0.853880 0.719610 0.914490 -0.563767
O31   O     O_R   0.853880 0.280390 0.914490 -0.578725
O32   O     O_R   0.146120 0.719610 0.085510 -0.557892
O33   O     O_R   0.146120 0.719610 0.914490 -0.570824
O34   O     O_R   0.853880 0.280390 0.085510 -0.558119
O35   O     O_R   0.853880 0.719610 0.085510 -0.570091
O36   O     O_R   0.146120 0.280390 0.914490 -0.556039
O37   O     O_R   0.560660 0.865840 0.500000 -0.589696
O38   O     O_R   0.439340 0.134160 0.500000 -0.587191
O39   O     O_R   0.439340 0.865840 0.500000 -0.592602
O40   O     O_R   0.560660 0.134160 0.500000 -0.587794
O41   O     O_R   0.060660 0.365840 0.000000 -0.586578
O42   O     O_R   0.939340 0.634160 0.000000 -0.597585
O43   O     O_R   0.939340 0.365840 0.000000 -0.587501
O44   O     O_R   0.060660 0.634160 0.000000 -0.581318
O45   O     O_R   0.500000 0.634240 0.439310 -0.613506
O46   O     O_R   0.500000 0.365760 0.560690 -0.610560
O47   O     O_R   0.500000 0.634240 0.560690 -0.611718
O48   O     O_R   0.500000 0.365760 0.439310 -0.611448
O49   O     O_R   0.000000 0.134240 0.939310 -0.612589
O50   O     O_R   1.000000 0.865760 0.060690 -0.611759
O51   O     O_R   1.000000 0.134240 0.060690 -0.611537
O52   O     O_R   0.000000 0.865760 0.939310 -0.613026
C1    C     C_R   0.640403 0.749707 0.360146 0.958594
C2    C     C_R   0.360000 0.249745 0.640216 0.942208
C3    C     C_R   0.359509 0.749734 0.639756 0.959365
C4    C     C_R   0.640046 0.249797 0.359830 0.935598
C5    C     C_R   0.640096 0.250044 0.640014 0.958469
C6    C     C_R   0.360068 0.750617 0.359794 0.937631
C7    C     C_R   0.359809 0.250074 0.360040 0.946936
C8    C     C_R   0.639944 0.750662 0.640193 0.930672
C9    C     C_R   0.140203 0.249888 0.860086 0.959171
C10   C     C_R   0.860069 0.749327 0.140221 0.935438
C11   C     C_R   0.859829 0.249871 0.139935 0.950848
C12   C     C_R   0.139880 0.749325 0.859678 0.936718
C13   C     C_R   0.140398 0.750201 0.139863 0.938404
C14   C     C_R   0.860001 0.250245 0.859842 0.938658
C15   C     C_R   0.859511 0.750341 0.860220 0.954979
C16   C     C_R   0.139988 0.250218 0.140203 0.940282
C17   C     C_R   0.500053 0.890054 0.499711 0.889521
C18   C     C_R   0.499990 0.109803 0.499526 0.877739
C19   C     C_R   0.000016 0.390222 0.000274 0.878389
C20   C     C_R   0.000008 0.609953 0.000256 0.890140
C21   C     C_R   0.498847 0.609711 0.500073 0.864916
C22   C     C_R   0.499627 0.389736 0.499870 0.919141
C23   C     C_R   0.000253 0.110248 0.999850 0.918615
C24   C     C_R   0.000904 0.890283 0.000075 0.866955
H1    H     H_    0.452858 0.533452 0.747135 0.224865
H2    H     H_    0.600382 0.462275 0.271221 0.240635
H3    H     H_    0.517250 0.534169 0.249705 0.227138
H4    H     H_    0.374256 0.460593 0.718518 0.241484
H5    H     H_    0.116507 0.039599 0.223151 0.242093
H6    H     H_    0.989795 0.965542 0.749149 0.228793
H7    H     H_    0.906348 0.037706 0.767905 0.239061
H8    H     H_    0.036467 0.966938 0.248939 0.226415
C25   C     C_R   0.488837 0.543520 0.363018 0.362520
C26   C     C_R   0.416355 0.451300 0.609617 0.353570
C27   C     C_R   0.493345 0.542288 0.637287 0.356654
C28   C     C_R   0.570433 0.453698 0.384253 0.353016
C29   C     C_R   0.932611 0.046300 0.881962 0.355027
C30   C     C_R   0.001173 0.957575 0.137377 0.357842
C31   C     C_R   0.079484 0.048309 0.112243 0.355313
C32   C     C_R   0.014630 0.956352 0.863365 0.360474
C33   C     C_R   0.524378 0.519961 0.304368 -0.204117
C34   C     C_R   0.409579 0.475924 0.676889 -0.179880
C35   C     C_R   0.451505 0.519113 0.692105 -0.203105
C36   C     C_R   0.568944 0.477452 0.315947 -0.176430
C37   C     C_R   0.936186 0.022496 0.813735 -0.184045
C38   C     C_R   0.040109 0.981152 0.193934 -0.211618
C39   C     C_R   0.082877 0.024194 0.180155 -0.179850
C40   C     C_R   0.981036 0.979882 0.803586 -0.210518
C41   C     C_R   0.525347 0.473824 0.439966 -0.065315
C42   C     C_R   0.485524 0.524035 0.565251 -0.055841
C43   C     C_R   0.464563 0.472685 0.557344 -0.069933
C44   C     C_R   0.502293 0.524749 0.433978 -0.062149
C45   C     C_R   0.998937 0.975166 0.933839 -0.060879
C46   C     C_R   0.032868 0.027148 0.058414 -0.069434
C47   C     C_R   0.011402 0.975889 0.065657 -0.055810
C48   C     C_R   0.975769 0.026152 0.939135 -0.064829
C49   C     C_R   0.497023 0.445566 0.499250 -0.048905
C50   C     C_R   0.495622 0.552920 0.500026 -0.056719
C51   C     C_R   0.003596 0.947060 0.000080 -0.058424
C52   C     C_R   0.002485 0.054345 0.999257 -0.050663
C53   C     C_R   0.243815 0.783815 0.694217 0.288899
C54   C     C_R   0.760459 0.219668 0.311574 0.221318
C55   C     C_R   0.756046 0.783373 0.305660 0.294534
C56   C     C_R   0.239653 0.219569 0.688637 0.221398
C57   C     C_R   0.247813 0.212807 0.303691 0.242770
C58   C     C_R   0.761544 0.780625 0.687682 0.226365
C59   C     C_R   0.752115 0.212956 0.696456 0.285532
C60   C     C_R   0.238748 0.780709 0.312042 0.228647
C61   C     C_R   0.748840 0.287578 0.197142 0.246263
C62   C     C_R   0.260075 0.717986 0.810504 0.231702
C63   C     C_R   0.251638 0.287435 0.803221 0.266898
C64   C     C_R   0.738878 0.718705 0.188073 0.230948
C65   C     C_R   0.742430 0.717769 0.807101 0.296000
C66   C     C_R   0.260781 0.279617 0.187988 0.220259
C67   C     C_R   0.256742 0.716644 0.193793 0.227982
C68   C     C_R   0.738907 0.279622 0.812325 0.223946
C69   C     C_R   0.687249 0.278505 0.239081 0.337751
C70   C     C_R   0.302102 0.709508 0.748684 0.333272
C71   C     C_R   0.313161 0.278280 0.761161 0.328324
C72   C     C_R   0.696310 0.710016 0.249601 0.328505
C73   C     C_R   0.682506 0.728990 0.764129 0.301833
C74   C     C_R   0.302902 0.288721 0.249473 0.319466
C75   C     C_R   0.317137 0.728101 0.236203 0.331779
C76   C     C_R   0.696733 0.288700 0.750824 0.317466
C77   C     C_R   0.183099 0.772649 0.736305 0.313763
C78   C     C_R   0.802417 0.210730 0.249886 0.326316
C79   C     C_R   0.816592 0.772123 0.263565 0.317234
C80   C     C_R   0.197673 0.210678 0.750297 0.322248
C81   C     C_R   0.186443 0.222018 0.261463 0.337793
C82   C     C_R   0.804169 0.789558 0.749122 0.328550
C83   C     C_R   0.813533 0.222488 0.738504 0.327888
C84   C     C_R   0.196247 0.789430 0.250543 0.339366
C85   C     C_R   0.696136 0.249294 0.303314 -0.390098
C86   C     C_R   0.301762 0.748009 0.694545 -0.366391
C87   C     C_R   0.304065 0.249140 0.696864 -0.385746
C88   C     C_R   0.697644 0.747946 0.304838 -0.371799
C89   C     C_R   0.695299 0.753271 0.697233 -0.379809
C90   C     C_R   0.303223 0.250558 0.304155 -0.388358
C91   C     C_R   0.304738 0.753050 0.302751 -0.385756
C92   C     C_R   0.696462 0.250521 0.696098 -0.380487
C93   C     C_R   0.194888 0.746704 0.802249 -0.380211
C94   C     C_R   0.803403 0.249353 0.195915 -0.389370
C95   C     C_R   0.804709 0.746702 0.197276 -0.385774
C96   C     C_R   0.196781 0.249338 0.804260 -0.383075
C97   C     C_R   0.195937 0.250673 0.196790 -0.384476
C98   C     C_R   0.801929 0.752299 0.805205 -0.368074
C99   C     C_R   0.803899 0.250808 0.803385 -0.387538
C100  C     C_R   0.197810 0.751734 0.195054 -0.376644
C101  C     C_R   0.434704 0.972978 0.486171 0.180830
C102  C     C_R   0.566475 0.026348 0.504818 0.183157
C103  C     C_R   0.565846 0.973185 0.509699 0.183004
C104  C     C_R   0.433856 0.026194 0.490571 0.188055
C105  C     C_R   0.934364 0.473789 0.012781 0.186959
C106  C     C_R   0.065123 0.526988 0.986668 0.193574
C107  C     C_R   0.065931 0.473811 0.990216 0.183906
C108  C     C_R   0.935261 0.527021 0.016339 0.180641
C109  C     C_R   0.500054 0.053542 0.498372 -0.322095
C110  C     C_R   0.500201 0.946066 0.498652 -0.324462
C111  C     C_R   0.000111 0.553941 0.001032 -0.321650
C112  C     C_R   0.000073 0.446523 0.001023 -0.322508
N1    N     N_R   0.429556 0.578102 0.348782 0.237322
O53   O     O_R   0.374862 0.580972 0.393507 -0.369345
O54   O     O_R   0.425277 0.601778 0.287004 -0.265550
N2    N     N_R   0.368199 0.409475 0.592171 0.208065
O55   O     O_R   0.345624 0.403145 0.525885 -0.375053
O56   O     O_R   0.337435 0.383020 0.643520 -0.350693
N3    N     N_R   0.554795 0.573339 0.657802 0.246058
O57   O     O_R   0.611037 0.576702 0.615096 -0.354701
O58   O     O_R   0.561869 0.588477 0.724524 -0.257823
N4    N     N_R   0.623767 0.414543 0.398953 0.212801
O59   O     O_R   0.650705 0.409638 0.463839 -0.374801
O60   O     O_R   0.654519 0.389750 0.346040 -0.332663
N5    N     N_R   0.878996 0.085569 0.894968 0.213626
O61   O     O_R   0.849816 0.090326 0.958905 -0.375784
O62   O     O_R   0.850273 0.110532 0.841135 -0.327448
N6    N     N_R   0.940617 0.925015 0.155223 0.240865
O63   O     O_R   0.884412 0.922675 0.112366 -0.359404
O64   O     O_R   0.935477 0.905094 0.219523 -0.257825
N7    N     N_R   0.129556 0.089238 0.095850 0.210505
O65   O     O_R   0.153410 0.095380 0.029974 -0.375280
O66   O     O_R   0.160348 0.115049 0.147819 -0.346988
N8    N     N_R   0.074101 0.921484 0.851009 0.235564
O67   O     O_R   0.127612 0.918592 0.897130 -0.365713
O68   O     O_R   0.079044 0.896672 0.790168 -0.265907
S1    S     S_3+6 0.247531 0.844763 0.651472 0.148126
O69   O     O_2   0.225545 0.839626 0.573483 -0.138899
O70   O     O_2   0.196425 0.881238 0.688654 -0.198198
O71   O     O_3   0.332479 0.868728 0.656743 -0.540534
H9    H     H_    0.327635 0.905492 0.644095 0.407675
S2    S     S_3+6 0.796820 0.201430 0.397474 0.163745
O72   O     O_2   0.761987 0.152322 0.421902 -0.100562
O73   O     O_2   0.877685 0.193516 0.392607 -0.209276
O74   O     O_3   0.780594 0.247269 0.459598 -0.487621
H10   H     H_    0.801497 0.278946 0.438524 0.356287
S3    S     S_3+6 0.752352 0.844690 0.347265 0.157250
O75   O     O_2   0.774204 0.840354 0.425368 -0.113182
O76   O     O_2   0.803662 0.880695 0.309419 -0.201584
O77   O     O_3   0.667367 0.868501 0.341391 -0.543612
H11   H     H_    0.673033 0.906238 0.344864 0.406990
S4    S     S_3+6 0.203271 0.201217 0.602757 0.163180
O78   O     O_2   0.238241 0.152167 0.578294 -0.107122
O79   O     O_2   0.122425 0.193156 0.607672 -0.209507
O80   O     O_3   0.219357 0.247085 0.540644 -0.484036
H12   H     H_    0.199072 0.278838 0.562084 0.358583
S5    S     S_3+6 0.259378 0.150678 0.342059 0.167372
O81   O     O_2   0.240720 0.151805 0.421289 -0.087081
O82   O     O_2   0.211251 0.112095 0.305109 -0.217628
O83   O     O_3   0.346563 0.132175 0.332112 -0.520038
H13   H     H_    0.352787 0.126756 0.279289 0.360910
S6    S     S_3+6 0.797199 0.798098 0.601225 0.169521
O84   O     O_2   0.762299 0.847197 0.576757 -0.092568
O85   O     O_2   0.878207 0.805748 0.604963 -0.193867
O86   O     O_3   0.779757 0.751885 0.539958 -0.495707
H14   H     H_    0.798460 0.719949 0.562239 0.351651
S7    S     S_3+6 0.741534 0.151022 0.657171 0.162055
O87   O     O_2   0.761004 0.152573 0.578153 -0.094536
O88   O     O_2   0.790182 0.112935 0.694445 -0.227768
O89   O     O_3   0.654261 0.132076 0.666165 -0.545729
H15   H     H_    0.656093 0.099170 0.693452 0.397535
S8    S     S_3+6 0.203345 0.799186 0.398180 0.157422
O90   O     O_2   0.239239 0.848104 0.422075 -0.087856
O91   O     O_2   0.122515 0.807636 0.394219 -0.210059
O92   O     O_3   0.219687 0.753184 0.460024 -0.507870
H16   H     H_    0.195593 0.722127 0.440522 0.353980
S9    S     S_3+6 0.761974 0.349957 0.160311 0.170316
O93   O     O_2   0.742876 0.350079 0.081150 -0.084461
O94   O     O_2   0.715011 0.388608 0.198517 -0.208384
O95   O     O_3   0.849773 0.367067 0.170395 -0.526596
H17   H     H_    0.855160 0.375200 0.222584 0.366065
S10   S     S_3+6 0.295930 0.698513 0.895867 0.165105
O96   O     O_2   0.258805 0.650083 0.919850 -0.093581
O97   O     O_2   0.376403 0.688760 0.890779 -0.201947
O98   O     O_3   0.281858 0.744627 0.958135 -0.497700
H18   H     H_    0.307015 0.775264 0.938655 0.358485
S11   S     S_3+6 0.239345 0.349677 0.840901 0.156883
O99   O     O_2   0.258567 0.349356 0.920007 -0.095555
O100  O     O_2   0.286911 0.388250 0.803123 -0.238698
O101  O     O_3   0.151732 0.367354 0.831315 -0.534244
H19   H     H_    0.149994 0.387816 0.786115 0.382558
S12   S     S_3+6 0.703557 0.700237 0.101974 0.163647
O102  O     O_2   0.739660 0.651423 0.078098 -0.095067
O103  O     O_2   0.622788 0.691596 0.105821 -0.202700
O104  O     O_3   0.719802 0.746324 0.040252 -0.496515
H20   H     H_    0.697773 0.777733 0.060961 0.355115
S13   S     S_3+6 0.744925 0.656679 0.849612 0.142126
O105  O     O_2   0.726607 0.662058 0.928474 -0.144165
O106  O     O_2   0.690673 0.621370 0.814569 -0.194209
O107  O     O_3   0.828550 0.631066 0.840782 -0.539590
H21   H     H_    0.824320 0.595864 0.860456 0.408562
S14   S     S_3+6 0.297507 0.296592 0.101686 0.148998
O108  O     O_2   0.263703 0.345787 0.076241 -0.121808
O109  O     O_2   0.378561 0.303716 0.106309 -0.221512
O110  O     O_3   0.280129 0.250270 0.040564 -0.483169
H22   H     H_    0.299553 0.218482 0.062639 0.358565
S15   S     S_3+6 0.256018 0.656712 0.147820 0.163738
O111  O     O_2   0.278984 0.664404 0.070605 -0.098229
O112  O     O_2   0.308250 0.620150 0.183131 -0.192395
O113  O     O_3   0.172495 0.630248 0.149713 -0.505911
H23   H     H_    0.166339 0.617733 0.200062 0.361656
S16   S     S_3+6 0.702614 0.296941 0.898679 0.162880
O114  O     O_2   0.736790 0.346140 0.923741 -0.110161
O115  O     O_2   0.621615 0.304258 0.894288 -0.203250
O116  O     O_3   0.719927 0.250795 0.960029 -0.488421
H24   H     H_    0.699761 0.219055 0.938442 0.358556
S17   S     S_3+6 0.601114 0.294977 0.201233 0.153501
O117  O     O_2   0.545859 0.254158 0.218177 -0.270878
O118  O     O_2   0.575903 0.345384 0.231555 -0.188413
O119  O     O_3   0.608506 0.299920 0.110572 -0.447525
H25   H     H_    0.563251 0.317210 0.094680 0.416276
S18   S     S_3+6 0.338974 0.647085 0.734318 0.115464
O120  O     O_2   0.331886 0.632242 0.655869 -0.295861
O121  O     O_2   0.417919 0.646510 0.755340 -0.195764
O122  O     O_3   0.293612 0.603818 0.784706 -0.451956
H26   H     H_    0.327230 0.574352 0.789740 0.389568
S19   S     S_3+6 0.399441 0.295432 0.798170 0.157430
O123  O     O_2   0.455126 0.254986 0.781099 -0.252392
O124  O     O_2   0.423645 0.345780 0.766766 -0.199748
O125  O     O_3   0.392837 0.300596 0.888864 -0.445044
H27   H     H_    0.423834 0.330278 0.902295 0.414643
S20   S     S_3+6 0.654799 0.648566 0.260968 0.123453
O126  O     O_2   0.661986 0.631318 0.338413 -0.289330
O127  O     O_2   0.575508 0.651663 0.241462 -0.190986
O128  O     O_3   0.695592 0.604806 0.207645 -0.445256
H28   H     H_    0.658531 0.577732 0.199916 0.393844
S21   S     S_3+6 0.595385 0.728785 0.805788 0.149338
O129  O     O_2   0.549677 0.772046 0.777084 -0.264356
O130  O     O_2   0.557479 0.679052 0.790684 -0.154381
O131  O     O_3   0.604883 0.736258 0.895986 -0.467067
H29   H     H_    0.583831 0.704986 0.918083 0.419111
S22   S     S_3+6 0.342583 0.350650 0.260666 0.139286
O132  O     O_2   0.336115 0.367719 0.338233 -0.234774
O133  O     O_2   0.421657 0.348809 0.240060 -0.203063
O134  O     O_3   0.299384 0.393809 0.208256 -0.458720
H30   H     H_    0.338136 0.411381 0.180330 0.410424
S23   S     S_3+6 0.402823 0.730781 0.191467 0.154712
O135  O     O_2   0.454049 0.767369 0.228445 -0.267890
O136  O     O_2   0.436633 0.678471 0.188919 -0.148843
O137  O     O_3   0.388766 0.751433 0.106087 -0.482266
H31   H     H_    0.421658 0.730675 0.075179 0.416118
S24   S     S_3+6 0.657162 0.350607 0.739685 0.138094
O138  O     O_2   0.663831 0.367689 0.662148 -0.249352
O139  O     O_2   0.578133 0.348622 0.760336 -0.192148
O140  O     O_3   0.700229 0.393680 0.792414 -0.460770
H32   H     H_    0.662676 0.419310 0.805461 0.409161
S25   S     S_3+6 0.097692 0.771115 0.690958 0.155903
O141  O     O_2   0.044857 0.735703 0.727906 -0.257654
O142  O     O_2   0.065551 0.823910 0.687388 -0.150660
O143  O     O_3   0.111497 0.749634 0.605932 -0.487343
H33   H     H_    0.091191 0.776240 0.573384 0.417551
S26   S     S_3+6 0.841170 0.148658 0.237506 0.136047
O144  O     O_2   0.834276 0.132520 0.159560 -0.257624
O145  O     O_2   0.920216 0.149757 0.258327 -0.191647
O146  O     O_3   0.797388 0.105418 0.289281 -0.458127
H34   H     H_    0.831817 0.076419 0.294381 0.407578
S27   S     S_3+6 0.902196 0.771161 0.308275 0.147915
O147  O     O_2   0.953397 0.733478 0.273624 -0.283840
O148  O     O_2   0.935638 0.823577 0.307171 -0.139996
O149  O     O_3   0.888754 0.753729 0.395137 -0.479112
H35   H     H_    0.929519 0.769339 0.422553 0.415864
S28   S     S_3+6 0.158859 0.148599 0.762728 0.134242
O150  O     O_2   0.165798 0.132448 0.840628 -0.250658
O151  O     O_2   0.079739 0.149741 0.742094 -0.197414
O152  O     O_3   0.202381 0.105230 0.710882 -0.459817
H36   H     H_    0.165579 0.078423 0.700170 0.405878
S29   S     S_3+6 0.099881 0.205237 0.298221 0.154015
O153  O     O_2   0.044761 0.246087 0.281198 -0.266361
O154  O     O_2   0.075081 0.155043 0.266734 -0.195279
O155  O     O_3   0.106030 0.199715 0.388904 -0.446055
H37   H     H_    0.066425 0.175694 0.402880 0.415189
S30   S     S_3+6 0.846172 0.850930 0.759585 0.123089
O156  O     O_2   0.839041 0.868741 0.836789 -0.293659
O157  O     O_2   0.925413 0.847428 0.740093 -0.184743
O158  O     O_3   0.805797 0.894470 0.705693 -0.448201
H38   H     H_    0.840417 0.923563 0.703310 0.392912
S31   S     S_3+6 0.900176 0.208748 0.699659 0.152639
O159  O     O_2   0.954190 0.249767 0.719358 -0.268734
O160  O     O_2   0.926951 0.157788 0.726562 -0.185871
O161  O     O_3   0.892639 0.206867 0.608750 -0.452170
H39   H     H_    0.933495 0.184947 0.592050 0.416514
S32   S     S_3+6 0.155964 0.851204 0.238866 0.122248
O162  O     O_2   0.163096 0.868008 0.161216 -0.296479
O163  O     O_2   0.076796 0.848965 0.258961 -0.184378
O164  O     O_3   0.197926 0.894760 0.291576 -0.445604
H40   H     H_    0.166367 0.925528 0.289841 0.388871
N9    N     N_R   0.368514 0.946822 0.467409 0.268656
O165  O     O_R   0.312593 0.948482 0.510657 -0.262961
O166  O     O_R   0.361553 0.926515 0.403308 -0.282126
N10   N     N_R   0.635604 0.051973 0.505561 0.273332
O167  O     O_R   0.677324 0.048762 0.562383 -0.251505
O168  O     O_R   0.663095 0.068048 0.444629 -0.263116
N11   N     N_R   0.632743 0.947287 0.526387 0.270579
O169  O     O_R   0.642963 0.928732 0.591104 -0.283488
O170  O     O_R   0.686312 0.947620 0.480211 -0.258905
N12   N     N_R   0.364897 0.051757 0.486208 0.273961
O171  O     O_R   0.333790 0.067252 0.545699 -0.262185
O172  O     O_R   0.326262 0.048093 0.427318 -0.217962
N13   N     N_R   0.865942 0.448155 0.022371 0.273994
O173  O     O_R   0.830832 0.453348 0.083151 -0.223085
O174  O     O_R   0.830865 0.432022 0.965514 -0.254526
N14   N     N_R   0.131171 0.553137 0.967625 0.271431
O175  O     O_R   0.186161 0.553326 0.012067 -0.210321
O176  O     O_R   0.138767 0.572191 0.902892 -0.289556
N15   N     N_R   0.134634 0.448236 0.982600 0.272676
O177  O     O_R   0.167870 0.431885 0.040396 -0.252746
O178  O     O_R   0.171369 0.453082 0.922718 -0.239932
N16   N     N_R   0.869806 0.553254 0.037148 0.268610
O179  O     O_R   0.865328 0.574435 0.100876 -0.285514
O180  O     O_R   0.812439 0.551450 0.995868 -0.264002

loop_
_geom_bond_atom_site_label_1
_geom_bond_atom_site_label_2
_geom_bond_distance
_ccdc_geom_bond_type
Zn6   O16   1.942974 S    
Zn7   O13   1.942843 S    
S31   O160  1.502025 D    
O116  H24   0.990350 S    
Zn5   O51   1.949085 S    
O34   C11   1.286147 A    
C38   C39   1.393418 A    
S3    O77   1.683884 S    
S19   O124  1.502620 D    
S25   O141  1.503085 D    
C25   N1    1.438565 S    
S1    O71   1.683537 S    
O104  H20   0.990458 S    
Zn5   O20   1.942801 S    
S13   O107  1.683253 S    
Zn6   O19   1.942803 S    
C78   C94   1.416699 A    
S30   O158  1.682169 S    
O49   C23   1.280348 A    
O23   C6    1.278172 A    
C59   S7    1.780958 S    
C34   C35   1.392855 A    
C82   C98   1.420238 A    
S3    O75   1.499989 D    
N10   O168  1.301655 A    
C4    C85   1.465827 S    
O137  H31   0.991662 S    
H5    C39   1.082517 S    
C103  N11   1.435993 S    
C31   N7    1.441001 S    
S20   O128  1.682856 S    
Zn4   O2    1.960711 S    
C67   C75   1.389892 A    
C58   S6    1.783380 S    
C5    C92   1.463775 S    
O11   C7    1.283000 A    
S4    O79   1.502539 D    
S32   O162  1.503813 D    
S29   O154  1.502702 D    
S8    O91   1.502932 D    
S1    O70   1.502419 D    
C71   S19   1.782546 S    
C59   C83   1.391420 A    
S23   O135  1.503473 D    
S16   O116  1.682817 S    
N11   O169  1.301999 A    
Zn16  O33   1.947978 S    
H3    C33   1.082389 S    
O122  H26   0.990529 S    
C101  C110  1.412147 A    
O131  H29   0.990437 S    
Zn12  O24   1.947888 S    
O16   C12   1.290644 A    
O40   C18   1.282620 A    
S19   O123  1.503063 D    
Zn16  O4    1.954203 S    
O125  H27   0.992249 S    
C58   C89   1.421341 A    
H8    C38   1.082478 S    
C107  N15   1.434602 S    
O119  H25   0.990374 S    
S12   O103  1.502281 D    
Zn7   O3    1.960713 S    
S18   O120  1.503597 D    
O36   C9    1.285106 A    
O38   C18   1.282792 A    
C28   C41   1.420487 A    
S25   O143  1.684626 S    
S11   O100  1.503663 D    
C104  N12   1.434034 S    
S22   O134  1.683229 S    
C28   N4    1.441346 S    
Zn3   O10   1.943153 S    
O143  H33   0.990821 S    
O42   C20   1.281127 A    
C32   N8    1.439886 S    
C67   S15   1.778317 S    
O33   C12   1.279382 A    
Zn10  O22   1.948213 S    
N9    O166  1.301840 A    
C56   C87   1.420248 A    
C57   C90   1.415901 A    
Zn13  O29   1.948212 S    
O107  H21   0.990442 S    
C32   C40   1.405103 A    
C69   C85   1.418397 A    
C55   C88   1.415694 A    
Zn10  O2    1.953396 S    
C75   C91   1.407865 A    
S28   O150  1.503081 D    
O52   C24   1.290569 A    
Zn3   O1    1.960713 S    
O43   C19   1.283026 A    
O35   C10   1.277448 A    
N16   O179  1.301440 A    
N3    O57   1.302144 A    
C18   C109  1.467626 S    
O134  H30   0.990959 S    
O37   C17   1.280226 A    
C31   C46   1.422430 A    
C107  C112  1.417461 A    
C83   S31   1.781920 S    
S32   O164  1.681980 S    
C26   C43   1.423029 A    
S7    O87   1.501436 D    
S16   O115  1.502364 D    
N13   O174  1.300753 A    
C79   S27   1.775878 S    
C62   S10   1.781108 S    
C63   S11   1.780328 S    
O152  H36   0.992221 S    
C65   S13   1.776780 S    
Zn4   O9    1.943152 S    
O44   C20   1.280379 A    
C103  C110  1.412512 A    
O74   H10   0.990538 S    
C11   C94   1.463166 S    
C29   C37   1.404812 A    
S9    O93   1.501872 D    
S21   O130  1.498110 D    
Zn13  O41   1.948855 S    
C6    C91   1.464421 S    
C74   C90   1.417412 A    
Zn4   O6    1.942844 S    
O32   C13   1.285568 A    
O86   H14   0.990618 S    
Zn16  O44   1.948448 S    
C54   S2    1.784449 S    
C10   C95   1.465092 S    
S22   O133  1.502203 D    
C106  C107  1.388716 A    
C47   C51   1.431375 A    
N14   O175  1.300980 A    
S5    O81   1.501479 D    
S15   O113  1.682489 S    
N5    O62   1.299703 A    
C102  N10   1.434831 S    
S20   O127  1.502529 D    
C66   C97   1.419303 A    
C70   S18   1.783491 S    
C72   C88   1.420263 A    
C73   C89   1.406962 A    
C75   S23   1.778535 S    
C28   C36   1.404584 A    
O50   C24   1.288468 A    
C80   C96   1.416864 A    
S28   O152  1.683345 S    
C101  N9    1.436229 S    
O41   C19   1.282998 A    
O5    C1    1.282712 A    
S23   O136  1.500125 D    
N2    O56   1.301069 A    
S17   O117  1.503599 D    
C106  N14   1.435269 S    
C29   N5    1.441337 S    
C59   C92   1.416370 A    
S7    O89   1.685569 S    
O47   C21   1.288327 A    
C54   C78   1.394019 A    
S30   O157  1.502153 D    
C61   C94   1.414231 A    
C58   C82   1.397038 A    
C64   C95   1.422541 A    
S26   O145  1.502247 D    
S27   O148  1.498787 D    
C65   C98   1.416376 A    
S31   O161  1.683436 S    
C24   C51   1.481747 S    
O8    C4    1.285574 A    
S2    O74   1.682644 S    
N15   O178  1.300589 A    
O89   H15   0.995724 S    
C25   C44   1.419461 A    
S24   O138  1.503250 D    
S9    O95   1.683505 S    
N4    O60   1.300001 A    
S3    O76   1.502438 D    
C60   C91   1.421247 A    
S26   O146  1.682532 S    
N8    O68   1.298623 A    
C108  C111  1.411091 A    
S10   O96   1.502038 D    
C68   C76   1.394194 A    
C71   C87   1.418398 A    
C53   C77   1.389719 A    
C62   C70   1.394759 A    
H2    C36   1.082100 S    
S13   O106  1.502727 D    
O9    C5    1.282536 A    
S4    O80   1.682849 S    
C53   S1    1.776065 S    
S5    O83   1.682888 S    
C60   C84   1.395957 A    
O13   C9    1.282599 A    
N6    O63   1.301801 A    
C76   S24   1.783043 S    
O77   H11   0.991796 S    
C15   C98   1.466831 S    
S15   O111  1.499058 D    
N7    O66   1.300631 A    
S14   O108  1.501186 D    
C55   S3    1.775111 S    
O18   C14   1.285558 A    
C41   C49   1.417786 A    
O6    C2    1.285110 A    
N3    O58   1.299016 A    
N12   O171  1.301588 A    
C68   S16   1.784927 S    
C1    C88   1.465809 S    
O48   C22   1.280156 A    
C32   C45   1.419081 A    
O128  H28   0.990978 S    
C2    C87   1.465566 S    
C66   S14   1.784877 S    
S32   O163  1.501863 D    
S29   O153  1.503423 D    
O92   H16   0.990495 S    
Zn14  O30   1.948213 S    
S1    O69   1.500261 D    
S20   O126  1.503773 D    
Zn15  O3    1.954205 S    
C70   C86   1.416524 A    
S6    O86   1.682842 S    
C27   N3    1.439607 S    
C67   C100  1.418113 A    
C61   C69   1.390826 A    
C45   C51   1.427793 A    
S17   O119  1.682914 S    
C56   S4    1.784670 S    
C44   C50   1.427945 A    
S15   O112  1.501851 D    
C25   C33   1.405110 A    
O164  H40   0.990753 S    
Zn4   O46   1.949351 S    
O24   C5    1.285670 A    
C60   S8    1.783231 S    
Zn11  O26   1.947977 S    
C27   C35   1.406627 A    
O161  H39   0.992639 S    
S4    O78   1.501193 D    
C20   C111  1.461079 S    
S14   O110  1.682859 S    
Zn1   O12   1.942801 S    
C26   N2    1.440563 S    
S31   O159  1.503369 D    
C64   S12   1.781867 S    
C62   C93   1.420923 A    
Zn2   O11   1.942803 S    
C81   S29   1.783037 S    
C108  N16   1.435879 S    
C48   C52   1.418066 A    
Zn16  O32   1.947888 S    
S18   O121  1.501219 D    
C12   C93   1.465593 S    
S24   O140  1.683119 S    
C76   C92   1.417882 A    
C105  C112  1.417895 A    
C102  C103  1.389678 A    
S19   O125  1.682807 S    
S6    O85   1.502881 D    
C21   C50   1.482472 S    
S25   O142  1.500023 D    
Zn14  O42   1.948855 S    
C23   C52   1.458789 S    
Zn13  O3    1.953394 S    
N7    O65   1.301710 A    
Zn14  O4    1.953396 S    
C41   C44   1.398748 A    
O19   C15   1.283336 A    
H4    C34   1.081924 S    
C29   C48   1.420495 A    
S18   O122  1.682778 S    
O39   C17   1.281449 A    
O140  H32   0.990454 S    
C13   C100  1.466428 S    
Zn12  O25   1.947978 S    
O7    C3    1.285160 A    
Zn7   O49   1.949351 S    
Zn13  O36   1.947988 S    
Zn14  O35   1.947987 S    
S28   O151  1.502720 D    
C8    C89   1.464845 S    
C78   S26   1.783563 S    
C57   S5    1.781377 S    
N16   O180  1.300985 A    
H1    C35   1.082055 S    
C43   C49   1.415735 A    
O21   C8    1.277531 A    
Zn7   O18   1.943153 S    
C26   C34   1.402738 A    
C27   C42   1.418729 A    
Zn9   O37   1.948855 S    
O12   C8    1.290976 A    
S29   O155  1.682892 S    
Zn11  O39   1.948448 S    
S8    O90   1.502023 D    
N13   O173  1.300519 A    
C105  C108  1.390104 A    
S6    O84   1.501985 D    
Zn11  O1    1.954205 S    
Zn15  O43   1.948448 S    
H7    C37   1.083051 S    
C73   S21   1.775274 S    
Zn5   O3    1.961240 S    
Zn6   O4    1.961241 S    
S2    O73   1.502483 D    
Zn8   O14   1.942844 S    
C66   C74   1.393306 A    
C55   C79   1.387858 A    
C80   S28   1.783839 S    
S16   O114  1.501233 D    
S21   O129  1.503270 D    
O98   H18   0.990502 S    
C9    C96   1.463160 S    
O26   C3    1.285304 A    
C22   C49   1.457112 S    
C7    C90   1.464077 S    
C46   C52   1.416506 A    
N1    O53   1.302185 A    
C30   N6    1.437483 S    
O30   C15   1.286809 A    
S12   O102  1.501770 D    
N14   O176  1.301048 A    
C77   C93   1.409004 A    
C84   S32   1.786468 S    
C81   C97   1.418732 A    
S11   O101  1.683657 S    
S27   O147  1.503234 D    
Zn8   O50   1.949351 S    
C3    C86   1.465844 S    
Zn2   O2    1.961241 S    
N5    O61   1.301446 A    
Zn15  O31   1.947889 S    
C64   C72   1.396778 A    
O149  H35   0.990933 S    
C65   C73   1.387900 A    
N15   O177  1.300736 A    
C72   S20   1.787070 S    
O146  H34   0.990665 S    
O83   H13   0.991208 S    
C63   C71   1.391509 A    
Zn8   O4    1.960711 S    
C30   C38   1.406260 A    
O113  H23   0.991027 S    
N11   O170  1.301513 A    
N1    O54   1.298759 A    
Zn15  O34   1.947977 S    
C42   C43   1.401056 A    
C45   C48   1.399909 A    
C56   C80   1.393623 A    
C102  C109  1.416599 A    
S7    O88   1.503158 D    
C30   C47   1.419220 A    
N4    O59   1.301594 A    
C57   C81   1.391347 A    
S8    O92   1.683020 S    
C106  C111  1.411122 A    
C37   C40   1.396419 A    
Zn6   O52   1.949085 S    
C83   C99   1.417445 A    
C84   C100  1.419448 A    
C77   S25   1.778419 S    
Zn1   O47   1.949085 S    
O51   C23   1.284871 A    
O45   C21   1.290992 A    
O22   C7    1.285522 A    
Zn3   O45   1.949351 S    
C105  N13   1.434363 S    
C63   C96   1.415084 A    
O71   H9    0.991025 S    
Zn2   O48   1.949085 S    
S24   O139  1.501730 D    
C104  C109  1.416838 A    
C33   C36   1.395057 A    
S9    O94   1.502554 D    
S21   O131  1.684282 S    
O110  H22   0.990508 S    
S10   O97   1.502998 D    
S22   O132  1.503167 D    
H6    C40   1.083542 S    
S12   O104  1.682577 S    
C101  C104  1.390516 A    
O95   H17   0.990747 S    
Zn9   O21   1.948212 S    
S13   O105  1.499733 D    
C14   C99   1.465276 S    
Zn11  O23   1.947889 S    
S5    O82   1.502637 D    
C31   C39   1.403389 A    
Zn12  O40   1.948448 S    
O25   C4    1.284409 A    
S10   O98   1.683014 S    
C54   C85   1.420337 A    
Zn9   O1    1.953394 S    
N6    O64   1.298524 A    
Zn1   O7    1.942976 S    
O27   C2    1.283908 A    
Zn2   O8    1.942974 S    
S14   O109  1.502790 D    
Zn3   O5    1.942843 S    
O29   C16   1.284670 A    
N10   O167  1.301242 A    
C17   C110  1.461137 S    
Zn9   O28   1.947988 S    
N12   O172  1.301118 A    
Zn10  O27   1.947987 S    
O31   C14   1.283276 A    
O15   C11   1.282429 A    
C19   C112  1.468588 S    
C74   S22   1.783823 S    
O158  H38   0.990847 S    
S23   O137  1.684687 S    
N2    O55   1.301657 A    
C82   S30   1.787153 S    
S11   O99   1.501436 D    
S17   O118  1.502049 D    
C69   S17   1.782249 S    
N9    O165  1.301374 A    
S2    O72   1.500935 D    
O20   C16   1.284400 A    
O46   C22   1.284661 A    
C68   C99   1.420579 A    
O155  H37   0.993998 S    
O10   C6    1.290568 A    
C53   C86   1.416417 A    
Zn8   O17   1.943152 S    
N8    O67   1.302288 A    
S30   O156  1.503663 D    
Zn10  O38   1.948855 S    
O101  H19   0.990653 S    
O14   C10   1.290895 A    
C79   C95   1.407881 A    
Zn1   O1    1.961240 S    
S26   O144  1.503462 D    
S27   O149  1.683928 S    
Zn12  O2    1.954203 S    
O80   H12   0.990604 S    
O28   C1    1.286874 A    
C42   C50   1.431836 A    
C46   C47   1.400205 A    
O17   C13   1.284616 A    
C61   S9    1.779758 S    
C16   C97   1.464954 S    
Zn5   O15   1.942976 S    
