data_mof_unit_13395.cif
_audit_creation_date              2012-10-26T18:47:34-0400
_audit_creation_method            fapswitch 2.2
_symmetry_space_group_name_H-M    P1
_symmetry_Int_Tables_number       1
_space_group_crystal_system       triclinic
_cell_length_a                    10.822508
_cell_length_b                    12.994195
_cell_length_c                    11.654405
_cell_angle_alpha                 99.888321
_cell_angle_beta                  93.998849
_cell_angle_gamma                 90.446729
_cell_volume                      1610.3517642

loop_
_atom_site_label
_atom_site_type_symbol
_atom_type_description
_atom_site_fract_x
_atom_site_fract_y
_atom_site_fract_z
_atom_type_partial_charge
C1    C     C_R   0.497390 0.299007 0.478589 0.564385
C2    C     C_R   0.510521 0.985156 0.656114 -0.122291
C3    C     C_R   0.488938 0.122999 0.354928 -0.109812
C4    C     C_R   0.511066 0.877001 0.645072 -0.109818
C5    C     C_R   0.502037 0.139400 0.566363 -0.117137
C6    C     C_R   0.497964 0.860600 0.433636 -0.117116
C7    C     C_R   0.503123 0.031375 0.556056 0.059768
C8    C     C_R   0.496879 0.968624 0.443944 0.059778
C9    C     C_R   0.391925 0.394912 0.020428 -0.184068
C10   C     C_R   0.608077 0.605086 0.979572 -0.184075
C11   C     C_R   0.401178 0.405822 0.142961 0.051047
C12   C     C_R   0.502611 0.700993 0.521411 0.564384
C13   C     C_R   0.598824 0.594177 0.857039 0.051036
C14   C     C_R   0.545203 0.546551 0.157867 0.047062
C15   C     C_R   0.454797 0.453449 0.842133 0.047062
C16   C     C_R   0.262205 0.502445 0.500162 0.567279
C17   C     C_R   0.737795 0.497556 0.499838 0.567278
C18   C     C_R   0.538841 0.538485 0.034770 0.002997
C19   C     C_R   0.461160 0.461514 0.965230 0.002999
C20   C     C_R   0.214513 0.734866 0.257083 -0.081138
C21   C     C_R   0.785492 0.265073 0.742831 -0.081145
C22   C     C_R   0.160835 0.692684 0.345095 0.121872
C23   C     C_R   0.871670 0.495953 0.500191 0.021972
C24   C     C_R   0.839175 0.307284 0.654845 0.121864
C25   C     C_R   0.108430 0.590861 0.319903 0.058685
C26   C     C_R   0.891565 0.409111 0.680071 0.058682
C27   C     C_R   0.107581 0.534154 0.205797 -0.108013
C28   C     C_R   0.892390 0.465793 0.794187 -0.108002
C29   C     C_R   0.160738 0.577241 0.118469 -0.116354
C30   C     C_R   0.839224 0.422678 0.881489 -0.116341
C31   C     C_R   0.215142 0.677084 0.144335 -0.117036
C32   C     C_R   0.784838 0.322830 0.855589 -0.117044
C33   C     C_R   0.927042 0.536666 0.412342 -0.130779
C34   C     C_R   0.128329 0.504052 0.499810 0.021972
C35   C     C_R   0.072957 0.463339 0.587660 -0.130782
C36   C     C_R   0.945055 0.457892 0.588361 -0.007848
C37   C     C_R   0.054944 0.542108 0.411637 -0.007842
C38   C     C_R   0.504392 0.814415 0.533842 0.022526
C39   C     C_R   0.495611 0.185585 0.466158 0.022522
C40   C     C_R   0.489482 0.014844 0.343886 -0.122281
Cu1   Cu    Cu3+1 0.509250 0.507730 0.615930 0.957056
Cu2   Cu    Cu3+1 0.490750 0.492270 0.384070 0.957062
H1    H     H_    0.257005 0.710026 0.076745 0.116188
H2    H     H_    0.932931 0.543834 0.815066 0.109116
H3    H     H_    0.160452 0.532917 0.030857 0.114452
H4    H     H_    0.839489 0.466983 0.969107 0.114461
H5    H     H_    0.870582 0.567221 0.345716 0.126351
H6    H     H_    0.129416 0.432781 0.654284 0.126349
H7    H     H_    0.493192 0.812699 0.347459 0.114222
H8    H     H_    0.506807 0.187301 0.652540 0.114224
H9    H     H_    0.516187 0.842485 0.723469 0.130889
H10   H     H_    0.483818 0.157515 0.276531 0.130891
H11   H     H_    0.394722 0.394877 0.787835 0.112321
H12   H     H_    0.742969 0.289865 0.923158 0.116181
H13   H     H_    0.605278 0.605123 0.212165 0.112320
H14   H     H_    0.484415 0.967497 0.257466 0.100175
H15   H     H_    0.515588 0.032503 0.742534 0.100174
H16   H     H_    0.652599 0.645814 0.815374 0.125210
H17   H     H_    0.347403 0.354185 0.184626 0.125212
H18   H     H_    0.330992 0.334971 0.969420 0.088611
H19   H     H_    0.669011 0.665027 0.030580 0.088616
H20   H     H_    0.255078 0.812863 0.275846 0.125089
H21   H     H_    0.744940 0.187073 0.724042 0.125105
H22   H     H_    0.067028 0.456116 0.184945 0.109128
I1    I     I_    0.156978 0.787256 0.512332 -0.397457
I2    I     I_    0.843054 0.212753 0.487589 -0.397462
N1    N     N_R   0.523180 0.519350 0.790130 -0.225122
N2    N     N_R   0.476820 0.480650 0.209870 -0.225122
O1    O     O_R   0.506570 0.354460 0.582000 -0.510669
O2    O     O_R   0.493430 0.645540 0.418000 -0.510671
O3    O     O_R   0.490940 0.341410 0.386200 -0.507431
O4    O     O_R   0.509060 0.658590 0.613800 -0.507434
O5    O     O_R   0.327460 0.506540 0.597900 -0.506271
O6    O     O_R   0.672540 0.493460 0.402100 -0.506269
O7    O     O_R   0.311830 0.493480 0.402100 -0.495869
O8    O     O_R   0.688170 0.506520 0.597900 -0.495873

loop_
_geom_bond_atom_site_label_1
_geom_bond_atom_site_label_2
_ccdc_geom_bond_type
C27   C29   A    
C34   C37   A    
Cu1   Cu2   S    
C14   C18   A    
C35   C36   A    
C2    H15   S    
C7    C8    A    
Cu1   N1    S    
C15   C19   A    
Cu2   O7    S    
C1    O3    A    
C31   H1    S    
C15   H11   S    
C24   C26   A    
C18   C19   A    
C16   O7    A    
Cu2   O2    S    
C34   C35   A    
C16   C34   S    
C9    C19   A    
C2    C7    A    
C23   C33   A    
C22   C25   A    
C17   O8    A    
C6    C38   A    
C24   I2    S    
C25   C37   S    
C14   H13   S    
C12   O4    A    
C3    C39   A    
Cu2   N2    S    
C11   H17   S    
C35   H6    S    
C32   H12   S    
C21   C32   A    
Cu2   O6    S    
C4    H9    S    
C16   O5    A    
C5    C7    A    
C6    C8    A    
C13   H16   S    
C40   H14   S    
C28   H2    S    
C33   C37   A    
C29   H3    S    
C2    C4    A    
C22   I1    S    
C15   N1    A    
C17   C23   S    
C9    C11   A    
Cu1   O4    S    
C26   C36   S    
C20   C22   A    
C3    C40   A    
C5    C39   A    
C17   O6    A    
C33   H5    S    
C5    H8    S    
C10   H19   S    
C11   N2    A    
Cu1   O1    S    
C13   N1    A    
C12   O2    A    
C30   H4    S    
C4    C38   A    
C10   C13   A    
C3    H10   S    
C25   C27   A    
C26   C28   A    
C9    H18   S    
C28   C30   A    
C29   C31   A    
Cu1   O8    S    
C30   C32   A    
C10   C18   A    
Cu2   O3    S    
C6    H7    S    
C12   C38   S    
C1    O1    A    
C21   H21   S    
C27   H22   S    
C1    C39   S    
Cu1   O5    S    
C23   C36   A    
C21   C24   A    
C14   N2    A    
C8    C40   A    
C20   H20   S    
C20   C31   A    
