data_mof_unit_29338.cif
_audit_creation_date              2012-12-11T15:49:27-0500
_audit_creation_method            fapswitch 2.2
_symmetry_space_group_name_H-M    P1
_symmetry_Int_Tables_number       1
_space_group_crystal_system       triclinic
_cell_length_a                    8.383207
_cell_length_b                    19.045571
_cell_length_c                    26.944296
_cell_angle_alpha                 95.487798
_cell_angle_beta                  92.708515
_cell_angle_gamma                 85.033665
_cell_volume                      4262.91514127

loop_
_atom_site_label
_atom_site_type_symbol
_atom_type_description
_atom_site_fract_x
_atom_site_fract_y
_atom_site_fract_z
_atom_type_partial_charge
Ba1   Ba    Ba6+2 0.854000 0.466860 0.523710 1.708558
Ba2   Ba    Ba6+2 0.335820 0.533080 0.476290 1.690595
C1    C     C_3   0.601144 0.244499 0.713401 -0.367626
C2    C     C_3   0.606105 0.290314 0.668551 0.241024
C3    C     C_3   0.544389 0.660193 0.631085 0.305199
C4    C     C_3   0.669420 0.661352 0.674269 -0.379332
C5    C     C_3   0.043545 0.686972 0.336460 0.530478
C6    C     C_3   0.072162 0.702032 0.283134 0.288115
C7    C     C_3   0.533295 0.721100 0.339197 0.283391
C8    C     C_3   0.600254 0.740287 0.290412 -0.253428
C9    C     C_R   0.047167 0.457568 0.181397 0.601264
C10   C     C_R   0.887577 0.566703 0.173951 0.581763
C11   C     C_2   0.763030 0.544279 0.272226 -0.110680
C12   C     C_3   0.053025 0.305250 0.655832 0.279431
C13   C     C_3   0.745398 0.570465 0.326492 -0.057966
C14   C     C_1   0.985700 0.492437 0.343869 0.060470
C15   C     C_2   0.028376 0.491952 0.296509 -0.082365
C16   C     C_2   0.908464 0.516231 0.256434 0.184502
C17   C     C_R   0.025935 0.509764 0.101216 -0.087642
C18   C     C_R   0.091100 0.456518 0.130922 -0.026035
C19   C     C_R   0.197576 0.402681 0.109363 -0.056599
C20   C     C_R   0.919381 0.563574 0.122684 -0.074524
C21   C     C_2   0.853426 0.528098 0.360797 -0.296187
C22   C     C_2   0.359495 0.495042 0.640762 -0.206792
C23   C     C_3   0.051747 0.277056 0.708046 0.207811
C24   C     C_R   0.211286 0.451884 0.977077 0.040759
C25   C     C_R   0.048913 0.564803 0.970824 -0.019085
C26   C     C_R   0.149934 0.508063 0.948553 0.040591
C27   C     C_R   0.310766 0.396311 0.952996 -0.094990
C28   C     C_R   0.351217 0.396787 0.903468 -0.077674
C29   C     C_R   0.293722 0.452310 0.875167 -0.026282
C30   C     C_R   0.192811 0.508304 0.897566 -0.129553
C31   C     C_R   0.136864 0.564945 0.869251 -0.087957
C32   C     C_R   0.177429 0.562605 0.818355 0.608042
C33   C     C_R   0.335222 0.452624 0.824850 0.582245
C34   C     C_3   0.184248 0.315973 0.415323 0.283864
C35   C     C_2   0.465001 0.497044 0.729618 -0.072062
C36   C     C_3   0.505220 0.499094 0.675429 -0.060076
C37   C     C_1   0.216649 0.517295 0.657096 0.014352
C38   C     C_2   0.179913 0.513677 0.704152 -0.099171
C39   C     C_2   0.310754 0.504486 0.743795 0.220496
C40   C     C_R   0.173274 0.453503 0.028543 0.035535
C41   C     C_R   0.065791 0.508855 0.049977 0.000607
C42   C     C_R   0.996103 0.562707 0.020498 -0.005883
C43   C     C_R   0.238555 0.401349 0.059653 -0.096460
C44   C     C_R   0.840534 0.612306 0.092270 -0.116095
C45   C     C_3   0.186434 0.236193 0.401427 -0.219445
C46   C     C_R   0.011294 0.623980 0.943410 -0.105965
C47   C     C_R   0.045217 0.623185 0.893009 0.418201
C48   C     C_R   0.872512 0.611403 0.041404 0.399043
C49   C     C_R   0.394722 0.295426 0.515736 -0.173317
C50   C     C_R   0.534166 0.272645 0.490928 0.044619
C51   C     C_R   0.583897 0.199404 0.483707 -0.098269
C52   C     C_R   0.488742 0.149814 0.502092 -0.019164
C53   C     C_R   0.347514 0.174809 0.526928 -0.109042
C54   C     C_R   0.299592 0.247363 0.532679 0.032201
C55   C     C_R   0.551190 0.031573 0.535425 -0.042653
C56   C     C_3   0.995421 0.678241 0.575737 0.311221
C57   C     C_R   0.601192 0.959386 0.528850 -0.067332
C58   C     C_R   0.633244 0.926100 0.481067 0.046938
C59   C     C_R   0.610646 0.966044 0.439778 -0.033941
C60   C     C_R   0.557789 0.038120 0.446281 -0.008855
C61   C     C_R   0.531285 0.071971 0.494353 0.077376
C62   C     C_R   0.827878 0.823579 0.451272 -0.141211
C63   C     C_R   0.879658 0.751128 0.449743 0.002695
C64   C     C_R   0.645906 0.729699 0.493573 0.053064
C65   C     C_R   0.595510 0.801740 0.496346 -0.124976
C66   C     C_R   0.684298 0.849295 0.474667 -0.031575
C67   C     C_3   0.953976 0.757401 0.587467 -0.341864
C68   C     C_R   0.783853 0.704284 0.468605 -0.260385
C69   C     C_3   0.675313 0.384607 0.376865 0.300723
C70   C     C_3   0.687369 0.366946 0.320609 0.261107
H1    H     H_    0.217174 0.207421 0.434781 -0.026520
H2    H     H_    0.064809 0.222727 0.387441 0.126178
H3    H     H_    0.885665 0.652906 0.562412 -0.001605
H4    H     H_    0.084154 0.670241 0.546048 0.075132
H5    H     H_    0.867583 0.766885 0.617842 0.144399
H6    H     H_    0.900432 0.781363 0.554164 0.044146
H7    H     H_    0.063350 0.784309 0.599233 0.178583
H8    H     H_    0.791493 0.400974 0.393053 0.009811
H9    H     H_    0.581414 0.428771 0.383618 0.034150
H10   H     H_    0.692402 0.416854 0.303054 0.006669
H11   H     H_    0.575804 0.343871 0.304762 0.030882
H12   H     H_    0.516038 0.271883 0.740766 0.164087
H13   H     H_    0.540297 0.604896 0.614040 -0.058682
H14   H     H_    0.669051 0.715235 0.694221 0.125739
H15   H     H_    0.645458 0.623453 0.701303 0.041551
H16   H     H_    0.790354 0.647232 0.660156 0.167043
H17   H     H_    0.718898 0.241861 0.733695 0.056993
H18   H     H_    0.088150 0.631160 0.340658 -0.055866
H19   H     H_    0.912848 0.694148 0.342440 -0.209377
H20   H     H_    0.988047 0.672187 0.258054 -0.000765
H21   H     H_    0.196340 0.682204 0.273477 0.050174
H22   H     H_    0.635924 0.709051 0.365682 -0.151421
H23   H     H_    0.500950 0.747506 0.261994 0.147794
H24   H     H_    0.934461 0.329948 0.645711 0.052399
H25   H     H_    0.684294 0.696065 0.275471 0.085974
H26   H     H_    0.152058 0.477473 0.287298 0.136219
H27   H     H_    0.251078 0.361080 0.131092 0.125125
H28   H     H_    0.562667 0.493739 0.757445 0.101390
H29   H     H_    0.428429 0.352795 0.887282 0.105851
H30   H     H_    0.359320 0.350858 0.971224 0.066192
H31   H     H_    0.323377 0.358508 0.046947 0.068968
H32   H     H_    0.665223 0.557423 0.246069 0.126347
H33   H     H_    0.745910 0.649006 0.107681 0.121791
H34   H     H_    0.961035 0.673659 0.960777 0.127217
H35   H     H_    0.133349 0.348736 0.657567 0.071007
H36   H     H_    0.055897 0.520125 0.714580 0.122761
H37   H     H_    0.838796 0.540296 0.400564 0.076231
H38   H     H_    0.376794 0.479730 0.601392 0.108385
H39   H     H_    0.490433 0.821114 0.517048 0.102324
H40   H     H_    0.617373 0.929602 0.561270 0.088355
H41   H     H_    0.531109 0.056254 0.572728 0.140015
H42   H     H_    0.631862 0.941224 0.402536 0.085490
H43   H     H_    0.939909 0.301482 0.725375 -0.017548
H44   H     H_    0.540303 0.067916 0.413894 0.053664
H45   H     H_    0.902784 0.859979 0.436975 0.103567
H46   H     H_    0.272294 0.137744 0.540317 0.113716
H47   H     H_    0.825436 0.648894 0.468605 0.047675
H48   H     H_    0.355780 0.351295 0.520027 0.074735
H49   H     H_    0.307615 0.331026 0.424264 -0.062058
H50   H     H_    0.109305 0.329648 0.448334 0.037737
N1    N     N_R   0.947953 0.513155 0.203280 -0.420959
N2    N     N_R   0.273225 0.506283 0.796452 -0.431596
O1    O     O_2   0.913240 0.537010 0.617740 -0.469031
O2    O     O_3   0.634485 0.324602 0.397845 -0.679831
O3    O     O_3   0.096356 0.249878 0.619205 -0.613105
O4    O     O_2   0.276450 0.462960 0.382230 -0.465734
O5    O     O_3   0.044470 0.462980 0.442430 -0.506943
O6    O     O_3   0.519740 0.589470 0.411120 -0.463170
O7    O     O_3   0.119766 0.350677 0.374719 -0.581614
O8    O     O_3   0.632420 0.583650 0.524140 -0.482801
O9    O     O_3   0.111040 0.625070 0.435230 -0.492638
O10   O     O_2   0.211204 0.751306 0.465197 -0.487558
O11   O     O_3   0.125661 0.732909 0.370445 -0.553330
O12   O     O_3   0.145240 0.536960 0.557560 -0.496103
O13   O     O_3   0.557280 0.416300 0.475860 -0.487073
O14   O     O_2   0.376710 0.670070 0.522470 -0.454248
O15   O     O_3   0.585634 0.706933 0.597266 -0.625250
O16   O     O_2   0.430194 0.526329 0.323199 -0.506374
O17   O     O_3   0.435145 0.664241 0.328299 -0.595202
O18   O     O_2   0.095783 0.408238 0.205385 -0.577719
O19   O     O_2   0.425917 0.404656 0.806207 -0.597300
O20   O     O_2   0.807437 0.618348 0.192436 -0.633391
O21   O     O_2   0.129435 0.611285 0.793668 -0.551262
O22   O     O_3   0.669960 0.410470 0.588880 -0.406660
O23   O     O_2   0.824270 0.456317 0.671960 -0.503296
O24   O     O_3   0.059207 0.650196 0.619293 -0.622089
O25   O     O_3   0.671805 0.353505 0.689335 -0.612680
O26   O     O_2   0.812980 0.329910 0.477500 -0.457185
O27   O     O_3   0.078660 0.374870 0.564770 -0.477494
O28   O     O_2   0.970923 0.249451 0.529726 -0.422007
P1    P     P_3+3 0.082480 0.557670 0.610090 0.986622
P2    P     P_3+3 0.635220 0.340300 0.462910 0.993155
P3    P     P_3+3 0.109890 0.281774 0.560914 1.039670
P4    P     P_3+3 0.107220 0.442270 0.389900 1.027856
P5    P     P_3+3 0.081797 0.716327 0.430736 0.975429
P6    P     P_3+3 0.661902 0.428316 0.654539 1.051649
P7    P     P_3+3 0.561108 0.672857 0.534626 0.977282
P8    P     P_3+3 0.533648 0.585318 0.346539 0.953794
C71   C     C_2   0.709448 0.250848 0.628854 0.496071
H51   H     H_    0.790110 0.205595 0.637249 -0.000621
O29   O     O_2   0.705443 0.269360 0.586808 -0.549624
C72   C     C_2   0.307580 0.212103 0.362876 0.570851
H52   H     H_    0.433895 0.217370 0.371641 -0.056633
O30   O     O_2   0.265327 0.186101 0.321708 -0.552316
C73   C     C_2   0.554970 0.169410 0.701859 0.476129
H53   H     H_    0.551296 0.136382 0.732359 0.051198
O31   O     O_2   0.521332 0.144950 0.659482 -0.580783
O32   O     O_3   0.830368 0.324084 0.309920 -0.619246
C74   C     C_3   0.797786 0.253036 0.297361 0.258974
H54   H     H_    0.737459 0.231640 0.327861 0.034945
H55   H     H_    0.913025 0.220682 0.291549 0.109410
H56   H     H_    0.724370 0.247588 0.261937 0.035121
C75   C     C_2   0.438199 0.301895 0.648204 0.461362
H57   H     H_    0.354215 0.265229 0.655798 0.090031
O33   O     O_2   0.398560 0.346848 0.619941 -0.659105
C76   C     C_2   0.385606 0.685786 0.652502 0.554480
H58   H     H_    0.330630 0.653772 0.677025 -0.068961
O34   O     O_2   0.320310 0.743554 0.644350 -0.552626
O35   O     O_3   0.187429 0.297650 0.737429 -0.655428
C77   C     C_3   0.158144 0.298507 0.788790 0.227836
H59   H     H_    0.095191 0.252415 0.797715 -0.018290
H60   H     H_    0.087921 0.348533 0.801733 0.042290
H61   H     H_    0.274475 0.295478 0.810026 0.096212
O36   O     O_3   0.046526 0.775341 0.278382 -0.599398
C78   C     C_3   0.067622 0.788012 0.228514 0.262834
H62   H     H_    0.978995 0.761525 0.202705 0.032205
H63   H     H_    0.191938 0.770888 0.217140 0.019257
H64   H     H_    0.047439 0.845765 0.225341 0.100222
C79   C     C_2   0.434127 0.782840 0.364478 0.584575
H65   H     H_    0.430457 0.788796 0.404755 -0.014545
O37   O     O_2   0.353156 0.825066 0.340381 -0.529067
C80   C     C_2   0.689167 0.805936 0.298506 0.522258
H66   H     H_    0.781161 0.810731 0.328038 0.029518
O38   O     O_2   0.656966 0.854662 0.272472 -0.531579
O39   O     O_3   0.000310 0.682857 0.868492 -0.600407
C81   C     C_3   0.834177 0.684921 0.856854 0.243798
H67   H     H_    0.801640 0.635719 0.834294 0.027015
H68   H     H_    0.800604 0.729831 0.834062 0.079954
H69   H     H_    0.763627 0.694013 0.891163 0.020443
O40   O     O_3   0.765125 0.648005 0.010175 -0.650109
C82   C     C_3   0.735993 0.719882 0.028444 0.132109
H70   H     H_    0.844713 0.742641 0.046574 0.016284
H71   H     H_    0.635568 0.726475 0.054360 0.060385
H72   H     H_    0.698459 0.750894 0.996447 0.077198
C83   C     C_2   0.735215 0.175919 0.458049 0.558303
H73   H     H_    0.771087 0.203528 0.427594 -0.023189
O41   O     O_2   0.824453 0.126751 0.471717 -0.558552
C84   C     C_2   0.050074 0.197193 0.704808 0.626423
H74   H     H_    0.941980 0.172997 0.711583 -0.123646
O42   O     O_2   0.170696 0.159034 0.694370 -0.521831

loop_
_geom_bond_atom_site_label_1
_geom_bond_atom_site_label_2
_ccdc_geom_bond_type
C25   C46   A    
C80   O38   D    
C82   H70   S    
O11   P5    S    
C67   H5    S    
C17   C18   A    
C74   H56   S    
C53   C54   A    
Ba1   O8    S    
C22   C37   D    
C76   H58   S    
C67   H6    S    
C1    C73   S    
C5    C6    S    
C73   O31   D    
C47   O39   S    
O35   C77   S    
C5    O11   S    
C2    O25   S    
C74   H55   S    
C35   C36   S    
C11   C16   D    
C37   P1    S    
C62   C66   A    
C39   N2    S    
C33   N2    Am   
C62   H45   S    
Ba1   O1    S    
Ba1   Ba2   S    
Ba1   O5    S    
C23   H43   S    
C28   C29   A    
C19   H27   S    
C32   O21   D    
C56   O24   S    
C55   C57   A    
O32   C74   S    
O39   C81   S    
C31   C47   A    
C63   C68   A    
C44   H33   S    
C10   C20   A    
Ba2   O5    S    
C4    H16   S    
C59   H42   S    
C34   C45   S    
O6    P8    S    
C49   C54   A    
C77   H59   S    
C64   P7    S    
C78   H64   S    
C43   H31   S    
C51   C83   S    
O14   P7    D    
C46   H34   S    
C75   H57   S    
O25   P6    S    
C17   C41   A    
C14   C15   D    
C12   O3    S    
C2    C75   S    
C14   P4    S    
C22   C36   S    
C69   O2    S    
C55   C61   A    
C81   H67   S    
C6    H20   S    
O27   P3    S    
Ba1   O12   S    
C15   H26   S    
Ba1   O27   S    
C16   N1    S    
C38   H36   S    
C3    H13   S    
C13   C21   S    
C64   C65   A    
O15   P7    S    
C57   C58   A    
C72   H52   S    
Ba1   O22   S    
C23   C84   S    
C54   P3    S    
C25   C42   A    
C3    O15   S    
C12   H24   S    
C69   H8    S    
C71   O29   D    
O1    P1    D    
C56   H3    S    
C57   H40   S    
C19   C43   A    
C48   O40   S    
C21   H37   S    
C82   H72   S    
C9    C18   A    
Ba2   O9    S    
O40   C82   S    
C56   H4    S    
C83   H73   S    
O8    P7    S    
C26   C30   A    
C17   C20   A    
C22   H38   S    
C45   H1    S    
C75   O33   D    
C34   O7    S    
O3    P3    S    
C73   H53   S    
C7    O17   S    
C55   H41   S    
C1    H12   S    
C6    O36   S    
C51   C52   A    
C5    H18   S    
Ba2   O12   S    
C4    H15   S    
C65   C66   A    
C58   C59   A    
C77   H61   S    
Ba2   O14   S    
C8    H25   S    
C34   H50   S    
C41   C42   A    
C79   O37   D    
C60   H44   S    
C60   C61   A    
C82   H71   S    
O17   P8    S    
Ba2   O8    S    
C29   C30   A    
O28   P3    D    
C68   H47   S    
C5    H19   S    
C81   H69   S    
C15   C16   S    
Ba1   O26   S    
C18   C19   A    
C11   H32   S    
Ba1   P1    S    
C74   H54   S    
C36   P6    S    
C45   C72   S    
O2    P2    S    
C65   H39   S    
C38   C39   S    
C20   C44   A    
C14   C21   D    
C84   O42   D    
C11   C13   S    
O26   P2    D    
C70   H10   S    
C29   C33   A    
C67   H7    S    
C40   C41   A    
C1    C2    S    
C12   H35   S    
C37   C38   D    
Ba1   O13   S    
C50   C51   A    
C24   C40   A    
C7    C8    S    
C42   C48   A    
C79   H65   S    
C52   C53   A    
O7    P4    S    
C32   N2    Am   
Ba2   O13   S    
C9    N1    Am   
C6    H21   S    
C45   H2    S    
C81   H68   S    
O5    P4    S    
C76   O34   D    
Ba1   P2    S    
C49   C50   A    
C56   C67   S    
O22   P6    S    
C63   P5    S    
C44   C48   A    
C24   C26   A    
C27   H30   S    
C4    H14   S    
C1    H17   S    
C30   C31   A    
C8    C80   S    
C34   H49   S    
O36   C78   S    
C13   P8    S    
C71   H51   S    
C62   C63   A    
O12   P1    S    
C3    C4    S    
C10   N1    Am   
C8    H23   S    
C46   C47   A    
C28   H29   S    
C72   O30   D    
Ba2   O6    S    
C31   C32   A    
O13   P2    S    
C80   H66   S    
O9    P5    S    
C12   C23   S    
C35   C39   D    
C59   C60   A    
C9    O18   D    
C77   H60   S    
C3    C76   S    
C78   H63   S    
C70   H11   S    
C23   O35   S    
O4    P4    D    
C27   C28   A    
C10   O20   D    
C49   H48   S    
O10   P5    D    
C69   C70   S    
C64   C68   A    
C58   C66   S    
C24   C27   A    
C84   H74   S    
C52   C61   S    
C33   O19   D    
C25   C26   A    
C83   O41   D    
C2    C71   S    
C78   H62   S    
O24   P1    S    
C7    C79   S    
O23   P6    D    
C50   P2    S    
C7    H22   S    
C40   C43   A    
C35   H28   S    
O16   P8    D    
Ba2   P4    S    
C70   O32   S    
C69   H9    S    
C53   H46   S    
Ba2   O4    S    
