data_mof_unit_63703.cif
_audit_creation_date              2013-03-05T15:56:03-0500
_audit_creation_method            fapswitch 2.2
_symmetry_space_group_name_H-M    P1
_symmetry_Int_Tables_number       1
_space_group_crystal_system       triclinic
_cell_length_a                    8.512062
_cell_length_b                    16.669085
_cell_length_c                    26.813894
_cell_angle_alpha                 95.97141
_cell_angle_beta                  93.776044
_cell_angle_gamma                 85.439894
_cell_volume                      3765.58728306

loop_
_atom_site_label
_atom_site_type_symbol
_atom_site_description
_atom_site_fract_x
_atom_site_fract_y
_atom_site_fract_z
_atom_type_partial_charge
P1    P     P_3+3 0.086060 0.566890 0.610430 0.533680
O1    O     O_2   0.915540 0.542930 0.617950 -0.281899
O2    O     O_3   0.147530 0.542870 0.557780 -0.415096
O3    O     O_3   0.664390 0.396160 0.588360 -0.306123
O4    O     O_2   0.794832 0.454592 0.671784 -0.323699
O5    O     O_3   0.062597 0.670816 0.629549 -0.526580
O6    O     O_3   0.706788 0.317066 0.685125 -0.511770
C1    C     C_3   0.605010 0.194021 0.716182 -0.744625
P2    P     P_3+3 0.625290 0.314770 0.461990 0.540427
P3    P     P_3+3 0.116504 0.250544 0.564586 0.560570
O7    O     O_2   0.802410 0.302720 0.476520 -0.337943
O8    O     O_3   0.070880 0.354870 0.564040 -0.353257
O9    O     O_2   0.996265 0.209844 0.526788 -0.332396
O10   O     O_3   0.607691 0.285455 0.397204 -0.610757
O11   O     O_3   0.077212 0.222319 0.623636 -0.542255
C2    C     C_3   0.084015 0.290765 0.659484 0.837835
H1    H     H_    0.993795 0.338448 0.648616 0.082428
C3    C     C_3   0.044457 0.268052 0.711092 0.572843
H2    H     H_    0.944918 0.230437 0.703872 0.088428
C4    C     C_3   0.171676 0.280040 0.406573 0.148778
H3    H     H_    0.292370 0.295358 0.420201 0.017570
H4    H     H_    0.091817 0.285051 0.438080 0.104149
C5    C     C_3   0.178373 0.194256 0.378957 0.123581
H5    H     H_    0.268845 0.191743 0.350562 0.171668
Ba1   Ba    Ba6+2 0.851940 0.461560 0.523510 1.672256
C6    C     C_3   0.049911 0.719754 0.589897 0.233098
H6    H     H_    0.932642 0.715240 0.569681 0.070444
H7    H     H_    0.142182 0.700592 0.563167 0.141028
C7    C     C_3   0.070418 0.807191 0.613823 -0.660420
H8    H     H_    0.158619 0.803311 0.646033 0.178792
C8    C     C_3   0.621329 0.347178 0.366481 0.748579
H9    H     H_    0.558312 0.404857 0.380866 0.118541
C9    C     C_3   0.548398 0.317719 0.313727 -0.078286
H10   H     H_    0.575772 0.250951 0.307333 0.128285
P4    P     P_3+3 0.103630 0.433040 0.389570 0.585240
O12   O     O_2   0.274150 0.457040 0.382020 -0.312915
O13   O     O_3   0.042160 0.457070 0.442220 -0.403048
O14   O     O_3   0.525310 0.603770 0.411640 -0.378922
O15   O     O_3   0.112504 0.329789 0.370161 -0.497119
P5    P     P_3+3 0.089591 0.750273 0.434020 0.472273
O16   O     O_3   0.637620 0.597020 0.524620 -0.370090
O17   O     O_3   0.118810 0.645070 0.435950 -0.354396
O18   O     O_2   0.220807 0.785882 0.470018 -0.348802
O19   O     O_3   0.140050 0.776262 0.375051 -0.572073
Ba2   Ba    Ba6+2 0.337880 0.538370 0.476480 1.673592
P6    P     P_3+3 0.649918 0.406654 0.654828 0.560659
C10   C     C_3   0.609039 0.251716 0.672022 0.083999
H11   H     H_    0.488916 0.276552 0.664025 0.135796
O20   O     O_3   0.552080 0.402920 0.475380 -0.353634
C11   C     C_3   0.511096 0.683860 0.629823 1.032052
H12   H     H_    0.383310 0.687718 0.617525 -0.328344
C12   C     C_3   0.526653 0.717690 0.685825 0.494736
P7    P     P_3+3 0.570414 0.699157 0.536962 0.526967
O21   O     O_2   0.387280 0.697260 0.523450 -0.354768
O22   O     O_3   0.595381 0.730164 0.601428 -0.567118
C13   C     C_3   0.039413 0.744832 0.334765 0.119277
H13   H     H_    0.932477 0.727055 0.349816 0.059114
C14   C     C_3   0.987476 0.810127 0.296677 -0.076564
P8    P     P_3+3 0.546518 0.600302 0.346860 0.586721
C15   C     C_3   0.493146 0.756070 0.364577 0.809099
O23   O     O_2   0.446516 0.532356 0.321206 -0.276624
O24   O     O_3   0.451757 0.691362 0.328705 -0.486448
H14   H     H_    0.437179 0.750351 0.400172 0.128008
H15   H     H_    0.509685 0.851091 0.314617 0.229330
C16   C     C_3   0.437219 0.837854 0.345408 -0.642544
H16   H     H_    0.315683 0.838259 0.330279 0.204933
C17   C     C_R   0.068162 0.457484 0.186474 0.603491
O25   O     O_2   0.177317 0.450366 0.217928 -0.539411
N1    N     N_R   0.917816 0.484279 0.201291 -0.159827
C18   C     C_R   0.797527 0.490823 0.163880 0.571325
C19   C     C_2   0.784319 0.569551 0.271188 -0.196325
C20   C     C_3   0.757668 0.589095 0.327365 0.053075
C21   C     C_1   0.969283 0.484002 0.343707 0.398715
C22   C     C_2   0.974853 0.458897 0.295046 -0.162275
C23   C     C_2   0.886757 0.505339 0.255101 0.031538
C24   C     C_R   0.986382 0.470272 0.098688 -0.080578
C25   C     C_R   0.098101 0.440596 0.134774 -0.338984
C26   C     C_R   0.235522 0.394869 0.117902 0.588976
C27   C     C_R   0.833297 0.497915 0.113410 -0.035325
C28   C     C_2   0.865217 0.540846 0.361705 -0.365696
H17   H     H_    0.034686 0.400460 0.283956 0.197959
C29   C     C_2   0.336551 0.474487 0.642844 -0.434877
C30   C     C_R   0.221303 0.441984 0.982659 0.131200
C31   C     C_R   0.972784 0.522237 0.965019 0.036239
C32   C     C_R   0.119367 0.485294 0.949141 0.105570
C33   C     C_R   0.373841 0.415926 0.967049 -0.210598
C34   C     C_R   0.416035 0.418161 0.917597 -0.103373
C35   C     C_R   0.306668 0.453264 0.882357 -0.077938
C36   C     C_R   0.166036 0.493381 0.899628 -0.074960
C37   C     C_R   0.073344 0.542580 0.867594 -0.077417
C38   C     C_R   0.121083 0.549722 0.818491 0.638694
N2    N     N_R   0.247816 0.501213 0.799277 -0.159497
C39   C     C_R   0.331967 0.449343 0.830398 0.550178
C40   C     C_2   0.445842 0.492418 0.733410 -0.195792
C41   C     C_3   0.481705 0.479794 0.677585 0.223501
C42   C     C_1   0.203465 0.511514 0.657625 0.273294
C43   C     C_2   0.164491 0.509615 0.704693 -0.207400
C44   C     C_2   0.290839 0.501665 0.746631 0.044087
O26   O     O_2   0.426057 0.397565 0.812423 -0.602182
C45   C     C_R   0.174275 0.433278 0.032211 -0.184716
C46   C     C_R   0.028052 0.471439 0.047979 0.068152
C47   C     C_R   0.922534 0.510223 0.013391 0.109551
C48   C     C_R   0.265603 0.386063 0.066802 0.429871
H18   H     H_    0.466568 0.397548 0.993762 0.208517
O27   O     O_2   0.660540 0.490227 0.174531 -0.524076
C49   C     C_R   0.722221 0.529077 0.076881 -0.060307
C50   C     C_R   0.886024 0.574262 0.932957 -0.172770
C51   C     C_R   0.937482 0.585489 0.885930 -0.043022
O28   O     O_2   0.049487 0.599039 0.793140 -0.544590
C52   C     C_R   0.768555 0.534797 0.028100 -0.263959
H19   H     H_    0.780706 0.610053 0.944150 0.141921
H20   H     H_    0.869832 0.628155 0.863726 0.163545
H21   H     H_    0.041579 0.509349 0.712534 0.225378
H22   H     H_    0.680273 0.558522 0.001653 0.149876
H23   H     H_    0.860773 0.557824 0.401772 0.160028
H24   H     H_    0.345519 0.447187 0.604737 0.223912
C53   C     C_R   0.403069 0.268926 0.524095 0.162432
C54   C     C_R   0.530534 0.241202 0.495098 0.089022
C55   C     C_R   0.572369 0.156935 0.486390 -0.385333
C56   C     C_R   0.494744 0.101162 0.511668 0.192348
C57   C     C_R   0.361510 0.131293 0.538293 -0.251426
C58   C     C_R   0.312880 0.214162 0.542859 0.198839
C59   C     C_R   0.615678 0.850444 0.504527 -0.326940
C60   C     C_R   0.663660 0.767870 0.500291 0.298913
C61   C     C_R   0.708764 0.906647 0.486949 0.212388
N3    N     N_2   0.536269 0.015242 0.509070 -0.060453
N4    N     N_2   0.668624 0.992302 0.492838 0.015217
C62   C     C_R   0.801475 0.740090 0.476429 -0.429316
H25   H     H_    0.511300 0.871232 0.524209 0.225818
H26   H     H_    0.292349 0.089495 0.554169 0.175749
C63   C     C_R   0.897262 0.793948 0.458435 0.069216
C64   C     C_R   0.850265 0.878413 0.463850 0.464703
H27   H     H_    0.839541 0.676397 0.474691 0.155279
C65   C     C_2   0.660422 0.204472 0.624272 0.990383
O29   O     O_2   0.620620 0.135964 0.612500 -0.599483
O30   O     O_R   0.751671 0.239109 0.592750 -0.732008
H28   H     H_    0.765950 0.201747 0.561243 0.354310
C66   C     C_2   0.223213 0.129108 0.412424 0.918414
O31   O     O_2   0.340741 0.084332 0.404679 -0.590242
O32   O     O_R   0.124475 0.115510 0.449477 -0.733119
H29   H     H_    0.157856 0.064511 0.466040 0.343700
O33   O     O_3   0.033798 0.178654 0.352745 -0.681583
H30   H     H_    0.951561 0.185038 0.377732 0.338070
C67   C     C_2   0.919602 0.846377 0.634683 1.212970
O34   O     O_2   0.909589 0.859879 0.680117 -0.566354
O35   O     O_R   0.793371 0.869359 0.602090 -0.773991
H31   H     H_    0.704863 0.901906 0.620121 0.383040
C68   C     C_2   0.138290 0.859896 0.579491 0.999220
O36   O     O_2   0.277160 0.847874 0.570335 -0.600880
O37   O     O_R   0.048214 0.925395 0.560973 -0.758193
H32   H     H_    0.110902 0.957207 0.540013 0.338321
O38   O     O_3   0.780602 0.359507 0.364356 -0.822568
H33   H     H_    0.832403 0.307301 0.350604 0.353553
C69   C     C_2   0.756665 0.138743 0.723272 1.027835
O39   O     O_2   0.833948 0.142186 0.763556 -0.594878
O40   O     O_R   0.804445 0.080588 0.684731 -0.740281
H34   H     H_    0.905330 0.047733 0.694264 0.348581
C70   C     C_2   0.615997 0.353601 0.271192 1.032397
O41   O     O_2   0.545041 0.410381 0.252099 -0.481348
O42   O     O_R   0.755859 0.317744 0.251633 -0.804078
H35   H     H_    0.785011 0.343064 0.221088 0.331971
O43   O     O_3   0.383928 0.333574 0.312464 -0.683146
H36   H     H_    0.339142 0.298924 0.283446 0.342860
C71   C     C_2   0.471843 0.136760 0.705457 1.207029
O44   O     O_2   0.458461 0.084615 0.733596 -0.570199
O45   O     O_R   0.365448 0.142332 0.663714 -0.746299
H37   H     H_    0.286051 0.099584 0.660644 0.347080
O46   O     O_3   0.575998 0.603690 0.625400 -0.710533
H38   H     H_    0.507781 0.573014 0.600077 0.300007
C72   C     C_2   0.453549 0.803794 0.694185 0.908241
O47   O     O_2   0.498110 0.856803 0.671446 -0.591379
O48   O     O_R   0.337718 0.823080 0.729045 -0.733871
H39   H     H_    0.298474 0.882322 0.731317 0.358487
O49   O     O_3   0.452783 0.667880 0.715046 -0.749641
H40   H     H_    0.340146 0.666942 0.702788 0.316335
O50   O     O_3   0.688047 0.716706 0.701038 -0.651167
H41   H     H_    0.695971 0.730149 0.738052 0.365620
C73   C     C_2   0.578058 0.244777 0.765935 1.219423
O51   O     O_2   0.669790 0.295755 0.781686 -0.501674
O52   O     O_R   0.459383 0.227718 0.796244 -0.743084
H42   H     H_    0.469232 0.255809 0.831543 0.351999
O53   O     O_3   0.170961 0.223350 0.733710 -0.737882
H43   H     H_    0.131025 0.204355 0.764055 0.381296
C74   C     C_2   0.112111 0.665904 0.310821 1.053285
O54   O     O_2   0.171049 0.615767 0.337751 -0.564935
O55   O     O_R   0.106513 0.647488 0.258795 -0.738137
H44   H     H_    0.173504 0.596489 0.248297 0.378899
C75   C     C_2   0.102481 0.821503 0.256597 1.057403
O56   O     O_2   0.226890 0.780228 0.252111 -0.578244
O57   O     O_R   0.062112 0.880939 0.223827 -0.780171
H45   H     H_    0.145158 0.883732 0.198756 0.348133
O58   O     O_3   0.845910 0.786873 0.271244 -0.776185
H46   H     H_    0.804656 0.828964 0.249090 0.371101
C76   C     C_2   0.955362 0.891960 0.326109 1.067211
O59   O     O_2   0.064836 0.931571 0.343444 -0.615783
O60   O     O_R   0.800355 0.923445 0.332090 -0.744492
H47   H     H_    0.795812 0.978819 0.351498 0.369966
O61   O     O_3   0.656094 0.755289 0.374344 -0.846060
H48   H     H_    0.697419 0.759925 0.341362 0.346647
C77   C     C_2   0.441134 0.903545 0.387338 1.177804
O62   O     O_2   0.537708 0.954119 0.389120 -0.572777
O63   O     O_R   0.331563 0.906637 0.423978 -0.764218
H49   H     H_    0.338865 0.954586 0.449925 0.316833
O64   O     O_3   0.334815 0.350214 0.149154 -0.632546
H50   H     H_    0.269836 0.327902 0.172991 0.333890
C78   C     C_2   0.574165 0.516450 0.770948 1.252468
O65   O     O_2   0.708361 0.485387 0.767536 -0.555119
O66   O     O_R   0.540093 0.575789 0.810334 -0.774683
H51   H     H_    0.633869 0.585310 0.834700 0.324809
C79   C     C_2   0.581966 0.391424 0.906362 1.084261
O67   O     O_2   0.646693 0.331612 0.923952 -0.617878
O68   O     O_R   0.666544 0.436413 0.877626 -0.765658
H52   H     H_    0.778602 0.412471 0.873142 0.353873
O69   O     O_3   0.373681 0.323723 0.051702 -0.693807
H53   H     H_    0.331921 0.297397 0.019175 0.327454
C80   C     C_2   0.723872 0.631842 0.237407 1.222227
O70   O     O_2   0.591913 0.665296 0.241679 -0.540360
O71   O     O_R   0.819358 0.653672 0.201211 -0.760962
H54   H     H_    0.766299 0.697567 0.181107 0.356204
C81   C     C_2   0.560454 0.563460 0.088286 1.092282
O72   O     O_2   0.449455 0.548807 0.058343 -0.672338
O73   O     O_R   0.535704 0.616587 0.131326 -0.753001
H55   H     H_    0.420620 0.636323 0.134357 0.357681
O74   O     O_3   0.233308 0.320761 0.661465 -0.801994
H56   H     H_    0.253474 0.351372 0.694575 0.287467
C82   C     C_2   0.686751 0.128955 0.448144 1.208042
O75   O     O_2   0.823447 0.110473 0.461115 -0.552531
O76   O     O_R   0.638336 0.125043 0.397251 -0.733152
H57   H     H_    0.728668 0.110297 0.374556 0.321314
O77   O     O_3   0.939447 0.935896 0.448514 -0.705424
H58   H     H_    0.039171 0.909806 0.436191 0.378175
O78   O     O_3   0.358887 0.349882 0.531107 -0.707222
H59   H     H_    0.285744 0.361484 0.502006 0.318623
O79   O     O_3   0.997397 0.337241 0.742817 -0.697840
H60   H     H_    0.093715 0.359332 0.759997 0.320796

loop_
_geom_bond_atom_site_label_1
_geom_bond_atom_site_label_2
_geom_bond_distance
_ccdc_geom_bond_type
Ba1   O16   2.786697 S    
C76   O60   1.393668 S    
C34   C35   1.419325 A    
O57   H45   1.013953 S    
O13   Ba2   2.999255 S    
Ba1   Ba2   4.712119 S    
C31   C47   1.430435 A    
C21   C22   1.330875 D    
C5    C66   1.490635 S    
C49   C81   1.487135 S    
P4    O12   1.567069 D    
C40   C78   1.485797 S    
C24   C27   1.414423 A    
C57   H26   1.083129 S    
P2    O10   1.754920 S    
C33   H18   1.078264 S    
O74   H56   0.988734 S    
C7    C68   1.507342 S    
C81   O73   1.396501 S    
O3    Ba1   2.792409 S    
O71   H54   1.013611 S    
C4    C5    1.539032 S    
P2    Ba1   3.452813 S    
C59   C60   1.399456 A    
O3    P6    1.784058 S    
P7    O21   1.579034 D    
C56   C57   1.410527 A    
C6    H6    1.108191 S    
N3    N4    1.251551 D    
C15   H14   1.110424 S    
C75   O57   1.399638 S    
O40   H34   1.013982 S    
P4    O13   1.540641 S    
C80   O71   1.399780 S    
C3    H2    1.089086 S    
P3    O11   1.757821 S    
C78   O66   1.398301 S    
C59   C61   1.409532 A    
C72   O47   1.221579 D    
C40   C44   1.381348 D    
C19   C80   1.487520 S    
C9    C70   1.507573 S    
C31   C50   1.416403 A    
C74   O54   1.217688 D    
C15   O24   1.418691 S    
P1    O1    1.566664 D    
O33   H30   0.992636 S    
O10   C8    1.399501 S    
C54   C55   1.420412 A    
N2    C39   1.389213 Am   
O14   Ba2   2.791564 S    
Ba1   O13   2.791065 S    
O49   H40   0.993642 S    
C31   C32   1.417936 A    
P5    O18   1.541343 D    
P4    C21   1.849157 S    
P6    C41   1.895161 S    
C10   H11   1.088652 S    
C74   O55   1.395364 S    
C77   O62   1.218760 D    
C17   C25   1.421211 A    
C11   C12   1.549169 S    
C50   C51   1.397086 A    
C8    C9    1.554256 S    
C5    O33   1.405350 S    
O50   H41   0.993549 S    
O61   H48   0.985563 S    
C6    H7    1.104195 S    
C1    C69   1.538374 S    
C39   O26   1.213691 D    
C69   O40   1.399064 S    
C15   O61   1.393759 S    
P8    C20   1.894350 S    
C60   C62   1.396706 A    
P5    O17   1.757158 S    
C76   O59   1.223645 D    
C18   C27   1.425252 A    
C19   C23   1.377360 D    
C59   H25   1.078295 S    
C70   O42   1.397672 S    
P2    C54   1.849478 S    
O45   H37   1.014058 S    
O77   H58   0.983474 S    
O76   H57   1.011152 S    
C37   C51   1.400325 A    
C43   C44   1.512549 S    
Ba1   O20   2.972584 S    
C24   C25   1.410276 A    
P7    O22   1.756002 S    
P8    O23   1.547462 D    
C29   C42   1.310877 D    
O63   H49   1.006615 S    
C14   C75   1.536144 S    
C17   O25   1.220157 D    
C46   C47   1.416871 A    
C73   O51   1.223746 D    
O2    Ba1   2.998443 S    
P2    O20   1.565382 S    
O32   H29   1.012016 S    
C67   O35   1.394847 S    
C1    C71   1.533174 S    
O66   H51   1.009489 S    
C38   N2    1.389539 Am   
C4    O15   1.389929 S    
C32   C36   1.433115 A    
C78   O65   1.221124 D    
C2    H1    1.108194 S    
C65   O30   1.382167 S    
C13   C74   1.507718 S    
C11   H12   1.114471 S    
C25   C26   1.417791 A    
C7    C67   1.507570 S    
P7    C60   1.841304 S    
C45   C48   1.429571 A    
C51   H20   1.081509 S    
C27   C49   1.424412 A    
C75   O56   1.221875 D    
C17   N1    1.390779 Am   
O17   Ba2   2.725724 S    
O6    C10   1.424203 S    
P4    O15   1.742661 S    
C53   C58   1.390582 A    
O6    P6    1.791659 S    
C7    H8    1.110070 S    
O64   H50   0.990701 S    
C16   C77   1.486248 S    
O19   C13   1.416659 S    
C8    H9    1.108598 S    
C28   H23   1.084510 S    
Ba2   O20   2.785976 S    
C5    H5    1.113540 S    
C80   O70   1.220579 D    
C42   C43   1.330041 D    
C4    H3    1.107719 S    
C9    H10   1.116557 S    
C69   O39   1.225675 D    
O12   Ba2   2.787294 S    
C35   C36   1.405677 A    
P2    O7    1.534903 D    
C48   O69   1.378271 S    
O16   P7    1.757338 S    
C57   C58   1.405361 A    
C3    O53   1.401071 S    
P3    O8    1.752817 S    
C14   C76   1.517681 S    
C68   O37   1.398587 S    
C2    C3    1.536965 S    
O46   H38   0.991325 S    
C30   C32   1.419321 A    
P5    C63   1.868484 S    
C4    H4    1.111163 S    
Ba2   O21   2.862016 S    
C16   H16   1.085828 S    
C40   C41   1.537053 S    
C82   O76   1.395705 S    
C30   C45   1.437400 A    
C10   C65   1.503334 S    
C14   O58   1.406574 S    
C70   O41   1.221427 D    
C34   C79   1.487389 S    
C47   C52   1.410795 A    
O79   H60   0.991445 S    
C22   H17   1.085099 S    
C12   C72   1.518843 S    
C63   C64   1.427938 A    
P4    Ba2   3.403322 S    
C62   C63   1.400683 A    
C12   O49   1.407828 S    
C22   C23   1.511050 S    
O48   H39   1.013995 S    
C33   C34   1.401341 A    
O35   H31   1.011969 S    
C49   C52   1.405475 A    
C24   C46   1.430067 A    
C13   H13   1.093344 S    
C52   H22   1.079315 S    
C35   C39   1.417759 A    
C71   O44   1.225275 D    
P8    O24   1.760365 S    
O16   Ba2   2.971857 S    
C29   C41   1.500283 S    
C26   C48   1.401043 A    
O69   H53   0.991948 S    
C50   H19   1.078332 S    
C26   O64   1.380985 S    
O60   H47   1.010610 S    
P3    C58   1.842528 S    
P3    O9    1.538086 D    
C64   O77   1.379227 S    
C15   C16   1.536127 S    
C73   O52   1.401302 S    
C55   C56   1.431113 A    
C3    O79   1.407675 S    
C65   O29   1.221042 D    
C66   O32   1.389969 S    
O43   H36   0.993355 S    
O4    P6    1.540816 D    
C53   O78   1.368804 S    
C79   O68   1.397697 S    
C11   O22   1.404438 S    
C18   O27   1.219676 D    
O8    Ba1   2.724946 S    
C67   O34   1.222972 D    
O58   H46   0.994242 S    
C38   O28   1.221185 D    
C71   O45   1.398690 S    
C9    O43   1.402756 S    
O55   H44   1.010617 S    
C1    C10   1.604895 S    
O2    Ba2   2.791960 S    
C19   C20   1.535490 S    
C20   C28   1.502917 S    
C53   C54   1.397122 A    
O42   H35   1.012855 S    
C11   O46   1.401207 S    
C8    O38   1.393001 S    
C61   C64   1.415387 A    
C37   C38   1.422547 A    
O5    C6    1.399595 S    
C72   O48   1.399169 S    
P1    C42   1.839026 S    
O11   C2    1.415644 S    
H15   C16   1.112414 S    
O78   H59   0.991043 S    
C21   C28   1.320256 D    
C13   C14   1.586944 S    
C81   O72   1.221878 D    
N1    C23   1.484956 S    
O1    Ba1   2.786916 S    
C56   N3    1.443259 S    
C68   O36   1.219856 D    
C79   O67   1.223232 D    
O73   H55   1.013970 S    
N1    C18   1.391506 Am   
C2    O74   1.397983 S    
C66   O31   1.215492 D    
N2    C44   1.482455 S    
C29   H24   1.079345 S    
O14   P8    1.752674 S    
C1    C73   1.524085 S    
P5    O19   1.770293 S    
C30   C33   1.412026 A    
O68   H52   1.013971 S    
C6    C7    1.548386 S    
C77   O63   1.392940 S    
C82   O75   1.217271 D    
P1    O5    1.754266 S    
C61   N4    1.436268 S    
O7    Ba1   2.861664 S    
C12   O50   1.406406 S    
O30   H28   1.004173 S    
C45   C46   1.421281 A    
O38   H33   0.990615 S    
P1    O2    1.540620 S    
C36   C37   1.409733 A    
C62   H27   1.082294 S    
C43   H21   1.081083 S    
P1    Ba1   3.402834 S    
O52   H42   1.012794 S    
O53   H43   0.992486 S    
C55   C82   1.475458 S    
O37   H32   1.014031 S    
