data_mof_unit_49933.cif
_audit_creation_date              2013-03-05T15:52:31-0500
_audit_creation_method            fapswitch 2.2
_symmetry_space_group_name_H-M    P1
_symmetry_Int_Tables_number       1
_space_group_crystal_system       triclinic
_cell_length_a                    11.024467
_cell_length_b                    11.085757
_cell_length_c                    18.813082
_cell_angle_alpha                 89.999202
_cell_angle_beta                  90.219614
_cell_angle_gamma                 59.615911
_cell_volume                      1983.42290193

loop_
_atom_site_label
_atom_site_type_symbol
_atom_site_description
_atom_site_fract_x
_atom_site_fract_y
_atom_site_fract_z
_atom_type_partial_charge
O1    O     O_R   0.748670 0.497520 0.427970 -0.531681
O2    O     O_R   0.476470 0.723930 0.429450 -0.501733
C1    C     C_R   0.358629 0.771840 0.397456 0.546397
O3    O     O_R   0.264730 0.744140 0.416740 -0.502019
O4    O     O_R   0.309440 0.472410 0.418220 -0.493245
C2    C     C_R   0.382106 0.351825 0.390092 0.530067
O5    O     O_R   0.501630 0.260530 0.414310 -0.540988
O6    O     O_R   0.727920 0.305730 0.428950 -0.502532
C3    C     C_R   0.777728 0.378919 0.403618 0.540313
O7    O     O_R   0.738670 0.496020 0.588600 -0.524373
O8    O     O_R   0.467190 0.722540 0.578350 -0.515276
C4    C     C_R   0.345545 0.768126 0.604624 0.545736
O9    O     O_R   0.254720 0.742640 0.577370 -0.524999
O10   O     O_R   0.300170 0.471020 0.567120 -0.515284
C5    C     C_R   0.369850 0.351503 0.595787 0.549251
O11   O     O_R   0.491630 0.259030 0.574940 -0.525730
O12   O     O_R   0.718640 0.304340 0.577850 -0.512028
C6    C     C_R   0.758160 0.378592 0.611246 0.545789
Cr1   Cr    Cr6+3 0.601740 0.606840 0.505840 0.997936
Cr2   Cr    Cr6+3 0.291500 0.601560 0.495070 1.015630
Cr3   Cr    Cr6+3 0.606780 0.291630 0.499130 0.994641
O13   O     O_3   0.500010 0.500010 0.500020 -0.250003
C7    C     C_R   0.792988 0.777818 0.149082 -0.110922
C8    C     C_R   0.716186 0.787315 0.209612 -0.106940
C9    C     C_R   0.603335 0.915243 0.230384 -0.099945
C10   C     C_R   0.561774 0.037178 0.190524 0.052940
H1    H     H_    0.526550 0.118749 0.320533 0.137314
C11   C     C_R   0.324483 0.276164 0.176299 -0.002726
C12   C     C_R   0.440069 0.197198 0.289166 -0.154565
C13   C     C_R   0.440266 0.173415 0.216920 -0.029367
C14   C     C_R   0.076074 0.693028 0.280628 0.026980
C15   C     C_R   0.977346 0.815709 0.314966 -0.074951
C16   C     C_R   0.649467 0.027436 0.133519 -0.050974
C17   C     C_R   0.760990 0.898562 0.111648 -0.125426
C18   C     C_R   0.217703 0.396512 0.209748 -0.161242
C19   C     C_R   0.226567 0.425229 0.280968 -0.034708
C20   C     C_R   0.914145 0.811069 0.378100 -0.115963
C21   C     C_R   0.950001 0.682695 0.408287 -0.109449
C22   C     C_R   0.049821 0.559113 0.375602 -0.070835
C23   C     C_R   0.115551 0.561215 0.311785 0.060172
C24   C     C_R   0.342003 0.323530 0.320767 -0.005165
H2    H     H_    0.824845 0.893083 0.066820 0.098648
H3    H     H_    0.952849 0.915148 0.292896 0.114092
H4    H     H_    0.879953 0.678460 0.132201 0.120898
H5    H     H_    0.741336 0.696819 0.241044 0.115905
H6    H     H_    0.547088 0.918283 0.277900 0.116620
H7    H     H_    0.635479 0.119668 0.106521 0.134516
H8    H     H_    0.128815 0.473168 0.179211 0.136816
H9    H     H_    0.838108 0.907039 0.403905 0.102188
H10   H     H_    0.901045 0.678635 0.457291 0.106921
H11   H     H_    0.076467 0.460342 0.400326 0.107809
C25   C     C_R   0.891594 0.322623 0.189375 0.008454
C26   C     C_R   0.878186 0.220056 0.225026 0.010561
C27   C     C_R   0.853382 0.229777 0.297491 0.005109
C28   C     C_R   0.881416 0.430412 0.301857 -0.178754
C29   C     C_R   0.904848 0.420923 0.229478 -0.176180
C30   C     C_3   0.772527 0.179474 0.210328 -0.282994
C31   C     C_3   0.736913 0.199478 0.288179 -0.246567
C32   C     C_R   0.850638 0.337604 0.336570 0.003299
H12   H     H_    0.864797 0.523553 0.327757 0.149968
H13   H     H_    0.923783 0.496652 0.204453 0.128569
H14   H     H_    0.828278 0.068489 0.193769 0.147818
H15   H     H_    0.685852 0.256343 0.175642 0.132199
H16   H     H_    0.632227 0.293061 0.298225 0.157278
H17   H     H_    0.754645 0.104390 0.316336 0.134958
C33   C     C_R   0.311836 0.922723 0.185550 0.018869
C34   C     C_R   0.421698 0.791173 0.204962 0.035401
C35   C     C_R   0.439252 0.746805 0.274257 0.005288
C36   C     C_R   0.248660 0.970563 0.310947 -0.164754
C37   C     C_R   0.232888 0.016805 0.239999 -0.173714
C38   C     C_3   0.480033 0.647662 0.175660 -0.268312
C39   C     C_3   0.495723 0.598207 0.252785 -0.285628
C40   C     C_R   0.347371 0.830848 0.327474 0.019670
H18   H     H_    0.180935 0.041309 0.351714 0.123836
H19   H     H_    0.155465 0.123373 0.227185 0.121724
H20   H     H_    0.582879 0.610736 0.149163 0.153576
H21   H     H_    0.402847 0.634738 0.143611 0.148725
H22   H     H_    0.425567 0.557742 0.267839 0.143235
H23   H     H_    0.606553 0.530988 0.269077 0.150732
C41   C     C_R   0.309687 0.312041 0.811641 0.011518
C42   C     C_R   0.370941 0.194103 0.767613 0.039074
C43   C     C_R   0.375258 0.204513 0.695248 0.007170
C44   C     C_R   0.244175 0.455884 0.706804 -0.156954
C45   C     C_R   0.239295 0.444347 0.780496 -0.180369
C46   C     C_3   0.514449 0.067588 0.770549 -0.263127
C47   C     C_3   0.516918 0.074900 0.690440 -0.274904
C48   C     C_R   0.321455 0.335545 0.664228 0.014217
H24   H     H_    0.198302 0.558913 0.684080 0.138794
H25   H     H_    0.183486 0.537132 0.812865 0.116270
H26   H     H_    0.512541 0.975259 0.790222 0.160061
H27   H     H_    0.592674 0.087978 0.797029 0.131394
H28   H     H_    0.602109 0.091411 0.671130 0.154356
H29   H     H_    0.511592 0.988198 0.663800 0.138003
C49   C     C_R   0.821926 0.334848 0.834103 0.017697
C50   C     C_R   0.833138 0.433992 0.793336 0.010989
C51   C     C_R   0.816193 0.442484 0.721787 0.018668
C52   C     C_R   0.761476 0.258889 0.725510 -0.155505
C53   C     C_R   0.776483 0.251921 0.800195 -0.165722
C54   C     C_3   0.949667 0.465031 0.788517 -0.243421
C55   C     C_3   0.927466 0.477941 0.709149 -0.279999
C56   C     C_R   0.791809 0.348917 0.685722 0.023002
H30   H     H_    0.728974 0.193398 0.699184 0.124440
H31   H     H_    0.759379 0.178814 0.830381 0.110772
H32   H     H_    0.049584 0.371113 0.803940 0.171630
H33   H     H_    0.924765 0.564641 0.814934 0.137600
H34   H     H_    0.883738 0.586692 0.689301 0.136537
H35   H     H_    0.017809 0.395917 0.678622 0.144020
C57   C     C_R   0.300913 0.844511 0.825643 0.035092
C58   C     C_R   0.182789 0.903693 0.781096 0.028193
C59   C     C_R   0.193669 0.895354 0.708209 0.009866
C60   C     C_R   0.445694 0.777676 0.719873 -0.144050
C61   C     C_R   0.435211 0.786176 0.794237 -0.046276
C62   C     C_3   0.057055 0.886429 0.780715 -0.269230
C63   C     C_3   0.064241 0.885219 0.700174 -0.272764
C64   C     C_R   0.325440 0.823277 0.676414 0.002946
H36   H     H_    0.549597 0.724155 0.696497 0.149057
H37   H     H_    0.962867 0.978371 0.802420 0.148792
H38   H     H_    0.079699 0.784890 0.803817 0.125567
H39   H     H_    0.082141 0.786528 0.676375 0.147176
H40   H     H_    0.976816 0.980814 0.675311 0.136823
O14   O     O_R   0.186620 0.923750 0.087000 -0.520983
O15   O     O_R   0.957350 0.194160 0.084660 -0.515626
C65   C     C_R   0.919695 0.311852 0.113961 0.528096
O16   O     O_R   0.935120 0.407280 0.085350 -0.539873
O17   O     O_R   0.203800 0.365060 0.067090 -0.510103
C66   C     C_R   0.303658 0.256780 0.101515 0.544423
O18   O     O_R   0.417470 0.174910 0.067830 -0.529860
O19   O     O_R   0.375160 0.946380 0.070880 -0.497745
C67   C     C_R   0.273211 0.960730 0.111866 0.542098
O20   O     O_R   0.160500 0.919670 0.926690 -0.515431
O21   O     O_R   0.933140 0.190380 0.936050 -0.501103
C68   C     C_R   0.881813 0.310333 0.905258 0.545095
O22   O     O_R   0.909010 0.403210 0.925030 -0.522027
O23   O     O_R   0.179590 0.361290 0.918480 -0.507244
C69   C     C_R   0.297160 0.288564 0.885986 0.548279
O24   O     O_R   0.391360 0.170840 0.907510 -0.518778
O25   O     O_R   0.350950 0.942600 0.922260 -0.507461
C70   C     C_R   0.276798 0.892129 0.898770 0.555812
Cr4   Cr    Cr6+3 0.062440 0.063060 0.008240 0.993814
Cr5   Cr    Cr6+3 0.062950 0.375000 0.998920 0.987910
Cr6   Cr    Cr6+3 0.374550 0.061770 0.992470 1.003440
O26   O     O_3   0.166650 0.166610 0.999880 -0.286843
C71   C     C_3   0.568698 0.724473 0.837950 -0.390097
H41   H     H_    0.571158 0.799757 0.875492 0.155510
H42   H     H_    0.582520 0.632023 0.867859 0.147896
H43   H     H_    0.660173 0.694657 0.803295 0.120093
C72   C     C_3   0.136866 0.711058 0.212803 -0.402585
H44   H     H_    0.057243 0.747091 0.169737 0.132884
H45   H     H_    0.166498 0.791649 0.220475 0.164247
H46   H     H_    0.231545 0.614758 0.195561 0.131890

loop_
_geom_bond_atom_site_label_1
_geom_bond_atom_site_label_2
_geom_bond_distance
_ccdc_geom_bond_type
C71   H43   1.104152 S    
C22   H11   1.084032 S    
C28   C29   1.380986 A    
C66   O18   1.285998 A    
C28   C32   1.398206 A    
H1    C12   1.081870 S    
C44   C48   1.415151 A    
C50   C51   1.354955 A    
C17   H2    1.082490 S    
C41   C45   1.393514 A    
O19   C67   1.307242 A    
C52   C53   1.411662 A    
C46   H27   1.112142 S    
C65   O16   1.272967 A    
O4    Cr2   1.973590 S    
C33   C37   1.408253 A    
C26   C27   1.384925 A    
C14   C23   1.422294 A    
O8    Cr1   1.948650 S    
C12   C13   1.384308 A    
C41   C69   1.442520 S    
C8    H5    1.072551 S    
C61   C71   1.510715 S    
C72   H45   1.104817 S    
Cr5   O26   1.993071 S    
O15   Cr4   1.957284 S    
C39   H23   1.103724 S    
O23   Cr5   1.945248 S    
O4    C2    1.276209 A    
Cr4   O26   1.999460 S    
C50   C54   1.491661 S    
C49   C53   1.402328 A    
C5    O11   1.272390 A    
C57   C58   1.398557 A    
O18   Cr6   2.098163 S    
C39   H22   1.110084 S    
C31   H17   1.104872 S    
Cr6   O26   1.982721 S    
C72   H44   1.107417 S    
C11   C18   1.406655 A    
C18   H8    1.079694 S    
C68   O22   1.264835 A    
C2    C24   1.459700 S    
C53   H31   1.081791 S    
C7    C8    1.393532 A    
C36   C40   1.404345 A    
C60   H36   1.083472 S    
O19   Cr6   1.950270 S    
C59   C63   1.493978 S    
C63   H39   1.103934 S    
O9    Cr2   2.090716 S    
C58   C62   1.492098 S    
C4    C64   1.453374 S    
C14   C72   1.503122 S    
O24   Cr6   2.068809 S    
C44   H24   1.075662 S    
C51   C56   1.374488 A    
C19   C24   1.411566 A    
C49   C50   1.396292 A    
O20   Cr4   2.079350 S    
C11   C66   1.457982 S    
C30   H15   1.111998 S    
C27   C32   1.390655 A    
O17   Cr5   1.969703 S    
C31   H16   1.111055 S    
C54   H33   1.111814 S    
C46   H26   1.098583 S    
O1    Cr1   2.066665 S    
C34   C35   1.371362 A    
O10   Cr2   1.949283 S    
C69   O24   1.253549 A    
Cr1   O13   2.003745 S    
O1    C3    1.271310 A    
C8    C9    1.389494 A    
C9    H6    1.080679 S    
C22   C23   1.410969 A    
C26   C30   1.470826 S    
O6    C3    1.280476 A    
C30   H14   1.106835 S    
C9    C10   1.403670 A    
C43   C47   1.497611 S    
C42   C43   1.369313 A    
C7    H4    1.080438 S    
C57   C61   1.413347 A    
C3    C32   1.443017 S    
C6    C56   1.442746 S    
C20   C21   1.390407 A    
C47   H29   1.111453 S    
C20   H9    1.082233 S    
C10   C16   1.413772 A    
C44   C45   1.395987 A    
C19   C23   1.498560 S    
O7    Cr1   2.078015 S    
C35   C39   1.492953 S    
C7    C17   1.390159 A    
C52   C56   1.416940 A    
C72   H46   1.099897 S    
O12   C6    1.273911 A    
C36   H18   1.082967 S    
C63   H40   1.110893 S    
C15   C20   1.393358 A    
C46   C47   1.510376 S    
O23   C69   1.285573 A    
C62   H37   1.102931 S    
Cr2   O13   1.985109 S    
C10   C13   1.510150 S    
O17   C66   1.315295 A    
C16   H7    1.080315 S    
C43   C48   1.388575 A    
C45   H25   1.081710 S    
C1    O3    1.273565 A    
O20   C70   1.273631 A    
C38   H20   1.111943 S    
C38   H21   1.107951 S    
C25   C26   1.391154 A    
C5    C48   1.440342 S    
C62   C63   1.517304 S    
C27   C31   1.492230 S    
C71   H42   1.109760 S    
O25   Cr6   1.975544 S    
C55   H35   1.112159 S    
C54   H32   1.104055 S    
C60   C61   1.403463 A    
C12   C24   1.398907 A    
O2    Cr1   1.956738 S    
O10   C5    1.266346 A    
O16   Cr5   2.065290 S    
C14   C15   1.399858 A    
C52   H30   1.078240 S    
O14   C67   1.300260 A    
C41   C42   1.400964 A    
O6    Cr3   1.943163 S    
O8    C4    1.271890 A    
O11   Cr3   2.062576 S    
C2    O5    1.270633 A    
C21   H10   1.082421 S    
O25   C70   1.279279 A    
C55   H34   1.111742 S    
C54   C55   1.507193 S    
C33   C67   1.447211 S    
C11   C13   1.425659 A    
O2    C1    1.275984 A    
C35   C40   1.396270 A    
C38   C39   1.529034 S    
C47   H28   1.106373 S    
O21   C68   1.288540 A    
O5    Cr3   2.097412 S    
O14   Cr4   2.073733 S    
C30   C31   1.504910 S    
C21   C22   1.395036 A    
O7    C6    1.280091 A    
C51   C55   1.485216 S    
C25   C65   1.445362 S    
C15   H3    1.076338 S    
C16   C17   1.396074 A    
C33   C34   1.391719 A    
C34   C38   1.488710 S    
C36   C37   1.408067 A    
C1    C40   1.446815 S    
C49   C68   1.453762 S    
O21   Cr4   1.954080 S    
C28   H12   1.070724 S    
C62   H38   1.110483 S    
O3    Cr2   2.069231 S    
C25   C29   1.392237 A    
C4    O9    1.275753 A    
O22   Cr5   2.086950 S    
C58   C59   1.375964 A    
C37   H19   1.077352 S    
C29   H13   1.071470 S    
C60   C64   1.412550 A    
C18   C19   1.391626 A    
O15   C65   1.277633 A    
Cr3   O13   1.992903 S    
C59   C64   1.392495 A    
C42   C46   1.492591 S    
C71   H41   1.104031 S    
C57   C70   1.450134 S    
O12   Cr3   1.973742 S    
