data_mof_unit_13085.cif
_audit_creation_date              2012-12-10T16:35:55-0500
_audit_creation_method            fapswitch 2.2
_symmetry_space_group_name_H-M    P1
_symmetry_Int_Tables_number       1
_space_group_crystal_system       triclinic
_cell_length_a                    14.195482
_cell_length_b                    16.440282
_cell_length_c                    12.980832
_cell_angle_alpha                 89.878015
_cell_angle_beta                  107.083797
_cell_angle_gamma                 89.785442
_cell_volume                      2895.72975431

loop_
_atom_site_label
_atom_site_type_symbol
_atom_type_description
_atom_site_fract_x
_atom_site_fract_y
_atom_site_fract_z
_atom_type_partial_charge
C1    C     C_R   0.314171 0.845037 0.475431 0.827899
C2    C     C_R   0.685785 0.843240 0.524056 0.804827
C3    C     C_R   0.186017 0.656089 0.522485 0.802622
C4    C     C_R   0.185786 0.343239 0.524061 0.804722
C5    C     C_R   0.546731 0.002454 0.786640 0.752853
C6    C     C_R   0.046738 0.502442 0.786632 0.753210
C7    C     C_R   0.454634 0.000028 0.213847 0.685679
C8    C     C_R   0.954584 0.500034 0.213846 0.685281
C9    C     C_2   0.445899 0.000594 0.097148 0.366526
C10   C     C_2   0.945726 0.500663 0.097128 0.366711
C11   C     C_2   0.514316 0.041756 0.065436 -0.147377
C12   C     C_R   0.314190 0.155227 0.474715 0.829896
C13   C     C_2   0.014505 0.541409 0.065524 -0.146632
C14   C     C_2   0.564462 0.005459 0.905063 0.284515
C15   C     C_2   0.064517 0.505321 0.905046 0.283975
C16   C     C_2   0.507551 0.052306 0.950104 0.117236
C17   C     C_2   0.007683 0.552129 0.950213 0.117466
C18   C     C_2   0.759634 0.219492 0.530451 0.172128
C19   C     C_2   0.756983 0.776082 0.537841 0.184715
C20   C     C_2   0.259615 0.719517 0.530493 0.172210
C21   C     C_2   0.256991 0.276078 0.537847 0.184736
C22   C     C_3   0.435710 0.117055 0.888188 -0.399913
C23   C     C_R   0.814170 0.345039 0.475435 0.827856
C24   C     C_3   0.449824 0.198474 0.947496 -0.920132
C25   C     C_3   0.935891 0.616980 0.888482 -0.399555
C26   C     C_3   0.950404 0.698389 0.947823 -0.920332
C27   C     C_3   0.723718 0.973071 0.997539 0.065426
C28   C     C_3   0.791284 0.899239 0.033870 -0.282530
C29   C     C_3   0.899724 0.923036 0.066710 -1.018891
C30   C     C_3   0.223723 0.472826 0.997543 0.065553
C31   C     C_3   0.291254 0.398973 0.033885 -0.282387
C32   C     C_3   0.399697 0.422791 0.067121 -1.018784
C33   C     C_3   0.286378 0.946455 0.042102 0.076000
C34   C     C_R   0.814191 0.655228 0.474719 0.829861
C35   C     C_3   0.268950 0.858425 0.070205 -0.302570
C36   C     C_3   0.170365 0.849434 0.093651 -0.979057
C37   C     C_3   0.785865 0.446993 0.042533 0.076020
C38   C     C_3   0.768563 0.358809 0.070093 -0.302781
C39   C     C_3   0.670282 0.349614 0.094164 -0.978364
C40   C     C_3   0.414292 0.664683 0.582851 0.068608
C41   C     C_3   0.518398 0.681184 0.655890 -0.301122
C42   C     C_3   0.594633 0.628224 0.625600 -0.944430
C43   C     C_3   0.395081 0.333498 0.658268 0.109965
C44   C     C_3   0.501870 0.304608 0.703817 -0.357498
C45   C     C_2   0.238771 0.784293 0.463377 0.233470
C46   C     C_3   0.570872 0.375232 0.749474 -0.970191
C47   C     C_3   0.914270 0.164582 0.582573 0.068599
C48   C     C_3   0.018406 0.180872 0.655677 -0.301061
C49   C     C_3   0.094538 0.127913 0.625201 -0.944599
C50   C     C_3   0.895166 0.833454 0.658130 0.109966
C51   C     C_3   0.001917 0.804457 0.703591 -0.357281
C52   C     C_3   0.071056 0.875026 0.749120 -0.970603
C53   C     C_3   0.607866 0.362331 0.358280 0.088814
C54   C     C_3   0.552258 0.376857 0.441733 -0.331495
C55   C     C_3   0.492188 0.455498 0.418173 -1.003022
C56   C     C_2   0.241134 0.218603 0.461034 0.233838
C57   C     C_3   0.625973 0.662869 0.311364 0.093572
C58   C     C_3   0.655210 0.640634 0.210500 -0.321508
C59   C     C_3   0.590372 0.572813 0.147680 -1.013734
C60   C     C_3   0.107924 0.862182 0.357919 0.089058
C61   C     C_3   0.052150 0.876748 0.441211 -0.331727
C62   C     C_3   0.991963 0.955320 0.417415 -1.003097
C63   C     C_3   0.126081 0.162883 0.311248 0.093449
C64   C     C_3   0.155514 0.140704 0.210481 -0.321612
C65   C     C_3   0.090737 0.072914 0.147495 -1.013520
C66   C     C_2   0.738759 0.284308 0.463403 0.233521
C67   C     C_2   0.741131 0.718599 0.461038 0.233752
C68   C     C_R   0.686019 0.156086 0.522480 0.802556
H1    H     H_    0.572669 0.074046 0.124089 0.098137
H2    H     H_    0.900422 0.744872 0.897655 0.275092
H3    H     H_    0.943943 0.628928 0.807508 0.217420
H4    H     H_    0.859344 0.595862 0.877707 0.243353
H5    H     H_    0.735438 0.016580 0.065687 0.135479
H6    H     H_    0.743956 0.003362 0.930138 0.155043
H7    H     H_    0.774517 0.869403 0.103371 0.233115
H8    H     H_    0.777416 0.854732 0.966741 0.229649
H9    H     H_    0.918358 0.953278 0.998649 0.275609
H10   H     H_    0.946101 0.867588 0.089516 0.276892
H11   H     H_    0.916170 0.964687 0.136865 0.268096
H12   H     H_    0.073347 0.573141 0.124300 0.097527
H13   H     H_    0.235363 0.516294 0.065732 0.135420
H14   H     H_    0.244058 0.503156 0.930223 0.155004
H15   H     H_    0.274279 0.369015 0.103201 0.233124
H16   H     H_    0.277566 0.354558 0.966650 0.229455
H17   H     H_    0.418530 0.453190 0.999268 0.275502
H18   H     H_    0.446055 0.367324 0.089882 0.276909
H19   H     H_    0.415963 0.464318 0.137415 0.268040
H20   H     H_    0.228705 0.963317 0.966530 0.162620
H21   H     H_    0.276042 0.988803 0.104851 0.103987
H22   H     H_    0.269863 0.818258 0.001719 0.225855
H23   H     H_    0.431903 0.193140 0.024954 0.272911
H24   H     H_    0.328778 0.838342 0.142086 0.248998
H25   H     H_    0.168708 0.888496 0.162599 0.265565
H26   H     H_    0.160353 0.785248 0.114872 0.278729
H27   H     H_    0.108810 0.866979 0.021893 0.266732
H28   H     H_    0.727841 0.464174 0.967376 0.162552
H29   H     H_    0.775986 0.489046 0.105810 0.104249
H30   H     H_    0.769041 0.318985 0.001131 0.225866
H31   H     H_    0.828684 0.338432 0.141537 0.248796
H32   H     H_    0.669094 0.388294 0.163632 0.265591
H33   H     H_    0.660310 0.285301 0.114881 0.278563
H34   H     H_    0.527060 0.219318 0.963430 0.261080
H35   H     H_    0.608453 0.367518 0.022849 0.266583
H36   H     H_    0.413738 0.675576 0.497691 0.133769
H37   H     H_    0.395426 0.599955 0.592065 0.156581
H38   H     H_    0.536702 0.746256 0.648622 0.220273
H39   H     H_    0.521649 0.668798 0.741091 0.230566
H40   H     H_    0.579665 0.562914 0.635290 0.261910
H41   H     H_    0.669476 0.642664 0.678796 0.285030
H42   H     H_    0.592657 0.639906 0.540767 0.254683
H43   H     H_    0.374653 0.370298 0.720301 0.185007
H44   H     H_    0.390763 0.372892 0.586896 0.122367
H45   H     H_    0.399866 0.244886 0.897148 0.275139
H46   H     H_    0.507499 0.259548 0.768972 0.237838
H47   H     H_    0.525676 0.274357 0.639055 0.207536
H48   H     H_    0.566174 0.421931 0.686380 0.264784
H49   H     H_    0.647973 0.352583 0.778922 0.280541
H50   H     H_    0.551025 0.403538 0.817949 0.260011
H51   H     H_    0.913741 0.175616 0.497451 0.133903
H52   H     H_    0.895274 0.099855 0.591575 0.156454
H53   H     H_    0.036838 0.245941 0.648647 0.220337
H54   H     H_    0.021626 0.168324 0.740831 0.230512
H55   H     H_    0.079423 0.062598 0.634620 0.261884
H56   H     H_    0.443988 0.129047 0.807322 0.217505
H57   H     H_    0.169406 0.142180 0.678469 0.284990
H58   H     H_    0.092603 0.139770 0.540420 0.254730
H59   H     H_    0.874863 0.870339 0.720168 0.185026
H60   H     H_    0.890841 0.872794 0.586707 0.122203
H61   H     H_    0.007530 0.759442 0.768796 0.237809
H62   H     H_    0.025599 0.774124 0.638801 0.207545
H63   H     H_    0.066347 0.921688 0.685985 0.264775
H64   H     H_    0.148126 0.852303 0.778473 0.280593
H65   H     H_    0.051347 0.903403 0.817630 0.259990
H66   H     H_    0.553118 0.361904 0.277224 0.177385
H67   H     H_    0.359187 0.095786 0.877163 0.242923
H68   H     H_    0.658823 0.413369 0.357263 0.101841
H69   H     H_    0.501866 0.325067 0.440670 0.245195
H70   H     H_    0.605760 0.380824 0.523386 0.220121
H71   H     H_    0.541015 0.507935 0.418009 0.263956
H72   H     H_    0.455139 0.465870 0.481307 0.254738
H73   H     H_    0.435067 0.451761 0.338782 0.270614
H74   H     H_    0.545884 0.677249 0.287432 0.177053
H75   H     H_    0.636839 0.609276 0.366425 0.083099
H76   H     H_    0.647480 0.695008 0.157543 0.246521
H77   H     H_    0.733446 0.620428 0.234069 0.214304
H78   H     H_    0.932802 0.693110 0.025466 0.273106
H79   H     H_    0.597062 0.517743 0.198982 0.259731
H80   H     H_    0.613519 0.557295 0.075522 0.267572
H81   H     H_    0.512124 0.592875 0.120478 0.276783
H82   H     H_    0.053277 0.861670 0.276803 0.177341
H83   H     H_    0.158864 0.913238 0.356920 0.101847
H84   H     H_    0.001819 0.824919 0.440175 0.245366
H85   H     H_    0.105556 0.880831 0.522904 0.220016
H86   H     H_    0.040723 0.007797 0.417238 0.263932
H87   H     H_    0.954787 0.965708 0.480433 0.254767
H88   H     H_    0.934942 0.951469 0.337976 0.270785
H89   H     H_    0.027661 0.719099 0.963414 0.261071
H90   H     H_    0.045980 0.177230 0.287174 0.177067
H91   H     H_    0.136889 0.109276 0.366282 0.083095
H92   H     H_    0.147886 0.195108 0.157589 0.246425
H93   H     H_    0.233748 0.120485 0.234182 0.214442
H94   H     H_    0.097281 0.017831 0.198755 0.259610
H95   H     H_    0.114065 0.057404 0.075449 0.267617
H96   H     H_    0.012503 0.093010 0.120103 0.276776
O1    O     O_3   0.500010 0.000000 0.500000 -0.478219
O2    O     O_R   0.103010 0.337110 0.452470 -0.599334
O3    O     O_R   0.316670 0.095240 0.537470 -0.650463
O4    O     O_R   0.316670 0.904760 0.537470 -0.646208
O5    O     O_R   0.816670 0.595240 0.537470 -0.650450
O6    O     O_R   0.816670 0.404760 0.537470 -0.646229
O7    O     O_R   0.703490 0.904800 0.585920 -0.668153
O8    O     O_R   0.703490 0.095200 0.585920 -0.643811
O9    O     O_R   0.203490 0.404800 0.585920 -0.668265
O10   O     O_R   0.203490 0.595200 0.585920 -0.643845
O11   O     O_R   0.458050 0.000000 0.725250 -0.632842
O12   O     O_3   0.000010 0.500000 0.500000 -0.478211
O13   O     O_R   0.958050 0.500000 0.725250 -0.632804
O14   O     O_R   0.461630 0.932310 0.264690 -0.620367
O15   O     O_R   0.461630 0.067690 0.264690 -0.657031
O16   O     O_R   0.961630 0.432310 0.264690 -0.620613
O17   O     O_R   0.961630 0.567690 0.264690 -0.656801
O18   O     O_R   0.618750 0.000000 0.745380 -0.647334
O19   O     O_R   0.118750 0.500000 0.745380 -0.647348
O20   O     O_3   0.625103 0.946142 0.966872 -0.631206
O21   O     O_3   0.125105 0.445903 0.966693 -0.631506
O22   O     O_3   0.378904 0.952490 0.021935 -0.626584
O23   O     O_R   0.376880 0.837120 0.424150 -0.659009
O24   O     O_3   0.878063 0.453198 0.021645 -0.627292
O25   O     O_3   0.347366 0.716281 0.613564 -0.652674
O26   O     O_3   0.332507 0.264966 0.633740 -0.681379
O27   O     O_3   0.847445 0.216195 0.613432 -0.652672
O28   O     O_3   0.832481 0.764981 0.633744 -0.681340
O29   O     O_3   0.655668 0.285531 0.373351 -0.647259
O30   O     O_3   0.676916 0.733730 0.358678 -0.644426
O31   O     O_3   0.155799 0.785412 0.373194 -0.647273
O32   O     O_3   0.176925 0.233754 0.358672 -0.644474
O33   O     O_R   0.376880 0.162880 0.424150 -0.652266
O34   O     O_R   0.876880 0.337120 0.424150 -0.658956
O35   O     O_R   0.876880 0.662880 0.424150 -0.652304
O36   O     O_R   0.603010 0.162890 0.452470 -0.604965
O37   O     O_R   0.603010 0.837110 0.452470 -0.599432
O38   O     O_R   0.103010 0.662890 0.452470 -0.605065
Zn1   Zn    Zn3+2 0.485630 0.096680 0.411850 0.967417
Zn2   Zn    Zn3+2 0.485630 0.903320 0.411850 0.982205
Zn3   Zn    Zn3+2 0.985630 0.596680 0.411850 0.967396
Zn4   Zn    Zn3+2 0.985630 0.403320 0.411850 0.982212
Zn5   Zn    Zn3+2 0.399590 0.000000 0.573760 0.978851
Zn6   Zn    Zn3+2 0.899590 0.500000 0.573760 0.978954
Zn7   Zn    Zn3+2 0.629190 0.000000 0.602520 0.956592
Zn8   Zn    Zn3+2 0.129190 0.500000 0.602520 0.956573

loop_
_geom_bond_atom_site_label_1
_geom_bond_atom_site_label_2
_ccdc_geom_bond_type
C8    O17   A    
C45   O31   S    
C55   H73   S    
O14   Zn2   S    
O34   Zn4   S    
C53   O29   S    
C41   C42   S    
O9    Zn8   S    
O11   Zn5   S    
C38   H30   S    
O1    Zn7   S    
C1    O23   A    
O5    Zn6   S    
C37   H29   S    
C51   H61   S    
C58   H77   S    
C55   H71   S    
C54   H70   S    
C53   C54   S    
O19   Zn8   S    
C49   H58   S    
C15   O21   S    
C23   O34   A    
C57   O30   S    
C57   H74   S    
C23   C66   S    
C28   C29   S    
O1    Zn2   S    
C48   H54   S    
C30   C31   S    
O7    Zn7   S    
C54   H69   S    
C18   C68   S    
C49   H55   S    
C33   H20   S    
O35   Zn3   S    
C31   H15   S    
C62   H87   S    
C46   H50   S    
C26   H89   S    
C15   C17   D    
O12   Zn4   S    
C26   H78   S    
C27   O20   S    
C6    C15   S    
C56   O32   S    
C34   O35   A    
C29   H10   S    
C47   C48   S    
C43   O26   S    
C4    O2    A    
O38   Zn3   S    
C65   H94   S    
C10   O24   S    
C12   O33   A    
C19   C67   D    
C33   O22   S    
C25   H3    S    
C63   H91   S    
C67   O30   S    
C50   O28   S    
C24   H34   S    
C20   C45   D    
C2    O7    A    
C35   H24   S    
C47   H51   S    
C13   H12   S    
C44   H46   S    
C24   H45   S    
C47   O27   S    
C52   H65   S    
C5    O11   A    
C64   H92   S    
C2    O37   A    
C43   H43   S    
C35   C36   S    
C12   O3    A    
O16   Zn4   S    
C36   H25   S    
C51   H62   S    
C44   C46   S    
C39   H33   S    
C59   H81   S    
C18   O27   S    
C41   H38   S    
C40   O25   S    
C51   C52   S    
C52   H64   S    
C30   O21   S    
C44   H47   S    
C9    O22   S    
C48   H53   S    
C36   H26   S    
C57   H75   S    
C38   H31   S    
C1    O4    A    
C25   C26   S    
C32   H19   S    
O23   Zn2   S    
O18   Zn7   S    
C31   H16   S    
C62   H86   S    
C37   H28   S    
C60   C61   S    
C60   H83   S    
O3    Zn5   S    
O12   Zn3   S    
C30   H14   S    
O17   Zn3   S    
C43   C44   S    
O6    Zn6   S    
C37   C38   S    
C33   H21   S    
C40   H36   S    
C9    C11   D    
C11   C16   S    
C8    O16   A    
C3    O10   A    
C31   C32   S    
C29   H11   S    
C32   H18   S    
C65   H95   S    
C50   C51   S    
O4    Zn5   S    
C7    O15   A    
C3    C20   S    
C25   H4    S    
C60   H82   S    
C39   H35   S    
O1    Zn5   S    
C5    C14   S    
C12   C56   S    
C34   O5    A    
C40   C41   S    
O15   Zn1   S    
O8    Zn7   S    
C6    O19   A    
C4    O9    A    
C6    O13   A    
C26   H2    S    
O37   Zn2   S    
C22   C24   S    
C58   C59   S    
C50   H60   S    
C43   H44   S    
C27   H6    S    
C24   H23   S    
C5    O18   A    
C20   O25   S    
C66   O29   S    
C39   H32   S    
C21   O26   S    
C7    C9    S    
C54   C55   S    
C48   C49   S    
C16   C22   S    
C41   H39   S    
C2    C19   S    
O10   Zn8   S    
C52   H63   S    
C42   H41   S    
C53   H66   S    
C64   H93   S    
C10   C13   D    
C61   H85   S    
C34   C67   S    
C21   C56   D    
C14   O20   S    
C11   H1    S    
C22   H56   S    
C46   H48   S    
C18   C66   D    
C49   H57   S    
C19   O28   S    
O13   Zn6   S    
C13   C17   S    
C22   H67   S    
C68   O36   A    
C17   C25   S    
C64   C65   S    
O12   Zn6   S    
C30   H13   S    
O1    Zn1   S    
C59   H80   S    
C4    C21   S    
C68   O8    A    
C36   H27   S    
C1    C45   S    
C57   C58   S    
C38   C39   S    
C23   O6    A    
O36   Zn1   S    
C32   H17   S    
C65   H96   S    
C33   C35   S    
C62   H88   S    
O33   Zn1   S    
C14   C16   D    
C42   H42   S    
C61   C62   S    
C61   H84   S    
C53   H68   S    
C55   H72   S    
C63   C64   S    
C37   O24   S    
C35   H22   S    
C58   H76   S    
C46   H49   S    
C29   H9    S    
C7    O14   A    
C8    C10   S    
C27   C28   S    
O12   Zn8   S    
C3    O38   A    
C47   H52   S    
C63   O32   S    
C50   H59   S    
O2    Zn4   S    
C63   H90   S    
C27   H5    S    
C28   H7    S    
C42   H40   S    
C60   O31   S    
C59   H79   S    
C40   H37   S    
C28   H8    S    
