data_mof_unit_58441.cif
_audit_creation_date              2012-12-10T20:38:23-0500
_audit_creation_method            fapswitch 2.2
_symmetry_space_group_name_H-M    P1
_symmetry_Int_Tables_number       1
_space_group_crystal_system       triclinic
_cell_length_a                    9.909768
_cell_length_b                    10.650933
_cell_length_c                    16.810556
_cell_angle_alpha                 89.637411
_cell_angle_beta                  82.081876
_cell_angle_gamma                 89.935798
_cell_volume                      1757.37341333

loop_
_atom_site_label
_atom_site_type_symbol
_atom_type_description
_atom_site_fract_x
_atom_site_fract_y
_atom_site_fract_z
_atom_type_partial_charge
C1    C     C_R   0.501180 0.739475 0.494307 0.872095
C2    C     C_R   0.547874 0.491559 0.261522 -0.103761
C3    C     C_R   0.382019 0.936527 0.499462 0.122521
C4    C     C_R   0.477524 0.498130 0.652958 0.869631
C5    C     C_R   0.502311 0.870718 0.477468 -0.208624
C6    C     C_R   0.618016 0.933832 0.436797 -0.097626
C7    C     C_R   0.618043 0.066398 0.438230 -0.051528
C8    C     C_R   0.502575 0.129011 0.478797 -0.180888
C9    C     C_R   0.381537 0.063594 0.498536 0.111696
C10   C     C_3   0.273417 0.071690 0.569795 -0.476534
C11   C     C_3   0.273365 0.928805 0.570952 -0.220729
C12   C     C_R   0.378743 0.405431 0.785762 -0.043872
C13   C     C_R   0.912848 0.481593 0.569529 0.222605
C14   C     C_R   0.946668 0.510882 0.429978 -0.005630
C15   C     C_R   0.089247 0.512082 0.430642 -0.091726
C16   C     C_R   0.501160 0.260289 0.495220 0.876776
C17   C     C_R   0.055135 0.481202 0.569445 0.177710
C18   C     C_3   0.044387 0.560911 0.642568 -0.482140
C19   C     C_3   0.891222 0.561796 0.642674 -0.460752
C20   C     C_R   0.522668 0.499938 0.347436 0.848738
C21   C     C_R   0.457857 0.498138 0.739854 -0.142197
C22   C     C_R   0.532371 0.586442 0.776477 -0.176517
C23   C     C_R   0.581698 0.587894 0.130985 -0.140268
C24   C     C_R   0.537664 0.579257 0.857675 -0.049310
C25   C     C_R   0.468772 0.483315 0.903330 0.111520
C26   C     C_R   0.380513 0.401365 0.869827 -0.001471
C27   C     C_2   0.656313 0.236649 0.110635 0.407969
C28   C     C_2   0.734161 0.861696 0.393171 0.508624
C29   C     C_1   0.732633 0.136587 0.397329 0.314439
C30   C     C_1   0.321101 0.875611 0.643281 0.257159
C31   C     C_2   0.900469 0.518487 0.350994 0.450930
C32   C     C_1   0.506470 0.720273 0.246892 0.159441
C33   C     C_2   0.743289 0.436552 0.957299 0.414719
C34   C     C_R   0.546210 0.599011 0.213325 -0.000639
C35   C     C_2   0.293069 0.313003 0.923254 0.477535
C36   C     C_2   0.308078 0.306474 0.744991 0.435444
C37   C     C_R   0.589786 0.375546 0.228380 -0.173912
C38   C     C_R   0.622458 0.362661 0.145409 0.017945
C39   C     C_R   0.615846 0.470295 0.096749 -0.047020
C40   C     C_2   0.489549 0.471991 0.986971 -0.280118
C41   C     C_2   0.613197 0.459430 0.010836 -0.071426
H1    H     H_    0.591531 0.658134 0.741317 0.153627
H2    H     H_    0.593940 0.294814 0.267642 0.169464
H3    H     H_    0.575417 0.669458 0.092622 0.158399
H4    H     H_    0.399196 0.479390 0.031571 0.159651
H5    H     H_    0.600083 0.645862 0.884721 0.143599
H6    H     H_    0.676591 0.223981 0.046196 0.089468
H7    H     H_    0.715616 0.771652 0.366924 0.103027
H8    H     H_    0.849511 0.439182 0.328364 0.096614
H9    H     H_    0.839098 0.449707 0.980590 0.088780
H10   H     H_    0.328019 0.275211 0.976923 0.060125
H11   H     H_    0.257773 0.328946 0.693476 0.067463
H12   H     H_    0.311504 0.116345 0.621864 0.226942
H13   H     H_    0.177298 0.112389 0.553779 0.209390
H14   H     H_    0.177143 0.886377 0.556728 0.173595
H15   H     H_    0.156591 0.522364 0.374694 0.182788
H16   H     H_    0.076087 0.509666 0.694744 0.211531
H17   H     H_    0.092414 0.654668 0.630420 0.214213
H18   H     H_    0.835037 0.511297 0.695120 0.235329
H19   H     H_    0.849893 0.656081 0.630555 0.213095
N1    N     N_R   0.857140 0.500860 0.500530 -0.147341
N2    N     N_R   0.142780 0.500820 0.500530 -0.123668
N3    N     N_1   0.824336 0.192166 0.364559 -0.196344
N4    N     N_1   0.358500 0.833742 0.700060 -0.187763
N5    N     N_1   0.474395 0.817374 0.273699 -0.172733
O1    O     O_R   0.385310 0.683210 0.499990 -0.600107
O2    O     O_2   0.851090 0.900314 0.387179 -0.534061
O3    O     O_2   0.927134 0.610526 0.308103 -0.556360
O4    O     O_2   0.745404 0.398230 0.888848 -0.546412
O5    O     O_2   0.178715 0.285902 0.909814 -0.522251
O6    O     O_2   0.308934 0.197234 0.767378 -0.536231
O7    O     O_R   0.614650 0.683240 0.500000 -0.626490
O8    O     O_R   0.371780 0.500000 0.615800 -0.633296
O9    O     O_R   0.601120 0.500040 0.615800 -0.599146
O10   O     O_R   0.385350 0.316760 0.500000 -0.611220
O11   O     O_R   0.614690 0.316790 0.500010 -0.619451
O12   O     O_R   0.398880 0.499960 0.384200 -0.614236
O13   O     O_R   0.628220 0.500000 0.384200 -0.648770
O14   O     O_2   0.661927 0.144648 0.153817 -0.547016
Zn1   Zn    Zn3+2 0.346870 0.499980 0.499990 0.955766
Zn2   Zn    Zn3+2 0.653130 0.500020 0.500010 0.959217

loop_
_geom_bond_atom_site_label_1
_geom_bond_atom_site_label_2
_ccdc_geom_bond_type
C29   N3    T    
C7    C29   S    
C30   N4    T    
C16   O10   A    
O13   Zn2   S    
C14   C31   S    
C7    C8    A    
C39   C41   S    
C20   O12   A    
C1    C5    S    
N2    Zn1   S    
C27   O14   D    
C25   C40   S    
C5    C6    A    
C27   C38   S    
C18   C19   S    
C10   H12   S    
C15   N2    A    
C6    C28   S    
C35   O5    D    
C8    C9    A    
C12   C36   S    
C9    C10   S    
C4    O9    A    
O7    Zn2   S    
C36   H11   S    
C36   O6    D    
C33   O4    D    
C2    C34   A    
C8    C16   S    
C21   C22   A    
C31   O3    D    
C31   H8    S    
C18   H17   S    
C1    O1    A    
C40   H4    S    
C1    O7    A    
C13   C19   S    
C2    C20   S    
C28   O2    D    
C38   C39   A    
C24   C25   A    
C11   C30   S    
C19   H18   S    
C25   C26   A    
C14   N1    A    
C12   C21   A    
C23   H3    S    
C12   C26   A    
C32   C34   S    
C37   H2    S    
C37   C38   A    
C3    C9    A    
C17   N2    A    
C18   H16   S    
C23   C34   A    
C17   C18   S    
C4    O8    A    
C40   C41   D    
C35   H10   S    
C22   C24   A    
O9    Zn2   S    
C11   H14   S    
O10   Zn1   S    
O12   Zn1   S    
C27   H6    S    
C28   H7    S    
C16   O11   A    
C3    C5    A    
O11   Zn2   S    
C6    C7    A    
C13   C17   A    
C19   H19   S    
O1    Zn1   S    
C20   O13   A    
C33   C41   S    
C15   H15   S    
C33   H9    S    
C24   H5    S    
N1    Zn2   S    
C4    C21   S    
C2    C37   A    
C22   H1    S    
C23   C39   A    
O8    Zn1   S    
C10   H13   S    
C3    C11   S    
C10   C11   S    
C26   C35   S    
C13   N1    A    
C14   C15   A    
C32   N5    T    
