data_mof_unit_30062.cif
_audit_creation_date              2012-12-10T17:52:25-0500
_audit_creation_method            fapswitch 2.2
_symmetry_space_group_name_H-M    P1
_symmetry_Int_Tables_number       1
_space_group_crystal_system       triclinic
_cell_length_a                    19.115819
_cell_length_b                    10.667202
_cell_length_c                    9.971904
_cell_angle_alpha                 90.221297
_cell_angle_beta                  90.776342
_cell_angle_gamma                 93.021523
_cell_volume                      2030.35936705

loop_
_atom_site_label
_atom_site_type_symbol
_atom_type_description
_atom_site_fract_x
_atom_site_fract_y
_atom_site_fract_z
_atom_type_partial_charge
C1    C     C_R   0.504154 0.261050 0.500262 0.946090
C2    C     C_R   0.851557 0.432609 0.507194 -0.008514
C3    C     C_R   0.622950 0.135901 0.631617 0.603398
C4    C     C_R   0.365386 0.497783 0.499188 0.929347
C5    C     C_R   0.676663 0.071886 0.692210 -0.182616
C6    C     C_R   0.675198 0.941757 0.689058 -0.210365
C7    C     C_R   0.619782 0.874670 0.625707 -0.166047
C8    C     C_R   0.564006 0.937493 0.565585 0.029050
C9    C     C_R   0.565393 0.069559 0.567146 -0.040576
C10   C     C_R   0.509715 0.128614 0.500771 -0.091072
C11   C     C_R   0.456109 0.059933 0.433314 -0.210123
C12   C     C_R   0.289079 0.480424 0.497720 -0.271449
C13   C     C_R   0.454957 0.931885 0.432943 -0.180930
C14   C     C_R   0.507389 0.871652 0.500402 -0.034151
C15   C     C_R   0.401585 0.328689 0.126132 0.580738
C16   C     C_R   0.501574 0.739182 0.500167 0.837179
C17   C     C_R   0.357057 0.250538 0.044783 -0.220798
C18   C     C_R   0.360611 0.254495 0.908267 -0.268725
C19   C     C_R   0.408366 0.336477 0.849178 -0.115803
C20   C     C_R   0.454161 0.418447 0.923828 0.080133
C21   C     C_R   0.452847 0.416896 0.068374 -0.004152
C22   C     C_R   0.544076 0.577671 0.072894 0.649294
C23   C     C_R   0.926711 0.414346 0.507108 0.309118
C24   C     C_R   0.543934 0.577612 0.930332 -0.146262
C25   C     C_R   0.634554 0.500401 0.500771 0.942133
C26   C     C_R   0.254674 0.449737 0.617423 -0.271639
C27   C     C_R   0.182936 0.424017 0.617118 -0.219990
C28   C     C_R   0.144109 0.428950 0.497264 -0.154540
C29   C     C_R   0.178366 0.459539 0.376783 0.570515
C30   C     C_R   0.250364 0.485531 0.377108 0.538985
C31   C     C_R   0.067791 0.412709 0.501642 0.366031
C32   C     C_R   0.819652 0.473981 0.624030 -0.239495
C33   C     C_R   0.749365 0.500568 0.621968 0.658332
C34   C     C_R   0.709927 0.485004 0.502505 -0.138568
C35   C     C_R   0.742017 0.444128 0.385676 -0.234698
C36   C     C_R   0.812240 0.417882 0.388052 -0.148251
F1    F     F_    0.629444 0.262171 0.635347 -0.677337
F2    F     F_    0.589369 0.657660 0.140657 -0.638774
F3    F     F_    0.142384 0.468342 0.259140 -0.610416
F4    F     F_    0.281612 0.516888 0.259514 -0.616799
F5    F     F_    0.720434 0.541832 0.736560 -0.654473
H1    H     H_    0.283135 0.444125 0.711638 0.212959
H2    H     H_    0.579978 0.641418 0.878229 0.191692
H3    H     H_    0.849175 0.487669 0.716851 0.187441
H4    H     H_    0.712640 0.430037 0.292704 0.203877
H5    H     H_    0.835656 0.386597 0.296332 0.179829
H6    H     H_    0.413727 0.105347 0.383721 0.164437
H7    H     H_    0.350461 0.264426 0.282160 0.299744
H8    H     H_    0.720234 0.123863 0.740621 0.179490
H9    H     H_    0.717470 0.892618 0.734774 0.195151
H10   H     H_    0.621859 0.773621 0.622798 0.168284
H11   H     H_    0.412131 0.879290 0.382412 0.160490
H12   H     H_    0.319207 0.183907 0.088388 0.152250
H13   H     H_    0.326094 0.193107 0.847337 0.178166
H14   H     H_    0.407172 0.331975 0.743484 0.209630
H15   H     H_    0.157853 0.400800 0.711227 0.208291
N1    N     N_R   0.029297 0.394104 0.387568 -0.073611
N2    N     N_R   0.959954 0.394922 0.390230 -0.157370
N3    N     N_R   0.965071 0.428502 0.621913 -0.163929
N4    N     N_R   0.034385 0.427588 0.619219 -0.164737
N5    N     N_R   0.499340 0.498800 0.142780 -0.156337
N6    N     N_R   0.499320 0.498720 0.857170 -0.136475
O1    O     O_R   0.500000 0.316780 0.614690 -0.609627
O2    O     O_R   0.499990 0.316750 0.385360 -0.569564
O3    O     O_R   0.398140 0.500000 0.614700 -0.661827
O4    O     O_R   0.398130 0.499970 0.385370 -0.501189
O5    O     O_R   0.500010 0.683250 0.614640 -0.632509
O6    O     O_R   0.500000 0.683220 0.385310 -0.569340
O7    O     O_R   0.601870 0.500030 0.614630 -0.517493
O8    O     O_R   0.601860 0.500000 0.385300 -0.602031
O9    O     O_3   0.394248 0.314050 0.260597 -0.730018
Zn1   Zn    Zn3+2 0.500000 0.500020 0.653130 1.001044
Zn2   Zn    Zn3+2 0.500000 0.499980 0.346870 1.069504

loop_
_geom_bond_atom_site_label_1
_geom_bond_atom_site_label_2
_ccdc_geom_bond_type
C31   N4    A    
O7    Zn1   S    
C4    O4    A    
O2    Zn2   S    
C36   H5    S    
C29   C30   A    
C3    C9    A    
C4    C12   S    
O3    Zn1   S    
C15   O9    S    
C9    C10   A    
C11   H6    S    
C19   C20   A    
C25   C34   S    
C33   F5    S    
C32   C33   A    
C29   F3    S    
O8    Zn2   S    
C12   C30   A    
C17   C18   A    
C32   H3    S    
N1    N2    A    
N6    Zn1   S    
N3    N4    A    
C16   O5    A    
C13   C14   A    
C6    H9    S    
C22   N5    A    
C23   N3    A    
C11   C13   A    
C5    H8    S    
C26   C27   A    
C6    C7    A    
C16   O6    A    
C1    O1    A    
C28   C29   A    
C33   C34   A    
C23   N2    A    
C14   C16   S    
C2    C23   S    
C20   N6    A    
C5    C6    A    
C7    C8    A    
C22   C24   A    
O1    Zn1   S    
C25   O7    A    
C10   C11   A    
C18   H13   S    
H7    O9    S    
C7    H10   S    
C13   H11   S    
C1    O2    A    
C17   H12   S    
C15   C21   A    
O5    Zn1   S    
C2    C36   A    
C20   C21   A    
C26   H1    S    
C2    C32   A    
C34   C35   A    
C1    C10   S    
C19   H14   S    
C27   C28   A    
C15   C17   A    
C24   H2    S    
C30   F4    S    
C4    O3    A    
C18   C19   A    
C24   N6    A    
C25   O8    A    
C8    C14   A    
N5    Zn2   S    
O6    Zn2   S    
C27   H15   S    
O4    Zn2   S    
C21   N5    A    
C28   C31   S    
C31   N1    A    
C35   C36   A    
C3    F1    S    
C12   C26   A    
C8    C9    A    
C3    C5    A    
C22   F2    S    
C35   H4    S    
