data_mof_unit_21460.cif
_audit_creation_date              2012-12-10T18:46:21-0500
_audit_creation_method            fapswitch 2.2
_symmetry_space_group_name_H-M    P1
_symmetry_Int_Tables_number       1
_space_group_crystal_system       triclinic
_cell_length_a                    9.8746
_cell_length_b                    10.68553
_cell_length_c                    13.165272
_cell_angle_alpha                 90.777509
_cell_angle_beta                  69.862711
_cell_angle_gamma                 90.442245
_cell_volume                      1304.09366477

loop_
_atom_site_label
_atom_site_type_symbol
_atom_type_description
_atom_site_fract_x
_atom_site_fract_y
_atom_site_fract_z
_atom_type_partial_charge
C1    C     C_R   0.501511 0.739942 0.497944 0.970825
C2    C     C_R   0.454823 0.471393 0.971205 -0.099764
C3    C     C_R   0.461219 0.537055 0.877238 -0.069230
C4    C     C_R   0.558059 0.502672 0.019891 0.052002
C5    C     C_R   0.680674 0.576175 0.964472 -0.016942
C6    C     C_R   0.684497 0.642605 0.872642 0.388554
C7    C     C_R   0.565831 0.633048 0.836821 0.286066
C8    C     C_R   0.532052 0.477735 0.128082 -0.170297
C9    C     C_R   0.767263 0.558245 0.115505 0.390487
C10   C     C_R   0.367687 0.500302 0.822098 -0.106201
C11   C     C_R   0.633859 0.936710 0.444815 0.469381
C12   C     C_R   0.419628 0.504130 0.704228 0.958838
C13   C     C_R   0.631133 0.066137 0.446736 -0.263090
C14   C     C_R   0.500655 0.127924 0.496621 -0.061841
C15   C     C_R   0.371607 0.063563 0.544072 -0.125026
C16   C     C_R   0.373201 0.935450 0.543750 -0.206970
C17   C     C_R   0.503635 0.872604 0.495195 -0.060554
C18   C     C_R   0.947902 0.404718 0.452361 -0.013297
C19   C     C_R   0.091779 0.404923 0.450189 0.492995
C20   C     C_R   0.050287 0.594931 0.548816 -0.132653
C21   C     C_R   0.907097 0.595382 0.547857 -0.040841
C22   C     C_R   0.499884 0.260167 0.499279 0.897059
C23   C     C_R   0.580674 0.500642 0.295520 0.916002
C24   C     C_R   0.789749 0.593849 0.009448 -0.126075
C25   C     C_R   0.632008 0.508073 0.177655 -0.165561
C26   C     C_R   0.246501 0.426672 0.873402 -0.316199
C27   C     C_R   0.235267 0.365164 0.968061 0.441384
C28   C     C_R   0.346710 0.376372 0.010935 0.337063
H1    H     H_    0.729728 0.118452 0.408413 0.163502
H2    H     H_    0.270708 0.112222 0.583067 0.183239
H3    H     H_    0.273101 0.885542 0.582840 0.181263
H4    H     H_    0.909929 0.329215 0.413400 0.166151
H5    H     H_    0.086945 0.670954 0.588012 0.169431
H6    H     H_    0.836335 0.672291 0.585055 0.175601
H7    H     H_    0.888531 0.642965 0.965396 0.226261
H8    H     H_    0.425902 0.447275 0.177843 0.213939
H9    H     H_    0.170497 0.403586 0.833036 0.203452
N1    N     N_R   0.142790 0.500030 0.500030 -0.142746
N2    N     N_R   0.857180 0.499940 0.500010 -0.118418
O1    O     O_R   0.385370 0.683250 0.500010 -0.643194
O2    O     O_R   0.614700 0.683220 0.500010 -0.538001
O3    O     O_R   0.328400 0.499990 0.653620 -0.617797
O4    O     O_R   0.557730 0.499960 0.653620 -0.605409
O5    O     O_R   0.385300 0.316780 0.499990 -0.624022
O6    O     O_R   0.614630 0.316750 0.499990 -0.633713
O7    O     O_R   0.442270 0.500040 0.346380 -0.653686
O8    O     O_R   0.671600 0.500010 0.346380 -0.548589
Zn1   Zn    Zn3+2 0.346870 0.500020 0.500000 0.976056
Zn2   Zn    Zn3+2 0.653130 0.499980 0.500000 1.036992
Cl1   Cl    Cl    0.904355 0.593375 0.168923 -0.517857
O9    O     O_3   0.177032 0.307176 0.396241 -0.731441
H10   H     H_    0.277121 0.337292 0.368192 0.386678
O10   O     O_3   0.797326 0.725203 0.827639 -0.747899
H11   H     H_    0.793919 0.756634 0.758373 0.365156
Cl2   Cl    Cl    0.362590 0.252607 0.094619 -0.501946
Cl3   Cl    Cl    0.090345 0.260316 0.021928 -0.474474
Cl4   Cl    Cl    0.535600 0.753557 0.755746 -0.618144
O11   O     O_3   0.759989 0.871761 0.392991 -0.714261
H12   H     H_    0.840099 0.932087 0.362260 0.357760

loop_
_geom_bond_atom_site_label_1
_geom_bond_atom_site_label_2
_ccdc_geom_bond_type
C1    O2    A    
C2    C4    A    
C18   N2    A    
C26   H9    S    
C6    C7    A    
C19   N1    A    
C11   O11   S    
C20   N1    A    
C1    C17   S    
C21   N2    A    
O6    Zn2   S    
C4    C8    A    
C10   C26   A    
C14   C15   A    
C2    C3    A    
C9    C25   A    
O8    Zn2   S    
C3    C10   A    
O3    Zn1   S    
O10   H11   S    
C16   H3    S    
C8    C25   A    
C11   C13   A    
C14   C22   S    
C26   C27   A    
C5    C24   A    
C10   C12   S    
C20   H5    S    
O2    Zn2   S    
N2    Zn2   S    
C28   Cl2   S    
C12   O4    A    
C3    C7    A    
C23   C25   S    
C5    C6    A    
O7    Zn1   S    
C24   H7    S    
C23   O8    A    
C15   C16   A    
C6    O10   S    
O4    Zn2   S    
O9    H10   S    
C19   O9    S    
C4    C5    A    
C22   O6    A    
C18   H4    S    
C20   C21   A    
C15   H2    S    
O1    Zn1   S    
C18   C19   A    
C8    H8    S    
C13   H1    S    
C27   C28   A    
C23   O7    A    
C2    C28   A    
C27   Cl3   S    
C11   C17   A    
C12   O3    A    
C21   H6    S    
C1    O1    A    
O11   H12   S    
C13   C14   A    
N1    Zn1   S    
C7    Cl4   S    
C9    C24   A    
C22   O5    A    
C9    Cl1   S    
O5    Zn1   S    
C16   C17   A    
