data_mof_unit_15832.cif
_audit_creation_date              2012-12-10T20:25:41-0500
_audit_creation_method            fapswitch 2.2
_symmetry_space_group_name_H-M    P1
_symmetry_Int_Tables_number       1
_space_group_crystal_system       triclinic
_cell_length_a                    8.585036
_cell_length_b                    10.720866
_cell_length_c                    9.873106
_cell_angle_alpha                 89.602346
_cell_angle_beta                  98.636534
_cell_angle_gamma                 90.259449
_cell_volume                      898.379755585

loop_
_atom_site_label
_atom_site_type_symbol
_atom_type_description
_atom_site_fract_x
_atom_site_fract_y
_atom_site_fract_z
_atom_type_partial_charge
C1    C     C_R   0.499396 0.260335 0.500141 0.901805
C2    C     C_R   0.454328 0.937669 0.371496 0.514980
C3    C     C_R   0.504012 0.872217 0.495140 -0.220376
C4    C     C_R   0.573361 0.935497 0.611838 0.064564
C5    C     C_3   0.542051 0.926625 0.756627 -0.469775
C6    C     C_3   0.542662 0.067947 0.757890 -0.470957
C7    C     C_R   0.433878 0.403212 0.063001 0.116157
C8    C     C_R   0.579496 0.588666 0.081732 -0.113702
C9    C     C_R   0.578903 0.589017 0.937701 -0.136329
C10   C     C_R   0.436323 0.402145 0.921036 0.131462
C11   C     C_3   0.270867 0.356510 0.891757 -0.561541
C12   C     C_R   0.201189 0.500792 0.464120 0.972020
C13   C     C_3   0.266392 0.359352 0.045370 0.351816
C14   C     C_R   0.497547 0.739933 0.498763 0.915996
C15   C     C_R   0.798717 0.501556 0.535787 0.959345
C16   C     C_2   0.035968 0.501352 0.444843 -0.369686
C17   C     C_2   0.963728 0.505768 0.554737 -0.392743
C18   C     C_R   0.574670 0.062913 0.613405 0.130053
C19   C     C_R   0.506118 0.128742 0.498399 -0.163308
C20   C     C_R   0.453438 0.067037 0.375609 -0.337915
H1    H     H_    0.974008 0.496605 0.340674 0.185426
H2    H     H_    0.640398 0.662026 0.891045 0.141250
H3    H     H_    0.191748 0.425311 0.832535 0.233358
H4    H     H_    0.262494 0.260671 0.849466 0.149398
H5    H     H_    0.254927 0.266318 0.094205 0.049765
H6    H     H_    0.025081 0.512814 0.658735 0.176389
H7    H     H_    0.401483 0.118864 0.285690 0.168493
H8    H     H_    0.424910 0.885265 0.765468 0.212138
H9    H     H_    0.642866 0.885532 0.826112 0.192212
H10   H     H_    0.425537 0.108145 0.766325 0.202204
H11   H     H_    0.643113 0.108231 0.828441 0.195105
H12   H     H_    0.641689 0.661311 0.143581 0.143144
N1    N     N_R   0.498950 0.499140 0.142680 -0.079439
N2    N     N_R   0.498950 0.499180 0.857030 -0.086208
O1    O     O_R   0.500020 0.316790 0.614690 -0.618663
O2    O     O_R   0.500000 0.316760 0.385350 -0.641556
O3    O     O_R   0.271760 0.500010 0.587850 -0.624488
O4    O     O_R   0.271740 0.499970 0.358500 -0.561442
O5    O     O_R   0.500000 0.683240 0.614650 -0.632425
O6    O     O_R   0.499980 0.683210 0.385310 -0.571744
O7    O     O_R   0.728260 0.500030 0.641500 -0.627807
O8    O     O_R   0.728240 0.499990 0.412150 -0.629265
Zn1   Zn    Zn3+2 0.500010 0.500020 0.653130 0.939985
Zn2   Zn    Zn3+2 0.499990 0.499980 0.346870 0.990310
O9    O     O_3   0.164688 0.452891 0.080954 -0.543377
C21   C     C_3   0.010340 0.404367 0.069793 -0.300190
H13   H     H_    0.002699 0.331276 0.149101 0.150719
H14   H     H_    0.969017 0.366573 0.965759 0.158587
H15   H     H_    0.929350 0.481004 0.087109 0.185940
O10   O     O_3   0.383159 0.875373 0.255337 -0.577377
C22   C     C_3   0.457920 0.906918 0.141613 -0.287412
H16   H     H_    0.422354 0.837778 0.059605 0.196511
H17   H     H_    0.588795 0.903672 0.166928 0.142092
H18   H     H_    0.418934 0.999726 0.099079 0.146502

loop_
_geom_bond_atom_site_label_1
_geom_bond_atom_site_label_2
_ccdc_geom_bond_type
O3    Zn1   S    
C7    C10   A    
O4    Zn2   S    
C16   H1    S    
C20   H7    S    
C5    H8    S    
O1    Zn1   S    
C15   O8    A    
C19   C20   A    
O6    Zn2   S    
C22   H18   S    
C4    C18   A    
C7    C13   S    
C6    H11   S    
C3    C4    A    
C10   N2    A    
O9    C21   S    
C13   O9    S    
O7    Zn1   S    
C21   H15   S    
C13   H5    S    
C9    N2    A    
C3    C14   S    
O8    Zn2   S    
C17   H6    S    
C11   H3    S    
C6    H10   S    
C2    C3    A    
C5    H9    S    
C8    N1    A    
C12   O4    A    
C5    C6    S    
C6    C18   S    
C21   H14   S    
C9    H2    S    
O2    Zn2   S    
C1    C19   S    
C10   C11   S    
C7    N1    A    
C14   O6    A    
C22   H16   S    
C8    H12   S    
C16   C17   D    
C11   H4    S    
C11   C13   S    
C15   O7    A    
C18   C19   A    
C12   O3    A    
C15   C17   S    
C1    O1    A    
C21   H13   S    
C8    C9    A    
O5    Zn1   S    
C2    O10   S    
O10   C22   S    
C14   O5    A    
N1    Zn2   S    
C2    C20   A    
N2    Zn1   S    
C12   C16   S    
C1    O2    A    
C4    C5    S    
C22   H17   S    
