data_mof_unit_61591.cif
_audit_creation_date              2012-12-10T18:51:58-0500
_audit_creation_method            fapswitch 2.2
_symmetry_space_group_name_H-M    P1
_symmetry_Int_Tables_number       1
_space_group_crystal_system       triclinic
_cell_length_a                    19.567023
_cell_length_b                    18.285244
_cell_length_c                    23.552693
_cell_angle_alpha                 90.155182
_cell_angle_beta                  93.795294
_cell_angle_gamma                 90.1021
_cell_volume                      8408.33800226

loop_
_atom_site_label
_atom_site_type_symbol
_atom_type_description
_atom_site_fract_x
_atom_site_fract_y
_atom_site_fract_z
_atom_type_partial_charge
C1    C     C_R   0.367560 0.499929 0.501999 0.845240
C2    C     C_R   0.632535 0.500059 0.498563 0.841307
C3    C     C_R   0.537339 0.442945 0.240891 -0.121071
C4    C     C_R   0.459068 0.447309 0.758466 -0.118533
C5    C     C_R   0.538826 0.443102 0.300258 0.217565
C6    C     C_R   0.457289 0.447914 0.699099 0.216889
C7    C     C_R   0.504535 0.498936 0.328775 -0.093697
C8    C     C_R   0.497499 0.499079 0.671160 -0.091260
C9    C     C_R   0.471929 0.555018 0.296810 -0.259677
C10   C     C_R   0.537991 0.549251 0.703587 -0.271656
C11   C     C_R   0.472421 0.555532 0.237738 -0.086811
C12   C     C_R   0.537995 0.549579 0.762697 -0.082287
C13   C     C_R   0.504365 0.499030 0.209284 0.287266
C14   C     C_R   0.498955 0.498280 0.790612 0.286412
C15   C     C_R   0.745978 0.433454 0.494313 0.259989
C16   C     C_R   0.255208 0.566577 0.511573 0.245994
C17   C     C_R   0.253525 0.433324 0.503118 0.260521
C18   C     C_R   0.745974 0.567231 0.495167 0.242625
C19   C     C_R   0.817238 0.434683 0.495271 -0.177595
C20   C     C_R   0.183904 0.566255 0.510072 -0.178114
C21   C     C_R   0.182301 0.434928 0.502039 -0.176180
C22   C     C_R   0.817231 0.566390 0.496471 -0.175114
C23   C     C_R   0.853103 0.500642 0.497096 -0.011110
C24   C     C_R   0.147102 0.500959 0.504500 -0.008656
C25   C     C_R   0.708482 0.500238 0.495987 -0.176106
C26   C     C_R   0.291772 0.499878 0.505577 -0.170766
C27   C     C_R   0.501804 0.499736 0.391110 0.826189
C28   C     C_R   0.499001 0.499880 0.608880 0.830927
C29   C     C_R   0.965968 0.546331 0.537505 -0.163427
C30   C     C_R   0.033944 0.456260 0.463519 -0.164046
C31   C     C_R   0.037219 0.546397 0.539419 -0.152337
C32   C     C_R   0.962719 0.455974 0.461790 -0.152046
C33   C     C_R   0.071749 0.501345 0.502431 0.128105
C34   C     C_R   0.928296 0.500987 0.498784 0.125631
C35   C     C_R   0.460762 0.722854 0.459269 0.392982
C36   C     C_R   0.537838 0.277324 0.541674 0.390955
C37   C     C_R   0.540241 0.723192 0.540037 0.392475
C38   C     C_R   0.463344 0.277077 0.457542 0.396502
C39   C     C_R   0.463582 0.799874 0.457401 -0.251993
C40   C     C_R   0.539083 0.200126 0.540826 -0.229166
C41   C     C_R   0.542344 0.800418 0.538709 -0.233533
C42   C     C_R   0.464975 0.199946 0.456473 -0.231105
C43   C     C_R   0.503977 0.839820 0.497338 0.034408
C44   C     C_R   0.502661 0.160474 0.498211 0.034394
C45   C     C_R   0.564074 0.962205 0.512255 -0.158896
C46   C     C_R   0.443353 0.038268 0.482387 -0.156287
C47   C     C_R   0.443650 0.961499 0.482234 -0.158155
C48   C     C_R   0.563703 0.039059 0.512596 -0.155037
C49   C     C_R   0.503327 0.078311 0.497632 0.127522
C50   C     C_R   0.504022 0.922107 0.497096 0.128426
C51   C     C_R   0.560954 0.491268 0.883254 0.541489
C52   C     C_R   0.442074 0.500720 0.116619 0.541643
C53   C     C_R   0.439217 0.504729 0.877673 0.544925
C54   C     C_R   0.564419 0.496633 0.122242 0.544894
C55   C     C_R   0.438659 0.503490 0.937199 -0.018859
C56   C     C_R   0.564788 0.494903 0.062703 -0.018995
C57   C     C_R   0.501263 0.498127 0.969960 -0.016209
C58   C     C_R   0.502059 0.498310 0.029933 -0.016230
C59   C     C_R   0.563076 0.492626 0.942907 -0.016494
C60   C     C_R   0.440124 0.501946 0.056978 -0.016535
C61   C     C_R   0.377165 0.507809 0.964622 -0.151739
C62   C     C_R   0.626254 0.490142 0.035277 -0.151820
C63   C     C_R   0.377852 0.506471 0.023876 -0.154846
C64   C     C_R   0.625369 0.488435 0.976011 -0.154753
Cu1   Cu    Cu3+1 0.500000 0.573360 0.500000 0.995508
Cu2   Cu    Cu3+1 0.500000 0.426640 0.500000 1.021966
H1    H     H_    0.328291 0.511800 0.940422 0.194026
H2    H     H_    0.675200 0.487271 0.059482 0.193983
H3    H     H_    0.433452 0.828682 0.424301 0.147188
H4    H     H_    0.567482 0.170710 0.574567 0.144372
H5    H     H_    0.572245 0.830029 0.571659 0.143949
H6    H     H_    0.437315 0.170562 0.422119 0.145515
H7    H     H_    0.611814 0.934179 0.523156 0.147724
H8    H     H_    0.395599 0.066337 0.471587 0.148249
H9    H     H_    0.395988 0.933009 0.471480 0.145641
H10   H     H_    0.611121 0.067821 0.523796 0.149228
H11   H     H_    0.329488 0.509484 0.043616 0.192434
H12   H     H_    0.673662 0.484328 0.956266 0.192495
H13   H     H_    0.562635 0.399415 0.219176 0.183423
H14   H     H_    0.428826 0.407441 0.779758 0.182982
H15   H     H_    0.445090 0.598060 0.317410 0.162455
H16   H     H_    0.570987 0.587189 0.683395 0.157734
H17   H     H_    0.447419 0.599720 0.213992 0.162928
H18   H     H_    0.568935 0.589428 0.786887 0.163336
H19   H     H_    0.845008 0.383469 0.495067 0.175396
H20   H     H_    0.156976 0.617692 0.513105 0.173832
H21   H     H_    0.154102 0.383825 0.500214 0.176326
H22   H     H_    0.844962 0.617718 0.495918 0.177338
H23   H     H_    0.940247 0.580820 0.566846 0.145947
H24   H     H_    0.059497 0.421860 0.434021 0.145293
H25   H     H_    0.065322 0.580776 0.570387 0.149441
H26   H     H_    0.934466 0.421336 0.431080 0.152279
N1    N     N_R   0.499715 0.498019 0.851791 -0.460017
N2    N     N_R   0.503623 0.498789 0.148104 -0.459722
N3    N     N_R   0.500000 0.683620 0.500000 -0.159685
N4    N     N_R   0.500000 0.316380 0.500000 -0.153901
O1    O     O_R   0.400190 0.561980 0.499990 -0.557161
O2    O     O_R   0.599810 0.438020 0.500010 -0.546332
O3    O     O_R   0.599810 0.561980 0.500010 -0.556504
O4    O     O_R   0.400190 0.438020 0.499990 -0.546509
O5    O     O_R   0.499980 0.561970 0.417880 -0.588227
O6    O     O_R   0.500020 0.438030 0.582120 -0.566372
O7    O     O_R   0.500020 0.561970 0.582120 -0.584537
O8    O     O_R   0.499980 0.438030 0.417880 -0.563177
O9    O     O_2   0.619601 0.482528 0.856926 -0.536727
O10   O     O_2   0.382852 0.500692 0.142911 -0.537100
O11   O     O_2   0.379807 0.513410 0.845946 -0.522238
O12   O     O_2   0.624408 0.496965 0.154006 -0.522176
C65   C     C_3   0.411684 0.689049 0.414745 -0.754943
H27   H     H_    0.402363 0.630539 0.419094 0.264802
H28   H     H_    0.360785 0.715531 0.416285 0.226663
H29   H     H_    0.430482 0.699715 0.372146 0.190147
C66   C     C_3   0.577182 0.312995 0.591522 -0.707854
H30   H     H_    0.604240 0.362858 0.579727 0.258409
H31   H     H_    0.542163 0.324586 0.625557 0.239601
H32   H     H_    0.617689 0.276104 0.610241 0.195716
C67   C     C_3   0.578306 0.688453 0.590413 -0.746622
H33   H     H_    0.603193 0.636730 0.580070 0.265000
H34   H     H_    0.620184 0.724469 0.608383 0.202008
H35   H     H_    0.542047 0.680701 0.624070 0.216634
C68   C     C_3   0.421802 0.312265 0.408885 -0.705416
H36   H     H_    0.398450 0.364305 0.420262 0.261498
H37   H     H_    0.454121 0.320037 0.372458 0.237788
H38   H     H_    0.378144 0.276578 0.394030 0.200815
Br1   Br    Br    0.593037 0.368886 0.339307 -0.438707
Br2   Br    Br    0.396030 0.380465 0.658866 -0.434959
Br3   Br    Br    0.706592 0.336875 0.488426 -0.463211
Br4   Br    Br    0.296350 0.661195 0.525867 -0.501840
Br5   Br    Br    0.291732 0.336351 0.504042 -0.473168
Br6   Br    Br    0.706627 0.663626 0.489415 -0.507095

loop_
_geom_bond_atom_site_label_1
_geom_bond_atom_site_label_2
_ccdc_geom_bond_type
C44   C49   S    
C21   H21   S    
Cu2   O6    S    
C19   C23   A    
Cu1   O5    S    
C30   H24   S    
C3    H13   S    
C29   H23   S    
C15   C19   A    
C46   C49   A    
C37   N3    A    
C59   C64   A    
C40   H4    S    
C60   C63   A    
C17   C26   A    
C4    H14   S    
C67   H34   S    
C57   C59   A    
C58   C60   A    
C27   O8    A    
C7    C27   S    
C12   H18   S    
C45   H7    S    
Cu2   O4    S    
C61   C63   A    
C61   H1    S    
C68   H38   S    
C62   C64   A    
C52   C60   A    
C20   C24   A    
C56   C58   A    
C20   H20   S    
C31   C33   A    
C52   N2    A    
C22   H22   S    
C14   N1    S    
C3    C13   A    
C51   O9    S    
C41   H5    S    
C66   H32   S    
C52   O10   S    
C15   Br3   S    
C37   C41   A    
C41   C43   A    
C18   C25   A    
C42   C44   A    
C36   C66   S    
C1    O4    A    
C47   C50   A    
C53   C55   A    
C16   C26   A    
C54   C56   A    
C54   N2    A    
C53   N1    A    
Cu2   O8    S    
C36   C40   A    
C6    Br2   S    
C4    C6    A    
C67   H35   S    
C1    O1    A    
C5    C7    A    
C6    C8    A    
C3    C5    A    
C17   Br5   S    
C29   C34   A    
C27   O5    A    
C17   C21   A    
C32   C34   A    
C35   C39   A    
C16   Br4   S    
C53   O11   S    
Cu1   N3    S    
C16   C20   A    
C23   C34   S    
C42   H6    S    
C39   H3    S    
C9    C11   A    
Cu1   O3    S    
C68   H36   S    
C10   C12   A    
C51   N1    A    
C48   C49   A    
C12   C14   A    
C2    O3    A    
C31   H25   S    
C55   C57   A    
C1    C26   S    
C8    C28   S    
C56   C62   A    
C65   H29   S    
C51   C59   A    
Cu1   O7    S    
C5    Br1   S    
C46   H8    S    
Cu2   N4    S    
C66   H30   S    
C63   H11   S    
C45   C48   A    
C7    C9    A    
C46   C47   A    
C35   N3    A    
C30   C33   A    
C18   C22   A    
C64   H12   S    
C19   H19   S    
C35   C65   S    
C39   C43   A    
C43   C50   S    
C38   C42   A    
C54   O12   S    
C24   C33   S    
C62   H2    S    
C13   N2    S    
C11   H17   S    
Cu2   O2    S    
C65   H28   S    
Cu1   O1    S    
C29   C31   A    
C65   H27   S    
C30   C32   A    
C11   C13   A    
C28   O7    A    
C57   C58   A    
C32   H26   S    
C45   C50   A    
C55   C61   A    
C10   H16   S    
C2    C25   S    
C4    C14   A    
C68   H37   S    
C38   C68   S    
C18   Br6   S    
C47   H9    S    
C48   H10   S    
C28   O6    A    
C40   C44   A    
C37   C67   S    
C2    O2    A    
C15   C25   A    
C8    C10   A    
Cu1   Cu2   S    
C21   C24   A    
C38   N4    A    
C22   C23   A    
C67   H33   S    
C9    H15   S    
C36   N4    A    
C66   H31   S    
