data_mof_unit_46295.cif
_audit_creation_date              2012-12-11T18:44:59-0500
_audit_creation_method            fapswitch 2.2
_symmetry_space_group_name_H-M    P1
_symmetry_Int_Tables_number       1
_space_group_crystal_system       triclinic
_cell_length_a                    8.277508
_cell_length_b                    14.321209
_cell_length_c                    18.76133
_cell_angle_alpha                 96.472816
_cell_angle_beta                  91.935318
_cell_angle_gamma                 91.232523
_cell_volume                      2207.88600209

loop_
_atom_site_label
_atom_site_type_symbol
_atom_type_description
_atom_site_fract_x
_atom_site_fract_y
_atom_site_fract_z
_atom_type_partial_charge
Ba1   Ba    Ba6+2 0.843240 0.541620 0.463500 1.708754
Ba2   Ba    Ba6+2 0.346570 0.458460 0.536510 1.777301
C1    C     C_3   0.610802 0.882100 0.283548 -0.306065
C2    C     C_3   0.593439 0.782502 0.303798 0.433973
C3    C     C_3   0.502718 0.311969 0.321392 0.294119
C4    C     C_3   0.480917 0.282238 0.241160 -0.377841
C5    C     C_3   0.057974 0.220477 0.737523 0.301299
C6    C     C_3   0.987593 0.133798 0.767472 -0.363332
C7    C     C_3   0.598469 0.231754 0.759979 0.719808
C8    C     C_3   0.549350 0.166219 0.814495 -0.266174
C9    C     C_R   0.000669 0.462662 0.051258 0.010888
C10   C     C_R   0.909923 0.417456 0.100214 0.038208
C11   C     C_R   0.756261 0.378903 0.078744 -0.078117
C12   C     C_3   0.140131 0.800937 0.263479 0.222462
C13   C     C_R   0.694025 0.383957 0.009172 -0.092596
C14   C     C_R   0.785433 0.426262 0.959338 0.046265
C15   C     C_R   0.938845 0.466411 0.980320 0.022158
C16   C     C_R   0.727698 0.425804 0.888338 -0.103999
C17   C     C_R   0.823923 0.461002 0.836249 -0.083001
C18   C     C_R   0.973483 0.507365 0.857928 0.029893
C19   C     C_R   0.030809 0.509204 0.930263 0.005093
C20   C     C_R   0.779334 0.446495 0.762561 -0.068341
C21   C     C_R   0.886210 0.474612 0.712022 0.091822
C22   C     C_R   0.020367 0.534319 0.732470 0.061185
C23   C     C_3   0.091498 0.806856 0.184136 -0.138029
C24   C     C_R   0.067552 0.549563 0.807095 -0.045403
C25   C     C_R   0.154117 0.502256 0.072689 -0.005688
C26   C     C_R   0.213871 0.500978 0.144487 0.002073
C27   C     C_R   0.119313 0.458481 0.194948 -0.034669
C28   C     C_R   0.972456 0.412168 0.170096 -0.034651
C29   C     C_R   0.212598 0.598012 0.832006 -0.017434
C30   C     C_R   0.274700 0.593944 0.902384 0.045760
C31   C     C_R   0.183691 0.549432 0.951730 0.002516
C32   C     C_R   0.246410 0.544663 0.022513 0.011008
C33   C     C_R   0.429417 0.631191 0.923624 -0.070368
C34   C     C_3   0.239856 0.755489 0.633851 0.308666
C35   C     C_R   0.493308 0.624062 0.992777 -0.081816
C36   C     C_R   0.402210 0.581669 0.042774 0.048251
C37   C     C_R   0.368141 0.542072 0.165339 -0.025992
C38   C     C_R   0.463404 0.577950 0.113054 -0.039990
C39   C     C_R   0.421106 0.547783 0.238140 -0.015740
C40   C     C_R   0.321406 0.512121 0.288564 -0.290431
C41   C     C_R   0.173615 0.465058 0.268488 0.052799
C42   C     C_R   0.693948 0.935752 0.535455 -0.022875
C43   C     C_R   0.505592 0.801351 0.498610 -0.002393
C44   C     C_R   0.361621 0.767420 0.462700 -0.284035
C45   C     C_3   0.327672 0.833102 0.683519 -0.344647
C46   C     C_R   0.259489 0.827261 0.429590 -0.003928
C47   C     C_R   0.305660 0.921476 0.428593 -0.095325
C48   C     C_R   0.452267 0.956776 0.462575 0.031669
C49   C     C_R   0.551634 0.897477 0.499352 -0.055498
C50   C     C_R   0.642885 0.088875 0.496345 0.013680
C51   C     C_R   0.744525 0.029785 0.532994 0.014389
C52   C     C_R   0.689276 0.184144 0.495667 0.051666
C53   C     C_R   0.834451 0.218414 0.529168 -0.207310
C54   C     C_R   0.939172 0.161361 0.562816 -0.059554
C55   C     C_R   0.896128 0.065661 0.564788 -0.070103
C56   C     C_3   0.009571 0.247346 0.384519 0.299651
C57   C     C_R   0.498496 0.051152 0.461236 -0.009794
C58   C     C_3   0.012892 0.140740 0.368676 -0.358072
C59   C     C_3   0.689818 0.670862 0.674370 0.307691
C60   C     C_3   0.727003 0.702691 0.753535 -0.399726
H1    H     H_    0.663108 0.779807 0.355105 0.068542
H2    H     H_    0.388467 0.802652 0.728780 0.112214
H3    H     H_    0.419354 0.869437 0.653994 0.091865
H4    H     H_    0.240352 0.885347 0.705921 0.159587
H5    H     H_    0.885165 0.268450 0.396554 -0.012824
H6    H     H_    0.093423 0.269679 0.431050 0.051287
H7    H     H_    0.922665 0.116187 0.325083 0.141423
H8    H     H_    0.983908 0.106700 0.416985 0.041793
H9    H     H_    0.135114 0.119036 0.351749 0.135098
H10   H     H_    0.798951 0.639839 0.650008 0.046141
H11   H     H_    0.590730 0.617087 0.669847 0.073803
H12   H     H_    0.739762 0.905104 0.287479 0.142175
H13   H     H_    0.835853 0.749997 0.759656 0.151331
H14   H     H_    0.748996 0.641425 0.783209 0.034067
H15   H     H_    0.623362 0.740719 0.777738 0.118796
H16   H     H_    0.464076 0.767305 0.311897 -0.117981
H17   H     H_    0.543365 0.931187 0.320762 0.030984
H18   H     H_    0.385120 0.335554 0.342454 0.013353
H19   H     H_    0.593144 0.370936 0.329816 0.055774
H20   H     H_    0.385446 0.226175 0.230943 0.147983
H21   H     H_    0.445091 0.342968 0.212935 0.045227
H22   H     H_    0.596235 0.255219 0.219435 0.121264
H23   H     H_    0.562112 0.886104 0.228278 0.171242
H24   H     H_    0.957067 0.256619 0.712110 -0.053308
H25   H     H_    0.085665 0.086978 0.782200 0.157386
H26   H     H_    0.916811 0.154031 0.815744 0.108787
H27   H     H_    0.904269 0.094670 0.726821 0.155476
H28   H     H_    0.723136 0.258236 0.774901 -0.157645
H29   H     H_    0.630498 0.105351 0.812685 0.088180
H30   H     H_    0.423011 0.139676 0.802799 0.150991
H31   H     H_    0.209953 0.735780 0.266131 0.011195
H32   H     H_    0.557466 0.204650 0.869389 0.067863
H33   H     H_    0.683730 0.345070 0.115881 0.064689
H34   H     H_    0.575294 0.353263 0.993958 0.075761
H35   H     H_    0.610246 0.393727 0.873924 0.087907
H36   H     H_    0.902455 0.373335 0.204856 0.094520
H37   H     H_    0.283566 0.634828 0.796247 0.080434
H38   H     H_    0.502320 0.664545 0.886328 0.068137
H39   H     H_    0.613583 0.652779 0.007449 0.089906
H40   H     H_    0.583604 0.606810 0.126931 0.111613
H41   H     H_    0.216712 0.863741 0.283734 -0.002314
H42   H     H_    0.362626 0.517834 0.344251 0.063901
H43   H     H_    0.325144 0.694524 0.463303 0.067588
H44   H     H_    0.225992 0.967394 0.402653 0.068934
H45   H     H_    0.872519 0.289474 0.523993 0.100283
H46   H     H_    0.766246 0.892229 0.565770 0.145178
H47   H     H_    0.420412 0.094307 0.432118 0.079191
H48   H     H_    0.043906 0.736307 0.160719 0.040677
H49   H     H_    0.328762 0.705880 0.610180 0.006734
H50   H     H_    0.176702 0.786738 0.589475 0.029736
O1    O     O_2   0.887710 0.436190 0.327560 -0.474388
O2    O     O_3   0.643423 0.749027 0.640816 -0.634156
O3    O     O_3   0.001836 0.797578 0.304661 -0.584056
O4    O     O_2   0.301980 0.563840 0.672490 -0.480802
O5    O     O_3   0.054330 0.556590 0.583490 -0.416387
O6    O     O_3   0.555270 0.390630 0.635330 -0.359506
O7    O     O_3   0.124087 0.713719 0.673560 -0.640860
O8    O     O_3   0.637720 0.384870 0.467990 -0.443781
O9    O     O_3   0.145220 0.339960 0.601250 -0.409787
O10   O     O_2   0.275306 0.175714 0.560508 -0.394810
O11   O     O_3   0.180519 0.191820 0.689901 -0.555488
O12   O     O_3   0.135370 0.443490 0.416520 -0.488897
O13   O     O_3   0.551980 0.615210 0.532020 -0.485954
O14   O     O_2   0.394410 0.269100 0.474240 -0.465667
O15   O     O_3   0.555890 0.234903 0.354777 -0.656994
O16   O     O_2   0.459174 0.481747 0.755979 -0.464619
O17   O     O_3   0.487943 0.304597 0.761638 -0.554964
O18   O     O_3   0.634420 0.609440 0.364670 -0.492161
O19   O     O_2   0.762362 0.547552 0.242564 -0.482826
O20   O     O_3   0.056537 0.286538 0.323523 -0.638156
O21   O     O_3   0.652934 0.718030 0.249307 -0.550461
O22   O     O_2   0.795290 0.730930 0.525800 -0.445419
O23   O     O_3   0.044470 0.660110 0.398750 -0.458687
O24   O     O_2   0.925390 0.826516 0.438427 -0.492174
P1    P     P_3+3 0.061800 0.409390 0.339760 0.981636
P2    P     P_3+3 0.622760 0.718740 0.547830 0.980571
P3    P     P_3+3 0.060484 0.780629 0.392843 0.976992
P4    P     P_3+3 0.127890 0.590690 0.660240 1.031769
P5    P     P_3+3 0.131806 0.217308 0.602575 1.104247
P6    P     P_3+3 0.617381 0.603983 0.271989 0.979308
P7    P     P_3+3 0.572364 0.266967 0.447562 0.961414
P8    P     P_3+3 0.574303 0.403485 0.729298 1.092160
C61   C     C_2   0.238190 0.829894 0.142774 0.778725
O25   O     O_2   0.241707 0.898412 0.109233 -0.567843
O26   O     O_R   0.371036 0.771715 0.142847 -0.774959
H51   H     H_    0.461720 0.793092 0.112990 0.338113
C62   C     C_2   0.132138 0.289029 0.796793 0.874872
O27   O     O_2   0.187758 0.363474 0.781778 -0.582114
O28   O     O_R   0.140247 0.268491 0.868007 -0.779512
H52   H     H_    0.195047 0.320849 0.901775 0.305653
Cl1   Cl    Cl    0.591073 0.167144 0.673151 -0.704548
Cl2   Cl    Cl    0.855900 0.430020 0.622057 -0.688326
C63   C     C_2   0.015782 0.003315 0.594157 0.831998
O29   O     O_2   0.981629 0.957129 0.642746 -0.634408
O30   O     O_R   0.168984 0.998203 0.565730 -0.743173
H53   H     H_    0.243300 0.956294 0.590641 0.299372
C64   C     C_2   0.961083 0.877676 0.176827 0.936976
O31   O     O_2   0.834047 0.853355 0.144157 -0.606890
O32   O     O_R   0.986706 0.970971 0.206768 -0.751792
H54   H     H_    0.890853 0.011630 0.198062 0.305702

loop_
_geom_bond_atom_site_label_1
_geom_bond_atom_site_label_2
_ccdc_geom_bond_type
C35   H39   S    
C53   C54   A    
O30   H53   S    
C4    H20   S    
C1    H23   S    
C39   C40   A    
C60   H15   S    
O26   H51   S    
C1    H17   S    
O32   H54   S    
Ba2   O6    S    
C5    C6    S    
C37   C39   A    
O17   P8    S    
C43   C44   A    
C22   P4    S    
O23   P3    S    
C55   C63   S    
C2    H1    S    
O21   P6    S    
C35   C36   A    
C11   H33   S    
O7    P4    S    
C26   C27   A    
C33   C35   A    
C22   C24   A    
C16   C17   A    
O6    P8    S    
C62   O28   S    
C3    C4    S    
C5    H24   S    
C63   O30   S    
C8    H32   S    
C56   C58   S    
C13   C14   A    
C44   H43   S    
O14   P7    D    
C54   C55   A    
C59   O2    S    
C34   C45   S    
Ba1   Ba2   S    
C34   O7    S    
C1    H12   S    
C5    C62   S    
Ba2   O4    S    
C42   C51   A    
C17   C18   A    
C56   O20   S    
C14   C15   A    
C34   H50   S    
C21   C22   A    
C64   O32   S    
C4    H21   S    
C16   H35   S    
C9    C25   A    
C7    C8    S    
C12   H31   S    
C52   P7    S    
C7    Cl1   S    
C24   C29   A    
C27   C41   A    
C60   H14   S    
O8    P7    S    
Ba1   O1    S    
O24   P3    D    
C61   O26   S    
Ba2   O5    S    
C50   C52   A    
C61   O25   D    
C42   H46   S    
C25   C32   A    
C44   C46   A    
C4    H22   S    
C30   C33   A    
O9    P5    S    
O12   P1    S    
C17   C20   A    
Ba1   O18   S    
C13   H34   S    
C51   C55   A    
O15   P7    S    
C26   C37   A    
C59   H11   S    
O20   P1    S    
C38   H40   S    
C15   C19   A    
C53   H45   S    
C6    H26   S    
Ba1   O8    S    
C23   C64   S    
C27   C28   A    
C50   C57   A    
C3    H19   S    
C64   O31   D    
C58   H8    S    
O28   H52   S    
O11   P5    S    
C34   H49   S    
C31   C32   A    
C48   C49   A    
Ba1   O5    S    
C10   C11   A    
C3    H18   S    
O16   P8    D    
O19   P6    D    
C23   H48   S    
C54   P5    S    
Ba2   O14   S    
C59   H10   S    
C56   H6    S    
C46   C47   A    
O3    P3    S    
C8    H29   S    
Ba2   O12   S    
C11   C13   A    
O1    P1    D    
C60   H13   S    
O5    P4    S    
C40   C41   A    
C48   C57   A    
C1    C2    S    
Ba1   O22   S    
C63   O29   D    
Ba1   P1    S    
C50   C51   A    
C42   C49   A    
Ba2   O9    S    
C52   C53   A    
C9    C15   A    
Ba2   O8    S    
C3    O15   S    
C45   H4    S    
C46   P3    S    
C10   C28   A    
C32   C36   A    
C29   C30   A    
C5    O11   S    
C40   H42   S    
C7    H28   S    
O22   P2    D    
C9    C10   A    
C45   H2    S    
C47   H44   S    
C7    O17   S    
O13   P2    S    
C2    H16   S    
C28   H36   S    
C58   H9    S    
Ba1   O13   S    
C6    H25   S    
Ba2   P4    S    
C30   C31   A    
Ba1   O12   S    
C39   P6    S    
C29   H37   S    
C62   O27   D    
C36   C38   A    
C12   H41   S    
C18   C24   A    
C58   H7    S    
C33   H38   S    
C43   P2    S    
C57   H47   S    
C41   P1    S    
O2    P2    S    
C12   C23   S    
C59   C60   S    
O18   P6    S    
C8    H30   S    
C37   C38   A    
Ba2   O13   S    
C56   H5    S    
C19   C31   A    
C18   C19   A    
C14   C16   A    
C47   C48   A    
C21   Cl2   S    
C20   P8    S    
C25   C26   A    
C43   C49   A    
C20   C21   A    
C23   C61   S    
C6    H27   S    
O10   P5    D    
Ba1   O23   S    
C45   H3    S    
Ba1   P2    S    
C12   O3    S    
C2    O21   S    
O4    P4    D    
