data_mof_unit_18748.cif
_audit_creation_date              2012-12-11T15:09:18-0500
_audit_creation_method            fapswitch 2.2
_symmetry_space_group_name_H-M    P1
_symmetry_Int_Tables_number       1
_space_group_crystal_system       triclinic
_cell_length_a                    25.997869
_cell_length_b                    27.702356
_cell_length_c                    8.482569
_cell_angle_alpha                 89.971541
_cell_angle_beta                  96.56908
_cell_angle_gamma                 89.98707
_cell_volume                      6069.05522809

loop_
_atom_site_label
_atom_site_type_symbol
_atom_type_description
_atom_site_fract_x
_atom_site_fract_y
_atom_site_fract_z
_atom_type_partial_charge
Ba1   Ba    Ba6+2 0.999910 0.465960 0.844870 1.637009
Ba2   Ba    Ba6+2 0.999910 0.534040 0.344870 1.634807
Ba3   Ba    Ba6+2 0.499910 0.965960 0.844870 1.637005
Ba4   Ba    Ba6+2 0.499910 0.034040 0.344870 1.635011
C1    C     C_3   0.029386 0.233885 0.617563 -0.187049
C2    C     C_R   0.838833 0.637632 0.609633 -0.118988
C3    C     C_3   0.507031 0.212820 0.062566 0.379808
C4    C     C_R   0.913772 0.383520 0.296895 -0.274351
C5    C     C_R   0.911584 0.615120 0.799896 -0.261103
C6    C     C_R   0.413763 0.883519 0.296847 -0.274436
C7    C     C_R   0.411746 0.115269 0.799642 -0.259573
C8    C     C_3   0.269387 0.501004 0.254320 -0.340429
C9    C     C_3   0.266818 0.505762 0.721775 -0.337118
C10   C     C_3   0.769366 0.001001 0.253381 -0.340401
C11   C     C_3   0.766815 0.005814 0.721516 -0.337026
C12   C     C_3   0.294401 0.416349 0.451630 -0.255997
C13   C     C_R   0.342591 0.859478 0.103228 -0.109463
C14   C     C_3   0.293228 0.582446 0.944034 -0.257302
C15   C     C_3   0.794560 0.916533 0.451213 -0.256186
C16   C     C_3   0.793227 0.082555 0.943614 -0.257454
C17   C     C_3   0.270781 0.400657 0.071572 -0.236252
C18   C     C_3   0.256426 0.613340 0.578503 -0.201567
C19   C     C_3   0.770615 0.900492 0.071370 -0.236017
C20   C     C_3   0.756376 0.113379 0.578102 -0.201521
C21   C     C_3   0.720192 0.358036 0.093344 -0.423634
C22   C     C_3   0.715973 0.639635 0.582102 -0.418850
C23   C     C_3   0.220139 0.858047 0.093587 -0.423648
C24   C     C_R   0.338557 0.137553 0.610532 -0.124810
C25   C     C_3   0.215181 0.139699 0.580716 -0.425937
C26   C     C_3   0.140913 0.763221 0.693430 -0.217065
C27   C     C_3   0.200027 0.289159 0.189110 -0.232801
C28   C     C_3   0.640797 0.263226 0.693268 -0.217202
C29   C     C_3   0.699911 0.788914 0.189773 -0.232296
C30   C     C_3   0.989820 0.194728 0.563304 -0.398050
C31   C     C_3   0.993921 0.802824 0.015111 -0.410160
C32   C     C_3   0.489315 0.694634 0.563378 -0.398071
C33   C     C_3   0.494134 0.302862 0.015999 -0.410413
C34   C     C_3   0.911997 0.238124 0.054061 -0.284304
C35   C     C_R   0.828787 0.322171 0.205478 -0.011786
C36   C     C_3   0.918574 0.745826 0.615189 -0.335198
C37   C     C_3   0.411881 0.738266 0.053652 -0.284099
C38   C     C_3   0.418454 0.245939 0.616341 -0.334881
C39   C     C_3   0.131259 0.445953 0.215306 -0.246846
C40   C     C_3   0.126857 0.553072 0.720777 -0.246212
C41   C     C_3   0.631262 0.945944 0.215495 -0.246731
C42   C     C_3   0.626846 0.053095 0.720601 -0.246240
C43   C     C_R   0.823822 0.673721 0.714374 -0.014667
C44   C     C_R   0.328751 0.822195 0.205498 -0.011873
C45   C     C_R   0.323730 0.173642 0.715738 -0.015910
C46   C     C_R   0.858303 0.316937 0.354847 -0.145836
C47   C     C_R   0.853629 0.679068 0.863245 -0.139448
C48   C     C_R   0.358271 0.816961 0.354856 -0.145786
C49   C     C_3   0.031301 0.762973 0.078156 -0.186114
C50   C     C_R   0.353761 0.179042 0.864074 -0.138324
C51   C     C_R   0.900199 0.347709 0.400577 -0.008616
C52   C     C_R   0.896925 0.649680 0.905854 0.007847
C53   C     C_R   0.400179 0.847722 0.400548 -0.008636
C54   C     C_R   0.397118 0.149750 0.905993 0.007463
C55   C     C_R   0.790962 0.238361 0.183109 -0.111494
C56   C     C_R   0.786833 0.757786 0.696257 -0.115205
C57   C     C_R   0.290951 0.738380 0.183085 -0.111495
C58   C     C_R   0.286424 0.257543 0.699450 -0.115409
C59   C     C_R   0.250823 0.705392 0.140281 -0.094284
C60   C     C_3   0.529020 0.733699 0.617396 -0.186762
C61   C     C_R   0.247405 0.291306 0.653246 -0.102331
C62   C     C_R   0.750827 0.205379 0.140285 -0.094231
C63   C     C_R   0.747659 0.791505 0.651278 -0.102863
C64   C     C_R   0.202044 0.721254 0.072827 0.053051
C65   C     C_R   0.199567 0.276638 0.574794 0.061925
C66   C     C_R   0.702062 0.221247 0.072710 0.052993
C67   C     C_R   0.699495 0.776735 0.575428 0.061774
C68   C     C_R   0.193426 0.771304 0.060456 -0.061889
C69   C     C_R   0.191007 0.226787 0.551484 -0.043855
C70   C     C_R   0.693466 0.271298 0.060243 -0.061960
C71   C     C_3   0.531482 0.262989 0.079069 -0.186066
C72   C     C_R   0.690696 0.726868 0.554019 -0.040473
C73   C     C_R   0.733413 0.305060 0.102674 0.064960
C74   C     C_R   0.729597 0.692355 0.600370 0.063933
C75   C     C_R   0.233370 0.805072 0.102838 0.064955
C76   C     C_R   0.229558 0.192213 0.600360 0.064477
C77   C     C_3   0.002428 0.267447 0.089160 0.547087
C78   C     C_3   0.010300 0.737143 0.571557 0.528861
C79   C     C_3   0.502341 0.767502 0.089203 0.547031
C80   C     C_3   0.510113 0.237177 0.571956 0.529107
C81   C     C_R   0.783891 0.288517 0.159894 0.062367
C82   C     C_R   0.884224 0.391045 0.150786 0.083284
C83   C     C_R   0.779395 0.707894 0.668005 0.059053
C84   C     C_R   0.283860 0.788536 0.159939 0.062345
C85   C     C_R   0.279087 0.207658 0.670623 0.061670
C86   C     C_R   0.134159 0.690662 0.856496 0.135409
C87   C     C_R   0.132942 0.308421 0.355967 0.127294
C88   C     C_R   0.634139 0.190673 0.856425 0.135383
C89   C     C_R   0.632852 0.808370 0.356500 0.127502
C90   C     C_R   0.090145 0.661568 0.808698 -0.031334
C91   C     C_R   0.090373 0.339177 0.306399 -0.061376
C92   C     C_R   0.590115 0.161586 0.808655 -0.031375
C93   C     C_R   0.882086 0.607646 0.653864 0.083001
C94   C     C_R   0.590328 0.839163 0.306678 -0.061884
C95   C     C_R   0.108744 0.613553 0.051357 0.103722
C96   C     C_R   0.109270 0.386863 0.549157 0.103609
C97   C     C_R   0.608747 0.113550 0.051290 0.103598
C98   C     C_R   0.609229 0.886884 0.549314 0.104103
C99   C     C_R   0.148643 0.645951 0.105225 -0.159350
C100  C     C_R   0.148728 0.353956 0.603066 -0.170977
C101  C     C_R   0.648654 0.145944 0.105121 -0.159455
C102  C     C_R   0.648673 0.854000 0.603377 -0.170854
C103  C     C_R   0.160064 0.686218 0.012855 -0.052253
C104  C     C_R   0.384210 0.891047 0.150757 0.083270
C105  C     C_R   0.159127 0.312971 0.512027 -0.021549
C106  C     C_R   0.660070 0.186214 0.012752 -0.052227
C107  C     C_R   0.659024 0.812986 0.512566 -0.021742
C108  C     C_R   0.075514 0.625786 0.914053 -0.301762
C109  C     C_R   0.076400 0.375379 0.410817 -0.282605
C110  C     C_R   0.575507 0.125787 0.914004 -0.301677
C111  C     C_R   0.576360 0.875391 0.410982 -0.282488
C112  C     C_3   0.028956 0.222274 0.164981 -0.430569
C113  C     C_3   0.014206 0.789655 0.514772 -0.359903
C114  C     C_3   0.528754 0.722315 0.165285 -0.430532
C115  C     C_R   0.382036 0.107695 0.653925 0.083336
C116  C     C_3   0.514025 0.289697 0.515263 -0.359818
C117  C     C_3   0.173664 0.482636 0.256733 0.256748
C118  C     C_3   0.171471 0.518348 0.755098 0.260427
C119  C     C_3   0.673680 0.982632 0.256635 0.256920
C120  C     C_3   0.671477 0.018384 0.754931 0.260345
C121  C     C_3   0.229374 0.459472 0.248898 0.368433
C122  C     C_3   0.225185 0.544431 0.740902 0.356592
C123  C     C_3   0.729371 0.959466 0.248533 0.368366
C124  C     C_3   0.725178 0.044480 0.740612 0.356551
C125  C     C_3   0.849478 0.529639 0.965389 0.316420
C126  C     C_R   0.842622 0.359461 0.103230 -0.109367
C127  C     C_3   0.852255 0.469094 0.466492 0.317105
C128  C     C_3   0.349492 0.029701 0.965816 0.315616
C129  C     C_3   0.352252 0.969097 0.466444 0.317251
C130  C     C_3   0.799534 0.558695 0.951761 -0.396532
C131  C     C_3   0.803108 0.438879 0.448599 -0.398210
C132  C     C_3   0.299544 0.058758 0.952461 -0.395902
C133  C     C_3   0.303102 0.938887 0.448558 -0.398208
C134  C     C_3   0.007430 0.284678 0.586734 0.405043
C135  C     C_3   0.006863 0.712794 0.061892 0.379212
C136  C     C_3   0.507215 0.784542 0.586524 0.404631
H1    H     H_    0.036849 0.310884 0.639671 0.043816
H2    H     H_    0.881435 0.451112 0.552987 0.060502
H3    H     H_    0.754545 0.983434 0.617495 0.151096
H4    H     H_    0.218540 0.396018 0.382522 0.190557
H5    H     H_    0.315081 0.393838 0.371802 0.105179
H6    H     H_    0.293849 0.396361 0.564674 0.097834
H7    H     H_    0.316887 0.449744 0.480694 0.105408
H8    H     H_    0.215773 0.602615 0.897793 0.190285
H9    H     H_    0.312828 0.604406 0.859877 0.106462
H10   H     H_    0.314880 0.548319 0.969456 0.107770
H11   H     H_    0.295353 0.602268 0.057848 0.093568
H12   H     H_    0.718682 0.896084 0.382689 0.190523
H13   H     H_    0.379122 0.048460 0.048765 0.052666
H14   H     H_    0.815224 0.894006 0.371378 0.105257
H15   H     H_    0.794122 0.896625 0.564432 0.097736
H16   H     H_    0.816998 0.949975 0.479973 0.105454
H17   H     H_    0.715758 0.102680 0.897436 0.190319
H18   H     H_    0.812790 0.104559 0.859480 0.106502
H19   H     H_    0.814918 0.048444 0.968929 0.107728
H20   H     H_    0.795353 0.102347 0.057482 0.093668
H21   H     H_    0.216495 0.452666 0.000373 0.196036
H22   H     H_    0.264562 0.387016 0.947671 0.091552
H23   H     H_    0.271213 0.368725 0.149981 0.112405
H24   H     H_    0.381437 0.951107 0.552903 0.060517
H25   H     H_    0.308550 0.419636 0.087603 0.098045
H26   H     H_    0.205920 0.558687 0.495713 0.195181
H27   H     H_    0.245518 0.631571 0.462830 0.098946
H28   H     H_    0.295788 0.597984 0.577404 0.084698
H29   H     H_    0.255829 0.641253 0.671907 0.117286
H30   H     H_    0.716334 0.952503 0.000033 0.196001
H31   H     H_    0.764302 0.886743 0.947610 0.091660
H32   H     H_    0.771079 0.868634 0.150122 0.112450
H33   H     H_    0.808398 0.919455 0.086983 0.097963
H34   H     H_    0.705926 0.058686 0.495394 0.195102
H35   H     H_    0.769407 0.540478 0.869179 0.121131
H36   H     H_    0.745469 0.131580 0.462378 0.098858
H37   H     H_    0.795750 0.098042 0.577077 0.084708
H38   H     H_    0.755750 0.141312 0.671430 0.117343
H39   H     H_    0.736604 0.376683 0.203445 0.121392
H40   H     H_    0.735191 0.374661 0.988953 0.114842
H41   H     H_    0.677640 0.363868 0.080442 0.109688
H42   H     H_    0.732952 0.618911 0.687391 0.119946
H43   H     H_    0.673383 0.634178 0.571478 0.110134
H44   H     H_    0.730040 0.625010 0.473234 0.117745
H45   H     H_    0.236514 0.876670 0.203771 0.121397
H46   H     H_    0.773694 0.455790 0.360296 0.121069
H47   H     H_    0.235171 0.874700 0.989298 0.114864
H48   H     H_    0.177585 0.863872 0.080561 0.109661
H49   H     H_    0.241574 0.115860 0.657370 0.120900
H50   H     H_    0.175746 0.133683 0.615360 0.112148
H51   H     H_    0.215417 0.129038 0.454678 0.119790
H52   H     H_    0.198990 0.712098 0.750092 0.191724
H53   H     H_    0.133350 0.764689 0.562290 0.133063
H54   H     H_    0.171200 0.790425 0.731286 0.091193
H55   H     H_    0.105350 0.772796 0.747350 0.082910
H56   H     H_    0.125309 0.263196 0.157343 0.208812
H57   H     H_    0.269471 0.040699 0.869264 0.120890
H58   H     H_    0.213334 0.259628 0.115109 0.107093
H59   H     H_    0.230811 0.296007 0.288304 0.110106
H60   H     H_    0.194086 0.322109 0.115060 0.141996
H61   H     H_    0.698947 0.212174 0.750006 0.191750
H62   H     H_    0.633166 0.264652 0.562136 0.133031
H63   H     H_    0.671070 0.290464 0.730906 0.091221
H64   H     H_    0.605261 0.272788 0.747352 0.082889
H65   H     H_    0.625173 0.763037 0.158204 0.208803
H66   H     H_    0.713185 0.759320 0.115963 0.107096
H67   H     H_    0.730714 0.795802 0.288870 0.110129
H68   H     H_    0.273681 0.955810 0.360303 0.121020
H69   H     H_    0.693993 0.821820 0.115497 0.141664
H70   H     H_    0.959736 0.192290 0.645711 0.135166
H71   H     H_    0.970274 0.202776 0.443181 0.120458
H72   H     H_    0.009571 0.159234 0.561308 0.110493
H73   H     H_    0.959285 0.803312 0.080516 0.152019
H74   H     H_    0.013612 0.838332 0.031121 0.110534
H75   H     H_    0.981665 0.797513 0.886838 0.113737
H76   H     H_    0.459226 0.692341 0.645807 0.135223
H77   H     H_    0.469789 0.702666 0.443217 0.120344
H78   H     H_    0.508944 0.659076 0.561566 0.110487
H79   H     H_    0.805828 0.595181 0.906020 0.065235
H80   H     H_    0.459453 0.303324 0.081205 0.151960
H81   H     H_    0.513823 0.338365 0.032251 0.110629
H82   H     H_    0.481948 0.297597 0.887665 0.113725
H83   H     H_    0.965142 0.231543 0.890969 0.220692
H84   H     H_    0.876914 0.244293 0.968914 0.138380
H85   H     H_    0.908224 0.258687 0.163904 0.106096
H86   H     H_    0.914634 0.199034 0.082887 0.083313
H87   H     H_    0.946027 0.713644 0.421401 0.261600
H88   H     H_    0.880015 0.732034 0.568397 0.139890
H89   H     H_    0.918362 0.784853 0.586127 0.105763
H90   H     H_    0.811188 0.402124 0.408071 0.064802
H91   H     H_    0.925056 0.740705 0.745475 0.120937
H92   H     H_    0.465132 0.731581 0.890965 0.220651
H93   H     H_    0.376841 0.744513 0.968400 0.138465
H94   H     H_    0.408106 0.758805 0.163533 0.106036
H95   H     H_    0.414431 0.699165 0.082362 0.083238
H96   H     H_    0.445698 0.213787 0.422132 0.261336
H97   H     H_    0.379843 0.232122 0.570185 0.140158
H98   H     H_    0.418185 0.284952 0.587043 0.105689
H99   H     H_    0.425123 0.240891 0.746637 0.120831
H100  H     H_    0.096724 0.455959 0.273084 0.059308
H101  H     H_    0.305865 0.095352 0.907665 0.065735
H102  H     H_    0.120132 0.445794 0.087109 0.177665
H103  H     H_    0.145120 0.409714 0.248770 0.027754
H104  H     H_    0.094046 0.541872 0.784804 0.059933
H105  H     H_    0.140550 0.589211 0.754903 0.034127
H106  H     H_    0.113460 0.553489 0.593464 0.180734
H107  H     H_    0.596742 0.955996 0.273279 0.059298
H108  H     H_    0.620113 0.945708 0.087299 0.177678
H109  H     H_    0.645130 0.909725 0.249251 0.027538
H110  H     H_    0.594051 0.041894 0.784692 0.059970
H111  H     H_    0.640525 0.089247 0.754635 0.034132
H112  H     H_    0.036062 0.686991 0.118227 0.048343
H113  H     H_    0.311173 0.902137 0.407971 0.064843
H114  H     H_    0.613433 0.053498 0.593309 0.180748
H115  H     H_    0.785550 0.562089 0.070203 0.124846
H116  H     H_    0.787274 0.436153 0.564485 0.124779
H117  H     H_    0.285460 0.061886 0.070840 0.125340
H118  H     H_    0.287280 0.936147 0.564460 0.124794
H119  H     H_    0.000443 0.290511 0.456507 -0.108355
H120  H     H_    0.997718 0.704152 0.933785 -0.079015
H121  H     H_    0.500145 0.790335 0.456293 -0.108177
H122  H     H_    0.497896 0.204233 0.934418 -0.079415
H123  H     H_    0.063928 0.229610 0.553164 0.051289
H124  H     H_    0.536743 0.810693 0.639155 0.043388
H125  H     H_    0.065432 0.763718 0.010744 0.046802
H126  H     H_    0.563506 0.729303 0.552854 0.051217
H127  H     H_    0.565641 0.263744 0.011787 0.046814
H128  H     H_    0.042309 0.229186 0.746035 0.121190
H129  H     H_    0.045215 0.770046 0.204534 0.123803
H130  H     H_    0.541992 0.729008 0.745842 0.121105
H131  H     H_    0.545348 0.270027 0.205503 0.124014
H132  H     H_    0.000493 0.196528 0.204227 0.093397
H133  H     H_    0.001790 0.815047 0.604300 0.062341
H134  H     H_    0.500220 0.696642 0.204531 0.093381
H135  H     H_    0.536214 0.186985 0.118803 0.048334
H136  H     H_    0.501625 0.315080 0.604842 0.062340
H137  H     H_    0.172062 0.638721 0.216643 0.097571
H138  H     H_    0.171868 0.360840 0.715184 0.096623
H139  H     H_    0.672079 0.138710 0.216524 0.097506
H140  H     H_    0.671860 0.860921 0.715398 0.096614
H141  H     H_    0.258189 0.667331 0.158020 0.058193
H142  H     H_    0.255361 0.329166 0.674858 0.058678
H143  H     H_    0.758177 0.167319 0.158109 0.058170
H144  H     H_    0.755679 0.829394 0.671940 0.058933
H145  H     H_    0.828027 0.224313 0.233765 0.061755
H146  H     H_    0.862711 0.526260 0.846401 0.009952
H147  H     H_    0.823725 0.771117 0.751202 0.065119
H148  H     H_    0.328028 0.724337 0.233667 0.061754
H149  H     H_    0.323183 0.270864 0.755482 0.064900
H150  H     H_    0.820960 0.364482 0.987918 0.079888
H151  H     H_    0.817271 0.632683 0.494187 0.079349
H152  H     H_    0.320924 0.864501 0.987925 0.079904
H153  H     H_    0.316075 0.132150 0.496483 0.082958
H154  H     H_    0.155090 0.784193 0.017747 0.062311
H155  H     H_    0.153705 0.214550 0.495868 0.075801
H156  H     H_    0.655145 0.284199 0.017441 0.062382
H157  H     H_    0.866990 0.472338 0.349641 0.010164
H158  H     H_    0.653160 0.714725 0.500091 0.072745
H159  H     H_    0.847835 0.289844 0.437568 0.075928
H160  H     H_    0.842868 0.705680 0.947038 0.073525
H161  H     H_    0.347798 0.789875 0.437596 0.075967
H162  H     H_    0.343036 0.205546 0.948273 0.073282
H163  H     H_    0.043490 0.602121 0.875102 0.070191
H164  H     H_    0.044724 0.399439 0.371678 0.069802
H165  H     H_    0.543483 0.102123 0.875074 0.070141
H166  H     H_    0.544710 0.899468 0.371740 0.069788
H167  H     H_    0.944988 0.408117 0.335670 0.056143
H168  H     H_    0.362752 0.026450 0.846826 0.009230
H169  H     H_    0.944177 0.591755 0.835900 0.053933
H170  H     H_    0.444987 0.908109 0.335608 0.056087
H171  H     H_    0.444435 0.091981 0.835251 0.053698
H172  H     H_    0.989685 0.291005 0.183737 -0.036349
H173  H     H_    0.022787 0.736420 0.701230 -0.042012
H174  H     H_    0.489566 0.791106 0.183614 -0.036356
H175  H     H_    0.522690 0.236419 0.701571 -0.042208
H176  H     H_    0.050813 0.203326 0.078331 0.116727
H177  H     H_    0.989543 0.795290 0.400427 0.117978
H178  H     H_    0.550610 0.703288 0.078801 0.116962
H179  H     H_    0.366977 0.972352 0.349581 0.010007
H180  H     H_    0.489357 0.295349 0.400936 0.118020
H181  H     H_    0.055892 0.232448 0.270231 0.080542
H182  H     H_    0.054428 0.799112 0.496420 0.090263
H183  H     H_    0.555670 0.732485 0.270570 0.080503
H184  H     H_    0.554246 0.299152 0.496897 0.090092
H185  H     H_    0.171239 0.495366 0.378271 0.060718
H186  H     H_    0.170838 0.505365 0.876841 0.060377
H187  H     H_    0.671319 0.995373 0.378191 0.060576
H188  H     H_    0.670880 0.005430 0.876726 0.060426
H189  H     H_    0.271735 0.520411 0.369062 0.080369
H190  H     H_    0.879118 0.548473 0.048101 0.052076
H191  H     H_    0.258152 0.527366 0.159619 0.149006
H192  H     H_    0.308594 0.487862 0.236758 0.089763
H193  H     H_    0.272664 0.481965 0.827387 0.088728
H194  H     H_    0.304446 0.522147 0.701658 0.087789
H195  H     H_    0.254535 0.483370 0.617801 0.151103
H196  H     H_    0.771763 0.020503 0.367971 0.080401
H197  H     H_    0.758073 0.027274 0.158465 0.149155
H198  H     H_    0.808557 0.987842 0.235696 0.089739
H199  H     H_    0.772638 0.982009 0.827128 0.088747
H200  H     H_    0.804447 0.022199 0.701444 0.087777
N1    N     N_2   0.241278 0.426467 0.384727 -0.430930
N2    N     N_2   0.151983 0.275247 0.247413 -0.432440
N3    N     N_2   0.659171 0.215476 0.739135 -0.408721
N4    N     N_2   0.651863 0.775087 0.248229 -0.431909
N5    N     N_2   0.957133 0.253560 0.982740 -0.375224
N6    N     N_2   0.957371 0.719989 0.539629 -0.420565
N7    N     N_2   0.457086 0.753643 0.982574 -0.375113
N8    N     N_2   0.457146 0.220080 0.540345 -0.420500
N9    N     N_2   0.239209 0.573229 0.885307 -0.428617
N10   N     N_2   0.741391 0.926548 0.384533 -0.430988
N11   N     N_2   0.739210 0.073305 0.884953 -0.428748
N12   N     N_2   0.228790 0.432819 0.099158 -0.416627
N13   N     N_2   0.219239 0.575696 0.599924 -0.413517
N14   N     N_2   0.728679 0.932720 0.098932 -0.416615
N15   N     N_2   0.719211 0.075721 0.599580 -0.413524
N16   N     N_2   0.159219 0.715444 0.739219 -0.408629
O1    O     O_2   0.898940 0.431940 0.867860 -0.454887
O2    O     O_3   0.042683 0.708607 0.487031 -0.584068
O3    O     O_3   0.537242 0.790909 0.998747 -0.590057
O4    O     O_3   0.542407 0.208639 0.487102 -0.583997
O5    O     O_3   0.058810 0.523750 0.066650 -0.489254
O6    O     O_3   0.058810 0.476250 0.566650 -0.491147
O7    O     O_3   0.558810 0.023750 0.066650 -0.489158
O8    O     O_3   0.558810 0.976250 0.566650 -0.491179
O9    O     O_3   0.941140 0.476130 0.123050 -0.496093
O10   O     O_3   0.941140 0.523870 0.623050 -0.497245
O11   O     O_3   0.441140 0.976130 0.123050 -0.496214
O12   O     O_2   0.898940 0.568060 0.367860 -0.452993
O13   O     O_3   0.441140 0.023870 0.623050 -0.497231
O14   O     O_3   0.982430 0.389880 0.635700 -0.482098
O15   O     O_3   0.982430 0.610120 0.135700 -0.479203
O16   O     O_3   0.482430 0.889880 0.635700 -0.481996
O17   O     O_3   0.482430 0.110120 0.135700 -0.479290
O18   O     O_2   0.895096 0.353842 0.725170 -0.463111
O19   O     O_2   0.897415 0.648487 0.234846 -0.481518
O20   O     O_2   0.395026 0.853923 0.725021 -0.463139
O21   O     O_2   0.397470 0.148470 0.234849 -0.481044
O22   O     O_3   0.838604 0.484127 0.023362 -0.639178
O23   O     O_2   0.398940 0.931940 0.867860 -0.454607
O24   O     O_3   0.839542 0.514609 0.520703 -0.639010
O25   O     O_3   0.338596 0.984122 0.023252 -0.639065
O26   O     O_3   0.339546 0.014606 0.520715 -0.639197
O27   O     O_3   0.961399 0.289743 0.657060 -0.579531
O28   O     O_3   0.962128 0.710765 0.140012 -0.607611
O29   O     O_3   0.461273 0.789762 0.657204 -0.579391
O30   O     O_3   0.462287 0.210768 0.140635 -0.607353
O31   O     O_2   0.100770 0.431440 0.821660 -0.470117
O32   O     O_2   0.100770 0.568560 0.321660 -0.472147
O33   O     O_2   0.600770 0.931440 0.821660 -0.470140
O34   O     O_2   0.398940 0.068060 0.367860 -0.452808
O35   O     O_2   0.600770 0.068560 0.321660 -0.472296
O36   O     O_3   0.017130 0.389790 0.053700 -0.456937
O37   O     O_3   0.017130 0.610210 0.553700 -0.461913
O38   O     O_3   0.517130 0.889790 0.053700 -0.456949
O39   O     O_3   0.517130 0.110210 0.553700 -0.461811
O40   O     O_2   0.106991 0.356440 0.993664 -0.476412
O41   O     O_2   0.109209 0.640706 0.504867 -0.452990
O42   O     O_2   0.607024 0.856420 0.993944 -0.476403
O43   O     O_2   0.609099 0.140849 0.504587 -0.453007
O44   O     O_3   0.164925 0.478884 0.650251 -0.675322
O45   O     O_3   0.165879 0.522045 0.151119 -0.676307
O46   O     O_3   0.664931 0.978884 0.650210 -0.675350
O47   O     O_3   0.665856 0.022026 0.150987 -0.676363
O48   O     O_3   0.037224 0.290927 0.998525 -0.590157
P1    P     P_3+3 0.893960 0.447890 0.040050 0.988891
P2    P     P_3+3 0.063298 0.656448 0.593900 0.988251
P3    P     P_3+3 0.562614 0.843440 0.092997 0.952216
P4    P     P_3+3 0.563211 0.156508 0.593866 0.988257
P5    P     P_3+3 0.933739 0.653971 0.103788 0.948840
P6    P     P_3+3 0.934118 0.345800 0.603277 0.974951
P7    P     P_3+3 0.433850 0.154016 0.103970 0.949038
P8    P     P_3+3 0.434076 0.845835 0.603254 0.974989
P9    P     P_3+3 0.893960 0.552110 0.540050 0.989511
P10   P     P_3+3 0.393960 0.947890 0.040050 0.989020
P11   P     P_3+3 0.393960 0.052110 0.540050 0.989662
P12   P     P_3+3 0.105800 0.447360 0.649510 0.967155
P13   P     P_3+3 0.105800 0.552640 0.149510 0.964062
P14   P     P_3+3 0.605800 0.947360 0.649510 0.967028
P15   P     P_3+3 0.605800 0.052640 0.149510 0.964128
P16   P     P_3+3 0.062610 0.343446 0.092802 0.952214

loop_
_geom_bond_atom_site_label_1
_geom_bond_atom_site_label_2
_ccdc_geom_bond_type
C95   C99   A    
C101  C106  A    
C79   H174  S    
C129  C133  S    
C17   H23   S    
C31   C49   S    
C15   H15   S    
Ba2   O15   S    
C13   C44   A    
C98   P14   S    
O33   P14   D    
C50   H162  S    
C78   O2    S    
Ba4   P15   S    
C71   H127  S    
C24   H153  S    
C37   N7    S    
Ba4   O11   S    
C86   C103  A    
C68   C75   A    
C55   C62   A    
Ba4   O17   S    
C5    H169  S    
Ba1   O14   S    
C125  H190  S    
C130  H79   S    
O20   P8    D    
C7    H171  S    
C3    H122  S    
Ba4   O34   S    
C57   C59   A    
C9    H194  S    
C42   H110  S    
C42   H114  S    
Ba2   O37   S    
C38   H97   S    
Ba1   P12   S    
C68   H154  S    
C66   C70   A    
C131  H46   S    
O3    P3    S    
C34   H86   S    
C18   H28   S    
C1    C30   S    
O34   P11   D    
C33   C71   S    
C122  N9    S    
C16   H18   S    
C91   P16   S    
Ba4   O39   S    
C92   C110  A    
C27   H60   S    
C58   H149  S    
C2    C93   A    
C19   N14   S    
C113  H133  S    
C54   P7    S    
C125  O22   S    
O8    P14   S    
C20   N15   S    
C120  H188  S    
C26   H55   S    
C64   C68   A    
C135  H120  S    
C23   H47   S    
Ba4   O8    S    
C30   H72   S    
O28   P5    S    
O2    P2    S    
C124  N15   S    
C22   H42   S    
C20   H38   S    
C25   H49   S    
C111  H166  S    
C35   C81   S    
C20   H36   S    
C60   C136  S    
C49   C135  S    
C48   H161  S    
C134  H1    S    
C32   H77   S    
O23   P10   D    
Ba1   O6    S    
C77   N5    S    
C28   H63   S    
C33   H81   S    
C118  H186  S    
C112  H176  S    
C116  H184  S    
C25   C76   S    
C37   H93   S    
C49   H125  S    
Ba2   P13   S    
C87   N2    S    
C4    C82   A    
C94   P3    S    
H4    N1    S    
C31   H74   S    
C122  N13   S    
C39   H100  S    
C44   C48   A    
C19   H31   S    
C16   H20   S    
C82   P1    S    
C1    H123  S    
C11   H199  S    
C33   H80   S    
Ba3   O7    S    
C14   H10   S    
C27   H58   S    
Ba3   O33   S    
C74   C83   A    
C96   P12   S    
C6    C104  A    
H87   N6    S    
C96   C100  A    
C77   O48   S    
C38   H98   S    
C21   H40   S    
C62   C66   A    
C41   C119  S    
C55   H145  S    
C4    H167  S    
C22   C74   S    
C132  H101  S    
C72   C74   A    
C130  H115  S    
C8    H192  S    
C26   H53   S    
C95   P13   S    
C10   H198  S    
C88   C92   A    
C23   H45   S    
C30   H70   S    
C77   H172  S    
C41   H109  S    
C56   C63   A    
C52   P5    S    
C70   C73   A    
H34   N15   S    
C25   H51   S    
O30   P7    S    
C131  H116  S    
O44   P12   S    
C7    C54   A    
Ba2   O5    S    
C78   N6    S    
C32   C60   S    
C73   C81   A    
O15   P5    S    
C112  H181  S    
C41   H108  S    
C116  H136  S    
C102  C107  A    
C39   H102  S    
C6    H170  S    
C2    C43   A    
O22   P1    S    
C129  H179  S    
C30   H71   S    
C82   C126  A    
C113  H182  S    
C37   H95   S    
C36   N6    S    
C125  C130  S    
C12   H5    S    
C43   C83   S    
O42   P3    D    
C36   H88   S    
O9    P1    S    
C55   C81   A    
H92   N7    S    
C117  C121  S    
C24   C45   A    
C119  C123  S    
C118  O44   S    
C128  C132  S    
C5    C52   A    
C34   N5    S    
C11   H3    S    
C64   C103  S    
C29   N4    S    
Ba3   O13   S    
C104  P10   S    
Ba3   Ba4   S    
C114  H134  S    
C40   H104  S    
O36   P16   S    
C59   C64   A    
C29   H67   S    
C17   H22   S    
O35   P15   D    
O29   P8    S    
C99   C103  A    
C10   H196  S    
Ba1   O36   S    
C123  N10   S    
O4    P4    S    
C18   N13   S    
C60   H126  S    
C32   H76   S    
C88   C106  A    
C94   C111  A    
O45   P13   S    
C109  H164  S    
C77   C112  S    
O1    P1    D    
Ba3   O23   S    
C28   H62   S    
O31   P12   D    
C9    H193  S    
C42   H111  S    
O16   P8    S    
C87   C91   A    
H21   N12   S    
C97   P15   S    
C127  O24   S    
C136  H124  S    
C132  H117  S    
C36   H89   S    
C28   N3    S    
C31   H75   S    
O14   P6    S    
C133  H68   S    
C93   P9    S    
C123  N14   S    
C15   H16   S    
Ba1   O10   S    
C135  H112  S    
C42   C120  S    
C27   H59   S    
Ba3   O38   S    
C15   N10   S    
C12   H7    S    
C79   N7    S    
C16   N11   S    
C119  O47   S    
C67   C72   A    
C117  O45   S    
C78   H173  S    
C58   C85   A    
Ba1   O1    S    
O39   P4    S    
C17   H25   S    
C57   H148  S    
C34   H84   S    
C76   C85   A    
O32   P13   D    
C47   H160  S    
C98   C111  A    
Ba1   O31   S    
C9    C122  S    
H8    N9    S    
C44   C84   S    
C65   C69   A    
C17   N12   S    
C90   P2    S    
C39   C117  S    
C40   H106  S    
C120  C124  S    
C22   H43   S    
O19   P5    D    
C97   C110  A    
C128  H168  S    
Ba2   P9    S    
C4    C51   A    
C75   C84   A    
C86   C90   A    
C38   N8    S    
H30   N14   S    
C130  H35   S    
H96   N8    S    
C115  P11   S    
C13   C104  A    
C32   H78   S    
O25   P10   S    
H61   N3    S    
C43   C47   A    
C8    C121  S    
C39   H103  S    
C133  H118  S    
C121  N1    S    
C10   C123  S    
Ba1   O5    S    
C28   H64   S    
C51   P6    S    
C9    H195  S    
Ba2   O9    S    
C46   H159  S    
Ba3   P10   S    
C114  H178  S    
C80   C116  S    
O13   P11   S    
C36   H91   S    
C31   H73   S    
C132  H57   S    
O10   P9    S    
C89   C107  A    
C34   H85   S    
C18   H27   S    
O7    P15   S    
C11   C124  S    
O5    P13   S    
O37   P2    S    
C14   H11   S    
C129  H24   S    
C2    H151  S    
C124  N11   S    
H17   N11   S    
C134  H119  S    
C5    C93   A    
Ba3   P14   S    
C63   H144  S    
C38   H99   S    
C21   H39   S    
C19   H33   S    
C13   H152  S    
O38   P3    S    
C23   C75   S    
C56   H147  S    
C69   H155  S    
C110  H165  S    
C8    H189  S    
C72   H158  S    
C114  H183  S    
C117  H185  S    
C26   H54   S    
C71   H131  S    
C61   C65   A    
C119  H187  S    
C63   C67   A    
C23   H48   S    
Ba4   O7    S    
C18   H29   S    
C48   C53   A    
C134  O27   S    
C1    H128  S    
C136  O29   S    
C121  N12   S    
C20   H37   S    
C27   N2    S    
C15   H14   S    
C25   H50   S    
C127  H157  S    
C78   C113  S    
C112  H132  S    
Ba2   O6    S    
C7    C115  A    
C41   H107  S    
C135  O28   S    
C1    C134  S    
O26   P11   S    
O46   P14   S    
Ba4   O35   S    
C21   C73   S    
C79   C114  S    
C125  H146  S    
O11   P10   S    
C33   H82   S    
Ba1   Ba2   S    
C3    H135  S    
C100  C105  A    
C80   O4    S    
C37   H94   S    
C45   C50   A    
H52   N16   S    
C108  H163  S    
C12   H6    S    
C47   C52   A    
C40   C118  S    
C80   H175  S    
C29   H69   S    
C19   H32   S    
C16   H19   S    
C67   C107  S    
O17   P7    S    
O18   P6    D    
C11   H200  S    
Ba3   O8    S    
C90   C108  A    
C14   H9    S    
C66   C106  S    
C62   H143  S    
C65   C105  S    
C128  O25   S    
O27   P6    S    
H83   N5    S    
C56   C83   A    
C21   H41   S    
O41   P2    D    
C97   C101  A    
C29   H66   S    
O12   P9    D    
O48   P16   S    
C6    C53   A    
C88   N3    S    
C8    H191  S    
C100  H138  S    
C14   N9    S    
C3    C71   S    
C80   N8    S    
C10   H197  S    
C131  H90   S    
H65   N4    S    
C129  O26   S    
C118  C122  S    
C57   C84   A    
C127  C131  S    
O24   P9    S    
C126  H150  S    
C128  H13   S    
C89   N4    S    
Ba2   O12   S    
C61   H142  S    
C127  H2    S    
C79   O3    S    
C40   H105  S    
O43   P4    D    
C49   H129  S    
C136  H121  S    
H26   N13   S    
C101  H139  S    
C86   N16   S    
C102  H140  S    
C99   H137  S    
C92   P4    S    
C26   N16   S    
C12   N1    S    
H56   N2    S    
C59   H141  S    
C50   C54   A    
C3    O30   S    
O21   P7    D    
C58   C61   A    
C96   C109  A    
C45   C85   S    
C24   C115  A    
Ba2   O32   S    
Ba1   P1    S    
C60   H130  S    
C35   C126  A    
H12   N10   S    
O40   P16   D    
C46   C51   A    
Ba3   O16   S    
C87   C105  A    
C70   H156  S    
O47   P15   S    
C113  H177  S    
C91   C109  A    
O6    P12   S    
C95   C108  A    
C69   C76   A    
C98   C102  A    
C116  H180  S    
C53   P8    S    
Ba4   P11   S    
C35   C46   A    
C120  O46   S    
C89   C94   A    
C133  H113  S    
C22   H44   S    
