data_mof_unit_31556.cif
_audit_creation_date              2012-12-10T19:42:54-0500
_audit_creation_method            fapswitch 2.2
_symmetry_space_group_name_H-M    P1
_symmetry_Int_Tables_number       1
_space_group_crystal_system       triclinic
_cell_length_a                    10.836618
_cell_length_b                    12.994227
_cell_length_c                    11.717255
_cell_angle_alpha                 99.39351
_cell_angle_beta                  93.487143
_cell_angle_gamma                 91.681772
_cell_volume                      1623.51592284

loop_
_atom_site_label
_atom_site_type_symbol
_atom_type_description
_atom_site_fract_x
_atom_site_fract_y
_atom_site_fract_z
_atom_type_partial_charge
C1    C     C_R   0.498221 0.299247 0.478896 0.809619
C2    C     C_R   0.501776 0.700753 0.521104 0.809635
C3    C     C_R   0.871458 0.493411 0.499592 -0.086382
C4    C     C_R   0.128541 0.506584 0.500407 -0.086381
C5    C     C_R   0.944065 0.466694 0.594212 -0.004800
C6    C     C_R   0.055934 0.533304 0.405789 -0.004812
C7    C     C_R   0.502405 0.814089 0.533280 -0.049641
C8    C     C_R   0.497583 0.185911 0.466720 -0.049647
C9    C     C_R   0.493389 0.016084 0.345101 -0.214776
C10   C     C_R   0.506581 0.983917 0.654901 -0.214765
C11   C     C_R   0.493263 0.124149 0.356225 -0.197741
C12   C     C_R   0.506707 0.875852 0.643779 -0.197737
C13   C     C_R   0.501551 0.138900 0.566047 -0.256917
C14   C     C_R   0.498439 0.861099 0.433950 -0.256927
C15   C     C_R   0.502032 0.030940 0.555670 0.172768
C16   C     C_R   0.497949 0.969059 0.444328 0.172756
C17   C     C_R   0.385542 0.398279 0.024584 -0.343465
C18   C     C_R   0.614464 0.601717 0.975415 -0.343429
C19   C     C_R   0.396307 0.408586 0.145672 0.089258
C20   C     C_R   0.603698 0.591410 0.854328 0.089262
C21   C     C_R   0.549514 0.544800 0.156287 0.125394
C22   C     C_R   0.450487 0.455199 0.843713 0.125387
C23   C     C_R   0.262497 0.503587 0.500485 0.800613
C24   C     C_R   0.737503 0.496411 0.499515 0.800600
C25   C     C_R   0.541651 0.537230 0.033399 0.018191
C26   C     C_R   0.458352 0.462768 0.966601 0.018195
C27   C     C_R   0.232691 0.704725 0.233681 -0.119901
C28   C     C_R   0.767277 0.295332 0.766357 -0.119889
C29   C     C_R   0.181306 0.667637 0.326570 -0.086995
C30   C     C_R   0.818643 0.332407 0.673455 -0.086910
C31   C     C_R   0.109195 0.573965 0.307384 0.135320
C32   C     C_R   0.890809 0.426047 0.692627 0.135302
C33   C     C_R   0.087539 0.519193 0.193838 -0.162574
C34   C     C_R   0.912540 0.480796 0.806174 -0.162600
C35   C     C_R   0.139401 0.556523 0.101324 -0.142523
C36   C     C_R   0.860699 0.443478 0.898701 -0.142540
C37   C     C_R   0.212298 0.648954 0.121275 -0.106853
C38   C     C_R   0.787746 0.351081 0.878764 -0.106875
C39   C     C_R   0.928096 0.524653 0.406073 -0.226048
C40   C     C_R   0.071904 0.475342 0.593925 -0.226055
Cu1   Cu    Cu3+1 0.509250 0.507730 0.615930 0.953817
Cu2   Cu    Cu3+1 0.490750 0.492270 0.384070 0.953826
H1    H     H_    0.252902 0.677382 0.049626 0.124141
H2    H     H_    0.747160 0.322661 0.950423 0.124154
H3    H     H_    0.660394 0.641232 0.811399 0.129652
H4    H     H_    0.339612 0.358763 0.188601 0.129646
H5    H     H_    0.319839 0.339947 0.977385 0.149172
H6    H     H_    0.680169 0.660047 0.022614 0.149173
H7    H     H_    0.288266 0.776747 0.248771 0.117540
H8    H     H_    0.711661 0.223336 0.751280 0.117531
H9    H     H_    0.198265 0.711337 0.413368 0.103599
H10   H     H_    0.801628 0.288722 0.586658 0.103577
H11   H     H_    0.031977 0.447017 0.177294 0.122029
H12   H     H_    0.968151 0.552944 0.822710 0.122044
H13   H     H_    0.123941 0.513368 0.014237 0.132683
H14   H     H_    0.876224 0.486613 0.985789 0.132693
H15   H     H_    0.872671 0.546031 0.334170 0.174006
H16   H     H_    0.127330 0.453964 0.665828 0.174005
H17   H     H_    0.495905 0.813965 0.348446 0.156879
H18   H     H_    0.504093 0.186034 0.651550 0.156867
H19   H     H_    0.509985 0.840795 0.721631 0.156460
H20   H     H_    0.489973 0.159208 0.278380 0.156467
H21   H     H_    0.490008 0.969437 0.259261 0.133439
H22   H     H_    0.509950 0.030564 0.740744 0.133437
N1    N     N_R   0.523180 0.519350 0.790130 -0.198214
N2    N     N_R   0.476820 0.480650 0.209870 -0.198207
O1    O     O_R   0.506570 0.354460 0.582000 -0.578768
O2    O     O_R   0.493430 0.645540 0.418000 -0.578756
O3    O     O_R   0.490940 0.341410 0.386200 -0.600554
O4    O     O_R   0.509060 0.658590 0.613800 -0.600553
O5    O     O_R   0.327460 0.506540 0.597900 -0.584281
O6    O     O_R   0.672540 0.493460 0.402100 -0.584277
O7    O     O_R   0.311830 0.493480 0.402100 -0.578689
O8    O     O_R   0.688170 0.506520 0.597900 -0.578698
C41   C     C_1   0.365067 0.379175 0.774598 0.257300
N3    N     N_1   0.296358 0.317557 0.720401 -0.322782
C42   C     C_1   0.634933 0.620825 0.225403 0.257306
N4    N     N_1   0.703641 0.682444 0.279600 -0.322783

loop_
_geom_bond_atom_site_label_1
_geom_bond_atom_site_label_2
_ccdc_geom_bond_type
C8    C13   A    
C21   N2    A    
C27   C29   A    
C1    C8    S    
Cu1   Cu2   S    
C2    C7    S    
C11   H20   S    
C19   H4    S    
Cu1   O1    S    
C13   H18   S    
C42   N4    T    
C14   H17   S    
C17   C26   A    
C35   C37   A    
C9    C16   A    
C2    O2    A    
C10   C15   A    
C15   C16   A    
C39   H15   S    
C19   N2    A    
C30   H10   S    
C17   C19   A    
Cu1   O8    S    
C28   H8    S    
C7    C14   A    
C4    C40   A    
C31   C33   A    
C34   C36   A    
C20   H3    S    
Cu1   O5    S    
C5    C32   S    
C6    C31   S    
C3    C39   A    
Cu2   O2    S    
C3    C24   S    
C18   C25   A    
C22   C41   S    
C23   O7    A    
C33   H11   S    
C7    C12   A    
C40   H16   S    
C35   H13   S    
C23   O5    A    
C20   N1    A    
C4    C6    A    
C4    C23   S    
Cu1   N1    S    
C25   C26   A    
Cu2   O3    S    
C1    O3    A    
C32   C34   A    
C37   H1    S    
C41   N3    T    
C22   N1    A    
C38   H2    S    
C36   H14   S    
C28   C38   A    
Cu2   O6    S    
C9    C11   A    
C10   C12   A    
C34   H12   S    
C13   C15   A    
C14   C16   A    
C24   O6    A    
C29   H9    S    
C21   C25   A    
Cu2   O7    S    
C9    H21   S    
C10   H22   S    
C17   H5    S    
C3    C5    A    
C18   H6    S    
C1    O1    A    
C28   C30   A    
C29   C31   A    
C30   C32   A    
C12   H19   S    
C24   O8    A    
C27   C37   A    
C8    C11   A    
C36   C38   A    
C33   C35   A    
C18   C20   A    
C22   C26   A    
C5    C40   A    
C21   C42   S    
Cu2   N2    S    
C6    C39   A    
C2    O4    A    
C27   H7    S    
Cu1   O4    S    
