data_mof_unit_38613.cif
_audit_creation_date              2012-12-11T15:41:06-0500
_audit_creation_method            fapswitch 2.2
_symmetry_space_group_name_H-M    P1
_symmetry_Int_Tables_number       1
_space_group_crystal_system       triclinic
_cell_length_a                    18.999527
_cell_length_b                    11.005929
_cell_length_c                    18.795677
_cell_angle_alpha                 89.691105
_cell_angle_beta                  90.576553
_cell_angle_gamma                 89.986768
_cell_volume                      3930.05973519

loop_
_atom_site_label
_atom_site_type_symbol
_atom_type_description
_atom_site_fract_x
_atom_site_fract_y
_atom_site_fract_z
_atom_type_partial_charge
C1    C     C_R   0.727522 0.955071 0.853620 0.560234
C2    C     C_R   0.272280 0.953245 0.147553 0.536892
C3    C     C_R   0.228342 0.452256 0.852489 0.566918
C4    C     C_R   0.775865 0.463327 0.143583 0.539872
C5    C     C_R   0.699832 0.459868 0.036632 0.019244
C6    C     C_R   0.318565 0.410442 0.950784 0.020577
C7    C     C_R   0.184219 0.891612 0.051709 0.043360
C8    C     C_R   0.809112 0.947672 0.958748 0.014791
C9    C     C_R   0.691285 0.446931 0.963922 -0.023241
C10   C     C_R   0.328199 0.382288 0.022835 -0.042163
C11   C     C_R   0.173835 0.864586 0.980026 -0.012683
C12   C     C_R   0.819261 0.916383 0.029811 -0.034271
C13   C     C_R   0.816931 0.428646 0.950259 -0.143674
C14   C     C_R   0.213906 0.290340 0.024417 -0.170634
C15   C     C_R   0.298364 0.831003 0.967932 -0.175575
C16   C     C_R   0.726480 0.768434 0.020594 -0.157606
C17   C     C_R   0.825130 0.440226 0.023630 -0.150713
C18   C     C_R   0.206696 0.310091 0.951636 -0.154076
C19   C     C_R   0.307762 0.851285 0.039370 -0.159611
C20   C     C_R   0.717171 0.798170 0.948666 -0.148626
C21   C     C_3   0.634149 0.391958 0.052749 0.069475
C22   C     C_3   0.360321 0.524525 0.957462 0.105374
C23   C     C_3   0.126110 0.981841 0.052154 0.084632
C24   C     C_3   0.827138 0.078137 0.972698 0.123825
C25   C     C_3   0.624612 0.376533 0.973098 -0.180911
C26   C     C_3   0.371226 0.493745 0.036026 -0.236113
C27   C     C_3   0.114559 0.953719 0.973579 -0.185036
C28   C     C_3   0.838766 0.043186 0.050440 -0.218913
C29   C     C_R   0.749125 0.422470 0.920501 0.008442
C30   C     C_R   0.272982 0.332142 0.062395 0.009843
C31   C     C_R   0.231752 0.843627 0.935776 0.005464
C32   C     C_R   0.774034 0.834081 0.063330 0.009152
C33   C     C_R   0.484259 0.171039 0.431242 0.023917
C34   C     C_R   0.491623 0.166943 0.578944 0.018774
C35   C     C_R   0.980081 0.669976 0.432746 0.020585
C36   C     C_R   0.988920 0.670653 0.580261 0.019303
C37   C     C_R   0.466865 0.273477 0.470731 0.050479
C38   C     C_R   0.469503 0.272342 0.543367 0.025219
C39   C     C_R   0.971523 0.777254 0.470514 0.041761
C40   C     C_R   0.974745 0.778667 0.542944 0.025230
C41   C     C_R   0.496723 0.057925 0.540678 -0.163369
C42   C     C_R   0.494878 0.060465 0.466613 -0.167331
C43   C     C_R   0.982322 0.559512 0.544441 -0.163246
C44   C     C_R   0.979202 0.559208 0.470168 -0.160673
C45   C     C_R   0.530730 0.176653 0.851027 0.571733
C46   C     C_R   0.468896 0.178053 0.148900 0.571307
C47   C     C_R   0.031336 0.676825 0.851432 0.577734
C48   C     C_R   0.970047 0.678367 0.149637 0.578622
C49   C     C_3   0.495704 0.398905 0.464504 -0.269811
C50   C     C_3   0.497324 0.400321 0.544589 -0.267377
C51   C     C_3   0.008462 0.895634 0.461642 -0.277124
C52   C     C_3   0.011737 0.899826 0.541694 -0.269116
C53   C     C_R   0.760883 0.430842 0.428100 0.020068
C54   C     C_R   0.248056 0.409565 0.578259 0.017790
C55   C     C_R   0.251014 0.911556 0.422085 0.015188
C56   C     C_R   0.739505 0.930452 0.572329 0.021849
C57   C     C_R   0.818986 0.395017 0.469010 0.045771
C58   C     C_R   0.202998 0.330471 0.541527 0.023179
C59   C     C_R   0.292069 0.824966 0.458033 0.020551
C60   C     C_R   0.680550 0.903549 0.530339 0.045721
C61   C     C_R   0.815913 0.388215 0.541880 0.026718
C62   C     C_R   0.206092 0.321228 0.468759 0.038022
C63   C     C_R   0.290044 0.816689 0.530935 0.042966
C64   C     C_R   0.684501 0.896645 0.457438 0.019677
C65   C     C_R   0.698505 0.470599 0.537710 -0.166718
C66   C     C_R   0.304983 0.457220 0.466138 -0.152308
C67   C     C_R   0.198993 0.968311 0.535193 -0.170297
C68   C     C_R   0.806534 0.956153 0.464240 -0.163933
C69   C     C_R   0.701337 0.474536 0.463278 -0.169451
C70   C     C_R   0.302615 0.465873 0.540417 -0.151540
C71   C     C_R   0.200632 0.977125 0.460914 -0.163920
C72   C     C_R   0.802192 0.962609 0.538455 -0.169622
C73   C     C_3   0.862033 0.282299 0.463058 -0.276440
C74   C     C_3   0.124171 0.323358 0.539942 -0.270236
C75   C     C_3   0.370060 0.804156 0.457837 -0.269273
C76   C     C_3   0.633069 0.796026 0.535562 -0.270342
C77   C     C_3   0.860040 0.275224 0.543262 -0.269380
C78   C     C_3   0.128076 0.314459 0.459981 -0.276325
C79   C     C_3   0.367628 0.798860 0.537998 -0.271101
C80   C     C_3   0.635457 0.790200 0.455477 -0.268601
C81   C     C_R   0.753513 0.416638 0.577206 0.017628
C82   C     C_R   0.253901 0.389476 0.429384 0.017939
C83   C     C_R   0.246620 0.891705 0.571009 0.019152
C84   C     C_R   0.748826 0.914474 0.423448 0.013933
C85   C     C_R   0.738297 0.364477 0.852283 0.538741
C86   C     C_R   0.275815 0.313195 0.139999 0.568658
C87   C     C_R   0.225000 0.815247 0.860295 0.569425
C88   C     C_R   0.776044 0.812642 0.140273 0.561414
C89   C     C_R   0.727041 0.957066 0.646674 0.537785
C90   C     C_R   0.272208 0.955401 0.352535 0.549132
C91   C     C_R   0.227693 0.455331 0.647523 0.544946
C92   C     C_R   0.773108 0.457121 0.353527 0.545573
C93   C     C_R   0.528388 0.176436 0.645872 0.548551
C94   C     C_R   0.468387 0.176495 0.356565 0.545013
C95   C     C_R   0.027878 0.676828 0.646217 0.543397
C96   C     C_R   0.966904 0.676333 0.357444 0.545027
C97   C     C_R   0.739734 0.362967 0.646567 0.543739
C98   C     C_R   0.261273 0.359283 0.354784 0.557415
C99   C     C_R   0.238996 0.860557 0.645536 0.551246
C100  C     C_R   0.760727 0.861923 0.353749 0.560654
C101  C     C_2   0.500170 0.160919 0.921540 -0.078593
C102  C     C_2   0.500179 0.170515 0.078770 -0.026455
C103  C     C_2   0.003639 0.661218 0.923228 -0.078704
C104  C     C_2   0.003590 0.673759 0.080507 -0.055859
C105  C     C_2   0.501283 0.067731 0.040681 0.205310
C106  C     C_2   0.525039 0.073276 0.966190 0.199332
C107  C     C_2   0.012618 0.571774 0.043694 0.163894
C108  C     C_2   0.035648 0.582383 0.968979 0.189038
C109  C     C_R   0.765881 0.446570 0.067886 0.044635
C110  C     C_R   0.254197 0.386733 0.916222 0.010764
C111  C     C_R   0.252312 0.895917 0.080648 -0.001433
C112  C     C_R   0.754005 0.896724 0.918811 0.005349
Cr1   Cr    Cr6+3 0.769260 0.163750 0.750730 1.045301
Cr2   Cr    Cr6+3 0.230740 0.163750 0.249270 1.011327
Cr3   Cr    Cr6+3 0.269260 0.663750 0.750730 1.045655
Cr4   Cr    Cr6+3 0.730740 0.663750 0.249270 1.009534
Cr5   Cr    Cr6+3 0.612640 0.009910 0.748780 1.054404
Cr6   Cr    Cr6+3 0.387360 0.009910 0.251220 1.047910
Cr7   Cr    Cr6+3 0.112640 0.509910 0.748780 1.039346
Cr8   Cr    Cr6+3 0.887360 0.509910 0.251220 1.048753
Cr9   Cr    Cr6+3 0.614190 0.322400 0.747710 1.022215
Cr10  Cr    Cr6+3 0.385810 0.322400 0.252290 1.010285
Cr11  Cr    Cr6+3 0.114190 0.822400 0.747710 1.014581
Cr12  Cr    Cr6+3 0.885810 0.822400 0.252290 1.021271
H1    H     H_    0.974902 0.967810 0.437788 0.135015
H2    H     H_    0.066614 0.895964 0.561602 0.174519
H3    H     H_    0.458209 0.464733 0.440689 0.137437
H4    H     H_    0.551551 0.407887 0.565351 0.167063
H5    H     H_    0.548817 0.399885 0.440377 0.133080
H6    H     H_    0.459534 0.465518 0.567876 0.126057
H7    H     H_    0.060826 0.885078 0.436567 0.141412
H8    H     H_    0.979264 0.973752 0.564504 0.124266
H9    H     H_    0.651554 0.501168 0.563823 0.115761
H10   H     H_    0.344547 0.506754 0.437242 0.117334
H11   H     H_    0.162355 0.023699 0.564529 0.118980
H12   H     H_    0.856466 0.974155 0.439544 0.132934
H13   H     H_    0.915512 0.298978 0.442072 0.133850
H14   H     H_    0.099095 0.408850 0.557259 0.166416
H15   H     H_    0.399944 0.883265 0.438201 0.168250
H16   H     H_    0.580230 0.817621 0.556097 0.133237
H17   H     H_    0.832775 0.207682 0.436335 0.141532
H18   H     H_    0.104111 0.239255 0.565713 0.127533
H19   H     H_    0.384415 0.716142 0.433247 0.123495
H20   H     H_    0.659216 0.717937 0.562512 0.138978
H21   H     H_    0.830850 0.194999 0.562567 0.170756
H22   H     H_    0.109664 0.225702 0.439253 0.133022
H23   H     H_    0.382672 0.709227 0.560251 0.131521
H24   H     H_    0.661001 0.706802 0.436391 0.167846
H25   H     H_    0.912262 0.289780 0.568953 0.125777
H26   H     H_    0.105962 0.395134 0.431749 0.139072
H27   H     H_    0.393767 0.877120 0.564282 0.139897
H28   H     H_    0.584402 0.812158 0.429170 0.127566
H29   H     H_    0.515089 0.255699 0.053985 0.070258
H30   H     H_    0.462509 0.227741 0.939844 0.023799
H31   H     H_    0.013714 0.759975 0.054581 0.128126
H32   H     H_    0.961163 0.719812 0.940578 0.031991
H33   H     H_    0.877638 0.439532 0.045922 0.187202
H34   H     H_    0.157682 0.282116 0.926761 0.162957
H35   H     H_    0.361024 0.843962 0.059734 0.183032
H36   H     H_    0.676000 0.752385 0.918897 0.155772
H37   H     H_    0.143826 0.074327 0.063813 0.129291
H38   H     H_    0.782353 0.141669 0.963671 0.180644
H39   H     H_    0.592643 0.448079 0.078133 0.114554
H40   H     H_    0.327831 0.605697 0.947096 0.166865
H41   H     H_    0.629769 0.280919 0.955089 0.179038
H42   H     H_    0.426532 0.471329 0.050925 0.143963
H43   H     H_    0.063473 0.908594 0.961786 0.162892
H44   H     H_    0.894426 0.049716 0.068881 0.174069
H45   H     H_    0.578155 0.426222 0.951440 0.116601
H46   H     H_    0.344852 0.559010 0.072023 0.133846
H47   H     H_    0.127301 0.031566 0.938020 0.110413
H48   H     H_    0.799781 0.085278 0.086545 0.152310
H49   H     H_    0.509710 0.973922 0.567423 0.127518
H50   H     H_    0.504336 0.978108 0.437179 0.116393
H51   H     H_    0.987074 0.474159 0.572832 0.119933
H52   H     H_    0.979132 0.473773 0.442219 0.127032
O1    O     O_R   0.784290 0.290360 0.830540 -0.490285
O2    O     O_R   0.215710 0.290360 0.169460 -0.508852
O3    O     O_R   0.284290 0.790360 0.830540 -0.514312
O4    O     O_R   0.715710 0.790360 0.169460 -0.501860
O5    O     O_R   0.554690 0.080440 0.673480 -0.512996
O6    O     O_R   0.445310 0.080440 0.326520 -0.508900
O7    O     O_R   0.054690 0.580440 0.673480 -0.515823
O8    O     O_R   0.945310 0.580440 0.326520 -0.506082
O9    O     O_R   0.543980 0.282110 0.666770 -0.524218
O10   O     O_R   0.456020 0.282110 0.333230 -0.520027
O11   O     O_R   0.043980 0.782110 0.666770 -0.526351
O12   O     O_R   0.956020 0.782110 0.333230 -0.520581
O13   O     O_R   0.679070 0.374030 0.674430 -0.508942
O14   O     O_R   0.320930 0.374030 0.325570 -0.500466
O15   O     O_R   0.179070 0.874030 0.674430 -0.506044
O16   O     O_R   0.820930 0.874030 0.325570 -0.502893
O17   O     O_3   0.665360 0.165350 0.749070 -0.260232
O18   O     O_3   0.334640 0.165350 0.250930 -0.277948
O19   O     O_3   0.165360 0.665350 0.749070 -0.272362
O20   O     O_3   0.834640 0.665350 0.250930 -0.285714
O21   O     O_R   0.762610 0.041070 0.825230 -0.482332
O22   O     O_R   0.237390 0.041070 0.174770 -0.532025
O23   O     O_R   0.262610 0.541070 0.825230 -0.501448
O24   O     O_R   0.737390 0.541070 0.174770 -0.531086
O25   O     O_R   0.667390 0.924160 0.829970 -0.479695
O26   O     O_R   0.332610 0.924160 0.170030 -0.499339
O27   O     O_R   0.167390 0.424160 0.829970 -0.481574
O28   O     O_R   0.832610 0.424160 0.170030 -0.501558
O29   O     O_R   0.553980 0.081420 0.821780 -0.429914
O30   O     O_R   0.446020 0.081420 0.178220 -0.426797
O31   O     O_R   0.053980 0.581420 0.821780 -0.438448
O32   O     O_R   0.946020 0.581420 0.178220 -0.442493
O33   O     O_R   0.543210 0.283170 0.826740 -0.529179
O34   O     O_R   0.456790 0.283170 0.173260 -0.549212
O35   O     O_R   0.043210 0.783170 0.826740 -0.536690
O36   O     O_R   0.956790 0.783170 0.173260 -0.513239
O37   O     O_R   0.678350 0.375000 0.822720 -0.504698
O38   O     O_R   0.321650 0.375000 0.177280 -0.496802
O39   O     O_R   0.178350 0.875000 0.822720 -0.497679
O40   O     O_R   0.821650 0.875000 0.177280 -0.495924
O41   O     O_R   0.785060 0.289300 0.670580 -0.524702
O42   O     O_R   0.214940 0.289300 0.329420 -0.510952
O43   O     O_R   0.285060 0.789300 0.670580 -0.512049
O44   O     O_R   0.714940 0.789300 0.329420 -0.516910
O45   O     O_R   0.763330 0.040090 0.676940 -0.512124
O46   O     O_R   0.236670 0.040090 0.323060 -0.509313
O47   O     O_R   0.263330 0.540090 0.676940 -0.505842
O48   O     O_R   0.736670 0.540090 0.323060 -0.508649
O49   O     O_R   0.668160 0.923110 0.670000 -0.522070
O50   O     O_R   0.331840 0.923110 0.330000 -0.522914
O51   O     O_R   0.168160 0.423110 0.670000 -0.527031
O52   O     O_R   0.831840 0.423110 0.330000 -0.514145
O53   O     O_3   0.484061 0.957386 0.071450 -0.684291
H53   H     H_    0.484291 0.894380 0.033943 0.321275
O54   O     O_3   0.575484 0.991703 0.943697 -0.667740
H54   H     H_    0.592897 0.944533 0.985373 0.335299
O55   O     O_3   0.006371 0.459487 0.076369 -0.685580
H55   H     H_    0.012314 0.396002 0.039668 0.332348
O56   O     O_3   0.093646 0.517100 0.947636 -0.679431
H56   H     H_    0.116249 0.481548 0.990643 0.330743
H57   H     H_    0.656635 0.508151 0.433187 0.112388
H58   H     H_    0.339484 0.524200 0.567522 0.122786
H59   H     H_    0.166738 0.042548 0.434689 0.133300
H60   H     H_    0.847997 0.989136 0.569302 0.118682
H61   H     H_    0.863058 0.413653 0.918027 0.162664
H62   H     H_    0.168977 0.255497 0.051975 0.139093
H63   H     H_    0.345074 0.809991 0.937824 0.166271
H64   H     H_    0.692376 0.701018 0.044066 0.138416
O57   O     O_3   0.648265 0.281080 0.087217 -0.710043
H65   H     H_    0.647424 0.298471 0.138935 0.331711
O58   O     O_3   0.422689 0.523262 0.917678 -0.689064
H66   H     H_    0.447067 0.444642 0.926133 0.327700
O59   O     O_3   0.070020 0.944107 0.094509 -0.713246
H67   H     H_    0.084400 0.961062 0.144381 0.339250
O60   O     O_3   0.888991 0.116051 0.938397 -0.679565
H68   H     H_    0.925612 0.052398 0.945104 0.331543

loop_
_geom_bond_atom_site_label_1
_geom_bond_atom_site_label_2
_ccdc_geom_bond_type
C58   C62   A    
Cr1   O1    S    
C4    C109  S    
C67   C83   A    
C21   H39   S    
C18   C110  A    
C47   O35   A    
C93   O9    A    
C3    O27   A    
C41   C42   A    
C14   C18   A    
C105  C106  S    
C39   C51   S    
C2    O26   A    
C34   C93   S    
C98   O14   A    
C53   C69   A    
C33   C94   S    
C75   H19   S    
O56   H56   S    
C9    C25   S    
O60   H68   S    
C73   H17   S    
C35   C96   S    
Cr6   O50   S    
C15   C19   A    
C74   H14   S    
Cr9   O37   S    
Cr11  O39   S    
Cr8   O20   S    
C75   C79   S    
C2    O22   A    
C12   C28   S    
C33   C42   A    
C46   C102  S    
C13   C29   A    
Cr6   O30   S    
C14   C30   A    
C90   O46   A    
C55   C90   S    
Cr5   O29   S    
C8    C112  A    
C1    C112  S    
Cr9   O13   S    
C22   O58   S    
Cr4   O24   S    
Cr5   O5    S    
Cr10  O10   S    
C45   O33   A    
C3    C110  S    
C48   C104  S    
Cr6   O26   S    
C65   C69   A    
C86   O2    A    
C22   H40   S    
C106  O54   S    
C102  C105  D    
C46   O30   A    
C57   C73   S    
C65   H9    S    
O58   H66   S    
C96   O12   A    
C64   C84   A    
C36   C40   A    
C21   C25   S    
C69   H57   S    
C50   H6    S    
C8    C24   S    
C14   H62   S    
C43   H51   S    
C28   H48   S    
C13   H61   S    
C48   O36   A    
C61   C77   S    
C56   C72   A    
Cr11  O35   S    
C3    O23   A    
C107  C108  S    
C72   H60   S    
C88   O4    A    
C103  C108  D    
Cr9   O33   S    
C8    C12   A    
Cr4   O44   S    
C17   H33   S    
O55   H55   S    
Cr8   O52   S    
C29   C85   S    
C68   C72   A    
C10   C26   S    
Cr6   O6    S    
C107  O55   S    
C108  O56   S    
C11   C31   A    
C83   C99   S    
O57   H65   S    
C12   C32   A    
C6    C110  A    
Cr3   O43   S    
C100  O16   A    
C34   C41   A    
C93   O5    A    
C96   O8    A    
Cr5   O25   S    
C89   O45   A    
Cr9   O17   S    
O53   H53   S    
C62   C78   S    
C60   C64   A    
Cr10  O14   S    
C52   H8    S    
C76   H16   S    
C88   O40   A    
C49   H3    S    
C15   H63   S    
C2    C111  S    
C47   C103  S    
C82   C98   S    
Cr7   O51   S    
C51   C52   S    
C68   C84   A    
Cr3   O23   S    
C92   O48   A    
C31   C87   S    
C53   C57   A    
C42   H50   S    
C77   H25   S    
C39   C40   A    
Cr12  O12   S    
C52   H2    S    
C7    C111  A    
C21   O57   S    
Cr12  O36   S    
C25   H41   S    
Cr1   O41   S    
C40   C52   S    
C49   H5    S    
C60   C76   S    
C33   C37   A    
C56   C60   A    
C63   C83   A    
C5    C21   S    
C51   H1    S    
C61   C81   A    
Cr4   O48   S    
C80   H24   S    
C67   H11   S    
C43   C44   A    
C86   O38   A    
C5    C9    A    
C37   C38   A    
C18   H34   S    
C85   O37   A    
C66   C82   A    
C37   C49   S    
C10   C30   A    
C65   C81   A    
C54   C70   A    
C11   C27   S    
C16   C20   A    
Cr5   O49   S    
C48   O32   A    
C53   C92   S    
Cr10  O34   S    
O59   H67   S    
C20   C112  A    
Cr7   O27   S    
C78   H26   S    
Cr7   O7    S    
Cr2   O46   S    
C68   H12   S    
C57   C61   A    
C35   C44   A    
Cr8   O8    S    
C102  H29   S    
C26   H46   S    
C64   C80   S    
C45   C101  S    
C38   C50   S    
C76   H20   S    
C85   O1    A    
C56   C89   S    
C84   C100  S    
C99   O43   A    
C30   C86   S    
C95   O11   A    
C74   H18   S    
C23   C27   S    
C98   O42   A    
C20   H36   S    
Cr8   O28   S    
C97   O41   A    
Cr7   O19   S    
C32   C88   S    
C50   H4    S    
C78   H22   S    
C91   O47   A    
C62   C82   A    
Cr5   O17   S    
C59   C75   S    
Cr12  O16   S    
C55   C59   A    
C58   C74   S    
C24   C28   S    
C79   H27   S    
Cr12  O40   S    
C25   H45   S    
C101  C106  D    
C80   H28   S    
C41   H49   S    
C26   H42   S    
C45   O29   A    
Cr2   O18   S    
C91   O51   A    
C34   C38   A    
Cr1   O17   S    
Cr2   O22   S    
C90   O50   A    
C24   O60   S    
C1    O21   A    
Cr2   O2    S    
C94   O10   A    
C89   O49   A    
C17   C109  A    
C6    C10   A    
Cr8   O32   S    
C79   H23   S    
C76   C80   S    
C15   C31   A    
Cr1   O45   S    
C63   C79   S    
C19   C111  A    
C16   C32   A    
C70   H58   S    
C1    O25   A    
C74   C78   S    
C59   C63   A    
C71   H59   S    
C47   O31   A    
Cr3   O19   S    
Cr6   O18   S    
C19   H35   S    
Cr4   O4    S    
C54   C91   S    
C23   O59   S    
C46   O34   A    
C87   O3    A    
C99   O15   A    
C9    C29   A    
Cr11  O19   S    
C36   C95   S    
C95   O7    A    
C66   C70   A    
C77   H21   S    
C73   H13   S    
C101  H30   S    
Cr10  O18   S    
C7    C23   S    
C35   C39   A    
C5    C109  A    
C97   O13   A    
C81   C97   S    
C24   H38   S    
Cr1   O21   S    
C67   C71   A    
C104  H31   S    
Cr11  O11   S    
Cr12  O20   S    
Cr3   O3    S    
C100  O44   A    
C44   H52   S    
C4    O28   A    
C28   H44   S    
Cr9   O9    S    
C13   C17   A    
Cr4   O20   S    
Cr10  O38   S    
C103  H32   S    
C4    O24   A    
Cr2   O42   S    
C54   C58   A    
C92   O52   A    
C73   C77   S    
C51   H7    S    
C49   C50   S    
C22   C26   S    
C7    C11   A    
C27   H43   S    
O54   H54   S    
C87   O39   A    
C36   C43   A    
C75   H15   S    
Cr7   O31   S    
C94   O6    A    
C66   H10   S    
C27   H47   S    
Cr11  O15   S    
C16   H64   S    
C104  C107  D    
C55   C71   A    
Cr3   O47   S    
C105  O53   S    
C23   H37   S    
C6    C22   S    
