data_mof_unit_58970.cif
_audit_creation_date              2012-12-11T17:25:08-0500
_audit_creation_method            fapswitch 2.2
_symmetry_space_group_name_H-M    P1
_symmetry_Int_Tables_number       1
_space_group_crystal_system       triclinic
_cell_length_a                    6.952891
_cell_length_b                    20.543437
_cell_length_c                    24.483109
_cell_angle_alpha                 90.112199
_cell_angle_beta                  90.148774
_cell_angle_gamma                 89.181679
_cell_volume                      3496.70125405

loop_
_atom_site_label
_atom_site_type_symbol
_atom_type_description
_atom_site_fract_x
_atom_site_fract_y
_atom_site_fract_z
_atom_type_partial_charge
O1    O     O_R   0.507280 0.423750 0.460310 -0.530103
O2    O     O_R   0.171030 0.555650 0.437630 -0.540742
O3    O     O_R   0.004080 0.576250 0.539690 -0.541082
C1    C     C_R   0.339120 0.575678 0.421795 0.706486
O4    O     O_R   0.177330 0.422980 0.453960 -0.530998
O5    O     O_R   0.010420 0.442640 0.556140 -0.524466
C2    C     C_R   0.346895 0.399007 0.443458 0.766046
O6    O     O_R   0.500930 0.557360 0.443860 -0.539474
O7    O     O_3   0.340310 0.506600 0.533500 -0.367156
V1    V     V_3+5 0.064140 0.498780 0.493780 1.464099
O8    O     O_R   0.680890 0.444350 0.562370 -0.529404
C3    C     C_R   0.850494 0.424289 0.578058 0.745546
O9    O     O_R   0.674590 0.577020 0.546040 -0.542214
C4    C     C_R   0.841546 0.601138 0.556641 0.674991
V2    V     V_3+5 0.564550 0.501220 0.506220 1.467457
O10   O     O_3   0.838250 0.493400 0.466500 -0.370656
C5    C     C_R   0.983495 0.838023 0.910912 -0.052044
C6    C     C_R   0.838940 0.661968 0.589003 -0.042155
C7    C     C_R   0.116230 0.729409 0.899054 -0.169657
C8    C     C_R   0.084669 0.784144 0.931447 -0.165040
C9    C     C_R   0.911249 0.836274 0.857165 -0.218256
C10   C     C_R   0.943634 0.780929 0.822769 0.109932
C11   C     C_R   0.050161 0.727744 0.844924 0.141456
C12   C     C_R   0.879097 0.776994 0.767017 -0.023699
C13   C     C_R   0.928600 0.721255 0.734123 0.054138
C14   C     C_R   0.037403 0.670545 0.758485 -0.170001
C15   C     C_R   0.094426 0.673559 0.812760 -0.205597
C16   C     C_R   0.765128 0.826691 0.743387 -0.269824
C17   C     C_R   0.700361 0.823095 0.689667 0.428236
C18   C     C_R   0.756506 0.770541 0.656148 0.013414
C19   C     C_R   0.867615 0.718037 0.678029 0.027261
C20   C     C_R   0.697693 0.769255 0.601153 -0.144324
C21   C     C_R   0.736612 0.715435 0.568360 -0.172988
C22   C     C_R   0.907634 0.663681 0.643081 -0.192514
H1    H     H_    0.177192 0.633155 0.829573 0.122116
H2    H     H_    0.982395 0.620608 0.657167 0.093861
H3    H     H_    0.680797 0.714571 0.526994 0.112239
H4    H     H_    0.197540 0.688774 0.915994 0.115417
H5    H     H_    0.143942 0.785177 0.972418 0.110424
H6    H     H_    0.840360 0.879968 0.842791 0.111570
H7    H     H_    0.081636 0.627341 0.736716 0.119213
H8    H     H_    0.719527 0.869165 0.765936 0.161771
H9    H     H_    0.615437 0.809194 0.583545 0.153125
C23   C     C_R   0.740439 0.248238 0.715293 0.257086
C24   C     C_R   0.887817 0.293236 0.705323 0.008442
C25   C     C_R   0.051351 0.292638 0.738967 -0.151061
H10   H     H_    0.165774 0.326846 0.731915 0.160011
C26   C     C_R   0.069470 0.248024 0.781966 -0.147885
H11   H     H_    0.197496 0.248675 0.807276 0.162905
C27   C     C_R   0.924049 0.203165 0.792423 0.014389
C28   C     C_R   0.758263 0.203319 0.758958 0.243758
C29   C     C_1   0.873850 0.340034 0.660681 0.078684
C30   C     C_1   0.945738 0.157839 0.837910 0.069472
C31   C     C_1   0.960750 0.120160 0.875982 -0.145778
C32   C     C_1   0.862511 0.378721 0.623239 -0.119345
H12   H     H_    0.699153 0.702458 0.296294 0.112540
C33   C     C_R   0.596725 0.767489 0.233317 -0.153808
H13   H     H_    0.740610 0.780343 0.220836 0.111111
C34   C     C_R   0.435993 0.795038 0.206672 0.135628
C35   C     C_R   0.251203 0.777267 0.223833 -0.154055
H14   H     H_    0.125058 0.797805 0.203896 0.112580
C36   C     C_R   0.227486 0.732779 0.266876 -0.153592
H15   H     H_    0.083601 0.719920 0.279354 0.111128
C37   C     C_R   0.388219 0.705227 0.293520 0.135625
C38   C     C_R   0.573008 0.723001 0.276361 -0.153673
C39   C     C_1   0.459671 0.841031 0.161750 -0.058630
C40   C     C_1   0.364544 0.659205 0.338421 -0.058891
C41   C     C_1   0.349172 0.620984 0.376159 -0.188191
C42   C     C_1   0.475054 0.879213 0.123984 -0.191302
C43   C     C_R   0.469043 0.161427 0.089158 -0.041891
C44   C     C_R   0.355703 0.337789 0.411963 -0.115277
C45   C     C_R   0.504387 0.278124 0.093639 -0.160865
C46   C     C_R   0.503567 0.220651 0.063488 -0.169549
C47   C     C_R   0.435897 0.159882 0.145778 -0.213026
C48   C     C_R   0.438438 0.217908 0.177811 0.086136
C49   C     C_R   0.473077 0.277313 0.150258 0.139824
C50   C     C_R   0.409640 0.219176 0.235943 0.054132
C51   C     C_R   0.415649 0.279862 0.265190 0.071978
C52   C     C_R   0.450075 0.337195 0.235313 -0.186590
C53   C     C_R   0.477894 0.335739 0.179213 -0.203191
C54   C     C_R   0.375619 0.161834 0.265830 -0.182755
C55   C     C_R   0.348135 0.163293 0.321942 -0.171217
C56   C     C_R   0.352686 0.221743 0.350891 0.080363
C57   C     C_R   0.386724 0.281120 0.323326 0.096460
C58   C     C_R   0.321813 0.220888 0.407510 -0.167326
C59   C     C_R   0.322031 0.278288 0.437907 0.258634
C60   C     C_R   0.388591 0.339128 0.355311 -0.266106
H16   H     H_    0.504337 0.381142 0.158204 0.123743
H17   H     H_    0.411942 0.386305 0.337624 0.105355
H18   H     H_    0.322154 0.117866 0.342965 0.131763
H19   H     H_    0.531417 0.323460 0.072632 0.113429
H20   H     H_    0.530681 0.222318 0.019953 0.108905
H21   H     H_    0.411753 0.112689 0.163340 0.093642
H22   H     H_    0.457063 0.384518 0.254064 0.123901
H23   H     H_    0.369006 0.114501 0.247077 0.123301
H24   H     H_    0.295641 0.175323 0.428274 0.158181
O11   O     O_R   0.323320 0.942780 0.056240 -0.537160
O12   O     O_R   0.647300 0.077050 0.046060 -0.538803
O13   O     O_R   0.813840 0.057330 0.943840 -0.530114
C61   C     C_R   0.477794 0.100951 0.056781 0.694181
O14   O     O_R   0.653250 0.944380 0.062400 -0.538075
O15   O     O_R   0.819830 0.923720 0.960300 -0.537094
C62   C     C_R   0.485130 0.924446 0.078297 0.717419
O16   O     O_R   0.317330 0.076390 0.039790 -0.537737
O17   O     O_3   0.483830 0.993470 0.966560 -0.360989
V3    V     V_3+5 0.760140 0.001210 0.006210 1.438977
O18   O     O_R   0.149290 0.922840 0.953850 -0.538296
C63   C     C_R   0.982160 0.898821 0.943267 0.697917
O19   O     O_R   0.143340 0.055500 0.937510 -0.532296
C64   C     C_R   0.973672 0.075433 0.921738 0.724082
V4    V     V_3+5 0.259690 0.998600 0.993650 1.449442
O20   O     O_3   0.986130 0.006520 0.033440 -0.370296
Br1   Br    Br    0.556336 0.142332 0.773129 -0.492983
Br2   Br    Br    0.515541 0.248206 0.669138 -0.420433
Br3   Br    Br    0.274903 0.273410 0.515035 -0.455341
O21   O     O_3   0.586819 0.873598 0.669569 -0.547678
C65   C     C_3   0.389954 0.857599 0.674465 0.098126
H25   H     H_    0.361195 0.804614 0.669116 0.102140
H26   H     H_    0.310316 0.883042 0.641220 0.164415
C66   C     C_3   0.308154 0.881391 0.728868 -0.690476
H27   H     H_    0.348296 0.932822 0.736174 0.255854
H28   H     H_    0.149041 0.878303 0.728038 0.196973
H29   H     H_    0.363212 0.850639 0.762867 0.202740

loop_
_geom_bond_atom_site_label_1
_geom_bond_atom_site_label_2
_ccdc_geom_bond_type
C13   C19   A    
C18   C20   A    
C4    C6    S    
O2    C1    A    
C7    C8    A    
C57   C60   A    
C45   C49   A    
C65   H26   S    
C54   C55   A    
V3    O20   S    
C50   C51   A    
C66   H27   S    
C14   C15   A    
C36   H15   S    
C16   C17   A    
O19   V4    S    
C34   C39   S    
O5    C3    A    
C18   C19   A    
C54   H23   S    
C58   H24   S    
C33   C34   A    
C39   C42   T    
V2    O10   S    
C61   O16   A    
C5    C8    A    
O21   C65   S    
C31   C64   S    
C35   C36   A    
C36   C37   A    
O8    V2    S    
V4    O20   S    
C66   H28   S    
C43   C47   A    
O18   C63   A    
O15   C63   A    
O1    V2    S    
C11   C15   A    
O7    V1    S    
C29   C32   T    
C1    O6    A    
C26   C27   A    
O17   V4    S    
C23   Br2   S    
C34   C35   A    
O14   C62   A    
O9    C4    A    
C47   H21   S    
C43   C61   S    
C42   C62   S    
C25   C26   A    
C27   C30   S    
C47   C48   A    
C40   C41   T    
C37   C40   S    
C49   C53   A    
C12   C13   A    
C52   H22   S    
C65   C66   S    
C1    C41   S    
C8    H5    S    
C51   C52   A    
C24   C29   S    
C15   H1    S    
C13   C14   A    
C58   C59   A    
O13   C64   A    
C21   H3    S    
C35   H14   S    
C7    C11   A    
C48   C49   A    
C17   C18   A    
C7    H4    S    
C51   C57   A    
C44   C59   A    
C48   C50   A    
C56   C57   A    
C50   C54   A    
C43   C46   A    
C27   C28   A    
C19   C22   A    
C28   Br1   S    
C6    C22   A    
O11   C62   A    
O3    C4    A    
C44   C60   A    
C23   C28   A    
C26   H11   S    
C56   C58   A    
C17   O21   S    
O6    V2    S    
O12   C61   A    
O9    V2    S    
C10   C12   A    
C5    C63   S    
O2    V1    S    
C23   C24   A    
O4    C2    A    
O14   V3    S    
C45   H19   S    
O13   V3    S    
C25   H10   S    
O1    C2    A    
O18   V4    S    
C12   C16   A    
C46   H20   S    
C33   C38   A    
C45   C46   A    
O12   V3    S    
O5    V1    S    
O16   V4    S    
O8    C3    A    
C66   H29   S    
C30   C31   T    
O17   V3    S    
C65   H25   S    
C55   H18   S    
C20   C21   A    
C60   H17   S    
O7    V2    S    
O4    V1    S    
C53   H16   S    
O3    V1    S    
V1    O10   S    
O19   C64   A    
C37   C38   A    
C2    C44   S    
C33   H13   S    
C9    H6    S    
O11   V4    S    
C16   H8    S    
C20   H9    S    
O15   V3    S    
C22   H2    S    
C6    C21   A    
C5    C9    A    
C3    C32   S    
C52   C53   A    
C24   C25   A    
C55   C56   A    
C10   C11   A    
C59   Br3   S    
C9    C10   A    
H12   C38   S    
C14   H7    S    
