data_mof_unit_29541.cif
_audit_creation_date              2012-12-10T17:26:16-0500
_audit_creation_method            fapswitch 2.2
_symmetry_space_group_name_H-M    P1
_symmetry_Int_Tables_number       1
_space_group_crystal_system       triclinic
_cell_length_a                    10.12992
_cell_length_b                    10.892084
_cell_length_c                    27.624927
_cell_angle_alpha                 89.86616
_cell_angle_beta                  81.545392
_cell_angle_gamma                 95.173504
_cell_volume                      3002.24007705

loop_
_atom_site_label
_atom_site_type_symbol
_atom_type_description
_atom_site_fract_x
_atom_site_fract_y
_atom_site_fract_z
_atom_type_partial_charge
C1    C     C_R   0.556064 0.732377 0.497498 0.952403
C2    C     C_R   0.500982 0.642375 0.126167 -0.052564
C3    C     C_R   0.505194 0.509956 0.645925 -0.296837
C4    C     C_R   0.500113 0.504030 0.352919 -0.289222
C5    C     C_R   0.507781 0.645717 0.024375 0.025825
C6    C     C_R   0.572344 0.437306 0.970677 0.046555
C7    C     C_R   0.544222 0.427492 0.022162 -0.096227
C8    C     C_R   0.483078 0.638664 0.975319 -0.088804
C9    C     C_R   0.522170 0.535042 0.048920 -0.024582
C10   C     C_R   0.525537 0.537398 0.947595 -0.014901
C11   C     C_R   0.519221 0.757208 0.049872 0.241702
C12   C     C_R   0.443972 0.267650 0.504047 0.943965
C13   C     C_R   0.645843 0.353187 0.941458 0.226605
C14   C     C_R   0.509713 0.754819 0.100660 -0.216796
C15   C     C_R   0.646833 0.354324 0.891083 -0.209542
C16   C     C_R   0.501340 0.502315 0.593680 0.973229
C17   C     C_R   0.499446 0.499430 0.405978 0.993357
C18   C     C_R   0.407583 0.722553 0.954573 0.413166
C19   C     C_R   0.520824 0.312873 0.047241 0.442581
C20   C     C_2   0.587850 0.863892 0.499052 -0.313821
C21   C     C_2   0.412301 0.136120 0.508843 -0.357098
C22   C     C_2   0.487211 0.934310 0.510607 -0.136862
C23   C     C_R   0.520834 0.535374 0.897012 -0.098038
C24   C     C_2   0.512897 0.065622 0.509496 -0.138126
C25   C     C_2   0.929599 0.518017 0.499756 -0.039201
C26   C     C_2   0.074231 0.496317 0.494157 -0.022249
C27   C     C_R   0.455883 0.619120 0.823814 0.595772
C28   C     C_R   0.518057 0.423158 0.175895 0.640771
C29   C     C_R   0.576003 0.439240 0.818806 0.628171
C30   C     C_R   0.487251 0.638173 0.177092 0.608720
C31   C     C_R   0.416344 0.439443 0.728452 0.395998
C32   C     C_R   0.605574 0.581837 0.272415 0.380734
C33   C     C_R   0.416784 0.429536 0.677998 0.306719
C34   C     C_R   0.513045 0.531917 0.100143 -0.096682
C35   C     C_R   0.610791 0.565771 0.322618 0.276427
C36   C     C_R   0.596306 0.597600 0.663903 0.062401
C37   C     C_R   0.390801 0.447941 0.332331 0.060214
C38   C     C_R   0.602289 0.600781 0.714255 0.164370
C39   C     C_R   0.385387 0.465157 0.282428 0.147683
C40   C     C_R   0.511619 0.522077 0.746175 0.042690
C41   C     C_R   0.494390 0.528951 0.252604 0.077413
C42   C     C_3   0.825709 0.537827 0.332401 0.158692
C43   C     C_3   0.945142 0.590556 0.355701 -0.740070
C44   C     C_3   0.384445 0.233606 0.651364 0.129356
C45   C     C_R   0.457954 0.626951 0.874687 -0.155591
C46   C     C_3   0.280890 0.137384 0.636042 -0.725844
C47   C     C_3   0.732120 0.765508 0.251229 0.161473
C48   C     C_3   0.801245 0.834406 0.205100 -0.743081
C49   C     C_3   0.205390 0.410974 0.770480 0.118444
C50   C     C_3   0.115769 0.334040 0.810526 -0.730058
C51   C     C_3   0.215442 0.745342 0.006754 0.092963
C52   C     C_3   0.140118 0.836729 0.039121 -0.740725
C53   C     C_3   0.355378 0.196192 0.015672 0.092583
C54   C     C_3   0.340523 0.138650 0.966432 -0.677126
C55   C     C_R   0.515881 0.418970 0.125110 -0.168739
C56   C     C_R   0.398382 0.719885 0.904298 0.155229
C57   C     C_R   0.512422 0.307626 0.098456 0.150320
C58   C     C_R   0.580004 0.441239 0.868936 -0.058948
H1    H     H_    0.308865 0.096943 0.511382 0.172049
H2    H     H_    0.794055 0.443257 0.347701 0.179543
H3    H     H_    0.914994 0.601012 0.395644 0.263048
H4    H     H_    0.026340 0.527817 0.349690 0.239978
H5    H     H_    0.983543 0.682202 0.339102 0.250058
H6    H     H_    0.419065 0.198313 0.684827 0.191262
H7    H     H_    0.470795 0.245730 0.621215 0.123912
H8    H     H_    0.327493 0.050342 0.626763 0.218580
H9    H     H_    0.196520 0.118763 0.666439 0.271086
H10   H     H_    0.241385 0.171052 0.603512 0.254030
H11   H     H_    0.798097 0.780163 0.279824 0.187994
H12   H     H_    0.691351 0.903076 0.490657 0.173848
H13   H     H_    0.636006 0.806568 0.263542 0.179147
H14   H     H_    0.817739 0.934239 0.212707 0.227695
H15   H     H_    0.899665 0.798617 0.192675 0.253653
H16   H     H_    0.738189 0.822339 0.175494 0.267360
H17   H     H_    0.155070 0.408962 0.737240 0.199155
H18   H     H_    0.216796 0.507579 0.783488 0.166019
H19   H     H_    0.162786 0.335778 0.844436 0.251218
H20   H     H_    0.016870 0.372038 0.818517 0.220668
H21   H     H_    0.100404 0.237187 0.798552 0.275595
H22   H     H_    0.232464 0.666867 0.030310 0.139651
H23   H     H_    0.113651 0.433028 0.466905 0.183495
H24   H     H_    0.151821 0.710637 0.979154 0.160400
H25   H     H_    0.201067 0.872081 0.067291 0.260748
H26   H     H_    0.043573 0.790737 0.057678 0.214066
H27   H     H_    0.119363 0.915412 0.016604 0.261726
H28   H     H_    0.309688 0.285981 0.016701 0.112177
H29   H     H_    0.297094 0.135175 0.045050 0.182450
H30   H     H_    0.384960 0.049171 0.963449 0.316993
H31   H     H_    0.232714 0.122916 0.962626 0.211749
H32   H     H_    0.391925 0.201092 0.936308 0.243209
H33   H     H_    0.894299 0.595841 0.520466 0.181142
H34   H     H_    0.516584 0.841166 0.119818 0.219409
H35   H     H_    0.702688 0.288485 0.869240 0.214290
H36   H     H_    0.616541 0.104364 0.507004 0.214017
H37   H     H_    0.383443 0.895575 0.518959 0.205707
H38   H     H_    0.858985 0.531578 0.292341 0.187505
I1    I     I_    0.714919 0.732449 0.615718 -0.267284
I2    I     I_    0.788712 0.247774 0.967524 -0.277682
I3    I     I_    0.248221 0.317709 0.373963 -0.281134
I4    I     I_    0.101606 0.673848 0.575371 -0.218772
I5    I     I_    0.885851 0.285005 0.444928 -0.282673
I6    I     I_    0.748466 0.721214 0.743457 -0.191309
I7    I     I_    0.212736 0.397877 0.250793 -0.271184
I8    I     I_    0.290016 0.861263 0.878533 -0.204259
I9    I     I_    0.477012 0.127643 0.131770 -0.191612
I10   I     I_    0.600396 0.925191 0.013847 -0.203773
N1    N     N_R   0.514454 0.526872 0.797621 -0.318318
N2    N     N_R   0.498498 0.530268 0.200656 -0.311393
N3    N     N_2   0.842700 0.448890 0.480020 -0.053939
N4    N     N_2   0.157300 0.551110 0.519980 -0.043441
O1    O     O_R   0.431060 0.692470 0.504020 -0.609436
O2    O     O_2   0.541958 0.322896 0.200701 -0.500455
O3    O     O_2   0.463070 0.740739 0.202959 -0.561937
O4    O     O_2   0.633317 0.350742 0.791161 -0.536225
O5    O     O_3   0.720865 0.615569 0.342656 -0.615342
O6    O     O_3   0.325461 0.345480 0.660354 -0.587044
O7    O     O_3   0.713359 0.638472 0.240951 -0.615443
O8    O     O_3   0.330314 0.361150 0.760647 -0.584220
O9    O     O_3   0.337804 0.805670 0.983631 -0.597407
O10   O     O_3   0.492394 0.206535 0.021960 -0.561038
O11   O     O_R   0.568940 0.307530 0.495980 -0.600002
O12   O     O_R   0.651120 0.659650 0.491200 -0.613516
O13   O     O_R   0.348880 0.340350 0.508800 -0.609002
O14   O     O_R   0.389980 0.516390 0.577660 -0.558392
O15   O     O_R   0.610020 0.483610 0.422340 -0.577871
O16   O     O_R   0.610040 0.483570 0.564830 -0.616672
O17   O     O_R   0.389960 0.516430 0.435170 -0.618418
O18   O     O_2   0.397462 0.702197 0.799992 -0.515621
Zn1   Zn    Zn3+2 0.353060 0.521910 0.508560 1.031231
Zn2   Zn    Zn3+2 0.646940 0.478090 0.491440 1.014149

loop_
_geom_bond_atom_site_label_1
_geom_bond_atom_site_label_2
_ccdc_geom_bond_type
C23   C58   A    
C57   I9    S    
C29   O4    S    
I4    N4    S    
C23   C45   A    
C41   N2    S    
C22   H37   S    
O11   Zn2   S    
C17   O15   A    
C50   H21   S    
C53   O10   S    
C43   H5    S    
C39   C41   A    
C53   C54   S    
C44   H6    S    
C46   H10   S    
C42   H38   S    
C52   H27   S    
C38   C40   A    
C21   H1    S    
C11   C14   A    
O16   Zn2   S    
I5    N3    S    
C31   C40   A    
N4    Zn1   S    
C13   I2    S    
C52   H26   S    
C1    O12   A    
C47   H11   S    
C51   H22   S    
O15   Zn2   S    
O1    Zn1   S    
C12   O11   A    
C49   O8    S    
C45   C56   A    
C1    C20   S    
C51   O9    S    
C32   C41   A    
C49   H17   S    
C35   O5    S    
C53   H28   S    
C32   O7    S    
C25   N3    D    
C38   I6    S    
C27   C45   A    
C4    C35   A    
C34   C55   A    
C54   H32   S    
O13   Zn1   S    
C20   H12   S    
C44   H7    S    
C48   H14   S    
C50   H20   S    
C28   C55   A    
C44   C46   S    
C25   H33   S    
C51   C52   S    
C32   C35   A    
C48   H16   S    
C56   I8    S    
C54   H31   S    
C42   H2    S    
C17   O17   A    
C25   C26   S    
C12   C21   S    
C19   C57   A    
C52   H25   S    
O17   Zn1   S    
C31   O8    S    
C5    C9    A    
C24   H36   S    
C27   O18   S    
C47   C48   S    
C27   N1    A    
C47   H13   S    
C11   I10   S    
C31   C33   A    
C49   H18   S    
C53   H29   S    
C4    C37   A    
C51   H24   S    
C14   H34   S    
C36   I1    S    
C40   N1    S    
C4    C17   S    
C20   C22   D    
C19   O10   S    
C26   H23   S    
C7    C19   A    
C55   C57   A    
C5    C11   A    
C9    C34   A    
C15   C58   A    
C22   C24   S    
C42   C43   S    
C50   H19   S    
C37   I3    S    
C43   H3    S    
C7    C9    A    
C26   N4    D    
C33   O6    S    
C30   N2    A    
C48   H15   S    
C15   H35   S    
C5    C8    A    
C46   H8    S    
C39   I7    S    
C6    C7    A    
C18   C56   A    
C10   C23   A    
C2    C30   A    
C13   C15   A    
C16   O14   A    
C46   H9    S    
C37   C39   A    
C1    O1    A    
C6    C13   A    
C54   H30   S    
C2    C34   A    
C12   O13   A    
C3    C36   A    
C28   N2    A    
C36   C38   A    
O12   Zn2   S    
O14   Zn1   S    
C2    C14   A    
C8    C18   A    
C6    C10   A    
C42   O5    S    
C47   O7    S    
C29   C58   A    
C44   O6    S    
C8    C10   A    
C49   C50   S    
C21   C24   D    
N3    Zn2   S    
C3    C33   A    
C29   N1    A    
C16   O16   A    
C18   O9    S    
C28   O2    S    
C3    C16   S    
C43   H4    S    
C30   O3    S    
