data_mof_unit_20121.cif
_audit_creation_date              2012-12-10T17:56:19-0500
_audit_creation_method            fapswitch 2.2
_symmetry_space_group_name_H-M    P1
_symmetry_Int_Tables_number       1
_space_group_crystal_system       triclinic
_cell_length_a                    13.091124
_cell_length_b                    10.827919
_cell_length_c                    9.593749
_cell_angle_alpha                 90.019246
_cell_angle_beta                  95.898657
_cell_angle_gamma                 90.215718
_cell_volume                      1352.70001156

loop_
_atom_site_label
_atom_site_type_symbol
_atom_type_description
_atom_site_fract_x
_atom_site_fract_y
_atom_site_fract_z
_atom_type_partial_charge
C1    C     C_R   0.499910 0.262308 0.499938 0.796736
C2    C     C_R   0.500046 0.737689 0.500054 0.798531
C3    C     C_R   0.500001 0.871663 0.500030 -0.020181
C4    C     C_R   0.499868 0.128324 0.499947 -0.023744
C5    C     C_R   0.451029 0.408985 0.067176 -0.007108
C6    C     C_R   0.548927 0.591019 0.932807 -0.011563
C7    C     C_R   0.450776 0.409217 0.918914 -0.012891
C8    C     C_R   0.549263 0.590746 0.081077 -0.007673
C9    C     C_R   0.300695 0.504300 0.473304 0.817010
C10   C     C_R   0.699478 0.499745 0.526742 0.811849
C11   C     C_R   0.812755 0.501105 0.544419 -0.137259
C12   C     C_R   0.187697 0.513251 0.455535 -0.139289
C13   C     C_R   0.023294 0.530225 0.311613 -0.172966
C14   C     C_R   0.977660 0.505487 0.687163 -0.070205
C15   C     C_R   0.131388 0.534362 0.323880 -0.037509
C16   C     C_R   0.870171 0.498245 0.677840 -0.104178
C17   C     C_R   0.135576 0.501643 0.574062 -0.205088
C18   C     C_R   0.864147 0.511924 0.424342 -0.238291
C19   C     C_R   0.028446 0.507290 0.565081 0.099204
C20   C     C_R   0.971582 0.514829 0.432530 0.068157
C21   C     C_R   0.498527 0.063818 0.373126 -0.163288
C22   C     C_R   0.501311 0.936165 0.626846 -0.158533
C23   C     C_R   0.498604 0.936039 0.373167 -0.152009
C24   C     C_R   0.501221 0.063942 0.626803 -0.157901
Cu1   Cu    Cu3+1 0.500000 0.500020 0.640660 0.985890
Cu2   Cu    Cu3+1 0.500000 0.499980 0.359340 0.988036
H1    H     H_    0.819173 0.519842 0.323823 0.179427
H2    H     H_    0.179407 0.486978 0.674601 0.168763
H3    H     H_    0.497384 0.111771 0.273902 0.153882
H4    H     H_    0.502459 0.888210 0.726071 0.154458
H5    H     H_    0.497529 0.887984 0.273970 0.157243
H6    H     H_    0.502280 0.111993 0.726000 0.156309
H7    H     H_    0.411146 0.336075 0.116692 0.144539
H8    H     H_    0.588225 0.664332 0.883159 0.136536
H9    H     H_    0.410700 0.336482 0.858094 0.126885
H10   H     H_    0.589255 0.663560 0.141868 0.122959
N1    N     N_R   0.500030 0.500030 0.852080 -0.158726
N2    N     N_R   0.499970 0.499970 0.147920 -0.160556
O1    O     O_R   0.499990 0.319660 0.618740 -0.587237
O2    O     O_R   0.500010 0.680340 0.381260 -0.587377
O3    O     O_R   0.499990 0.319630 0.381170 -0.592520
O4    O     O_R   0.500010 0.680370 0.618830 -0.593473
O5    O     O_R   0.349000 0.499990 0.599490 -0.585423
O6    O     O_R   0.651000 0.500010 0.400510 -0.581876
O7    O     O_R   0.348990 0.499960 0.361920 -0.559227
O8    O     O_R   0.651010 0.500040 0.638080 -0.568195
C25   C     C_2   0.819725 0.494690 0.808611 0.974204
O9    O     O_2   0.790139 0.396135 0.852280 -0.537270
O10   O     O_R   0.804186 0.604753 0.879246 -0.720963
H11   H     H_    0.768466 0.591188 0.966818 0.340020
C26   C     C_2   0.184899 0.562386 0.199730 0.891850
O11   O     O_2   0.214534 0.667742 0.181089 -0.584880
O12   O     O_R   0.208090 0.466684 0.110794 -0.728990
H12   H     H_    0.247705 0.496529 0.031833 0.322395
C27   C     C_2   0.964387 0.542334 0.172379 0.881389
O13   O     O_2   0.965453 0.640033 0.109200 -0.511185
O14   O     O_R   0.905687 0.443622 0.114085 -0.697915
H13   H     H_    0.912771 0.366392 0.173896 0.317446
C28   C     C_2   0.036633 0.527803 0.823400 0.868811
O15   O     O_2   0.046094 0.445850 0.910959 -0.536460
O16   O     O_R   0.083928 0.642780 0.847246 -0.717766
H14   H     H_    0.123595 0.649997 0.942483 0.367187

loop_
_geom_bond_atom_site_label_1
_geom_bond_atom_site_label_2
_ccdc_geom_bond_type
Cu1   O4    S    
C10   O8    A    
C26   O12   S    
C27   O13   D    
C24   H6    S    
C11   C18   A    
C9    O7    A    
C14   C28   S    
C15   C26   S    
C11   C16   A    
C3    C23   A    
C19   C20   A    
Cu2   O7    S    
C12   C15   A    
C1    C4    S    
Cu1   O5    S    
C22   C24   A    
C13   C15   A    
C2    C3    S    
C7    N1    A    
C6    N1    A    
Cu2   O6    S    
C28   O15   D    
C25   O10   S    
O12   H12   S    
Cu1   O1    S    
C12   C17   A    
C4    C21   A    
Cu2   O2    S    
O14   H13   S    
C8    N2    A    
C2    O4    A    
C14   C19   A    
C16   C25   S    
C1    O3    A    
C17   C19   A    
C18   C20   A    
C27   O14   S    
C21   C23   A    
O16   H14   S    
C4    C24   A    
C9    C12   S    
C14   C16   A    
C9    O5    A    
C28   O16   S    
C10   C11   S    
C1    O1    A    
C10   O6    A    
C26   O11   D    
C25   O9    D    
C2    O2    A    
O10   H11   S    
C8    H10   S    
C21   H3    S    
C5    C7    A    
Cu2   N2    S    
C3    C22   A    
C6    C8    A    
C22   H4    S    
C13   C20   A    
Cu1   N1    S    
Cu1   Cu2   S    
C5    N2    A    
C17   H2    S    
C7    H9    S    
Cu1   O8    S    
C18   H1    S    
C6    H8    S    
Cu2   O3    S    
C5    H7    S    
C13   C27   S    
C23   H5    S    
