data_mof_unit_27469.cif
_audit_creation_date              2012-12-11T17:39:36-0500
_audit_creation_method            fapswitch 2.2
_symmetry_space_group_name_H-M    P1
_symmetry_Int_Tables_number       1
_space_group_crystal_system       triclinic
_cell_length_a                    15.116289
_cell_length_b                    15.139388
_cell_length_c                    14.993474
_cell_angle_alpha                 108.689084
_cell_angle_beta                  110.004843
_cell_angle_gamma                 110.155319
_cell_volume                      2626.71461549

loop_
_atom_site_label
_atom_site_type_symbol
_atom_type_description
_atom_site_fract_x
_atom_site_fract_y
_atom_site_fract_z
_atom_type_partial_charge
C1    C     C_R   0.909425 0.972760 0.722027 -0.092715
C2    C     C_R   0.910607 0.702303 0.505031 0.006096
C3    C     C_R   0.737657 0.778050 0.185881 -0.122772
C4    C     C_R   0.091659 0.313975 0.560414 -0.143219
C5    C     C_R   0.256111 0.942683 0.531900 -0.142951
C6    C     C_R   0.700349 0.675526 0.175660 0.133872
C7    C     C_R   0.280270 0.960135 0.455360 0.052168
C8    C     C_R   0.001920 0.696337 0.557621 0.036024
C9    C     C_R   0.995057 0.060106 0.194067 0.090425
C10   C     C_R   0.525050 0.627273 0.429153 -0.312528
C11   C     C_R   0.484277 0.684531 0.387792 -0.231923
C12   C     C_R   0.998840 0.321522 0.544461 0.047836
C13   C     C_R   0.473482 0.764799 0.454615 0.149159
C14   C     C_R   0.495637 0.780987 0.559299 -0.269202
C15   C     C_R   0.535982 0.723996 0.600085 -0.274084
C16   C     C_R   0.302772 0.205982 0.797697 -0.151044
C17   C     C_R   0.553872 0.649352 0.536667 0.658592
C18   C     C_R   0.364610 0.851245 0.424911 -0.250270
C19   C     C_R   0.358366 0.942294 0.429598 0.076301
C20   C     C_R   0.435323 0.021428 0.422670 0.049780
C21   C     C_R   0.513610 0.004982 0.407309 -0.238782
C22   C     C_R   0.528967 0.921581 0.416234 0.059436
C23   C     C_R   0.366444 0.297328 0.799252 0.140878
C24   C     C_R   0.452832 0.842339 0.424174 0.041260
C25   C     C_R   0.424817 0.152682 0.358830 -0.136917
C26   C     C_R   0.413126 0.242613 0.370770 -0.077006
C27   C     C_R   0.424554 0.309353 0.468096 -0.036760
C28   C     C_R   0.696628 0.993030 0.402787 -0.157930
C29   C     C_R   0.456750 0.291760 0.556902 -0.071922
C30   C     C_R   0.468890 0.202080 0.545460 -0.167247
C31   C     C_R   0.445958 0.128217 0.443711 0.060148
C32   C     C_R   0.773159 0.188765 0.193233 -0.129261
C33   C     C_R   0.850752 0.279787 0.296201 -0.115549
C34   C     C_R   0.635517 0.936400 0.436781 0.076643
C35   C     C_R   0.819649 0.315747 0.372389 0.110282
C36   C     C_R   0.709318 0.261541 0.343247 -0.184021
C37   C     C_R   0.632048 0.169313 0.240367 -0.130776
C38   C     C_R   0.663878 0.132910 0.165344 -0.094648
C39   C     C_R   0.905808 0.506399 0.493220 -0.221049
C40   C     C_R   0.302966 0.298070 0.708126 -0.134489
C41   C     C_R   0.998643 0.606692 0.575134 0.061978
C42   C     C_R   0.087908 0.613569 0.656250 0.041158
C43   C     C_R   0.080961 0.517675 0.650583 -0.237088
C44   C     C_R   0.991689 0.417663 0.561820 0.069789
C45   C     C_R   0.734922 0.686518 0.278235 -0.154504
C46   C     C_R   0.903228 0.412304 0.481625 0.007941
C47   C     C_R   0.284291 0.726052 0.719661 -0.157902
C48   C     C_R   0.377526 0.828005 0.772493 -0.144863
C49   C     C_R   0.383688 0.919709 0.842457 -0.169452
C50   C     C_R   0.296308 0.909550 0.859467 -0.037282
C51   C     C_R   0.202784 0.807479 0.807591 -0.113295
C52   C     C_R   0.699134 0.909225 0.500440 -0.148039
C53   C     C_R   0.194697 0.715489 0.734088 0.071510
C54   C     C_2   0.540475 0.461357 0.880470 -0.118489
C55   C     C_2   0.482888 0.369531 0.877145 -0.211771
C56   C     C_R   0.240671 0.023034 0.429852 -0.102854
C57   C     C_2   0.631794 0.555966 0.985360 -0.108114
C58   C     C_2   0.626827 0.572806 0.076064 -0.205573
C59   C     C_R   0.382210 0.211207 0.097006 -0.311201
C60   C     C_R   0.274023 0.158855 0.074200 0.552083
C61   C     C_R   0.211012 0.209208 0.056056 -0.113314
C62   C     C_R   0.257980 0.310534 0.062857 -0.211194
C63   C     C_R   0.366099 0.361817 0.086854 -0.082034
C64   C     C_R   0.909117 0.218558 0.479643 -0.106445
C65   C     C_R   0.428065 0.312274 0.103844 -0.168304
C66   C     C_R   0.087368 0.164353 0.124498 -0.151427
C67   C     C_R   0.091880 0.787357 0.583774 -0.154559
C68   C     C_R   0.989592 0.089312 0.108315 0.063326
C69   C     C_R   0.893204 0.033837 0.004702 0.010926
C70   C     C_R   0.900551 0.052454 0.922171 -0.237078
C71   C     C_R   0.002425 0.095705 0.929041 0.073530
C72   C     C_R   0.097972 0.159184 0.034635 0.118772
C73   C     C_R   0.794377 0.835472 0.930982 -0.069654
C74   C     C_R   0.700657 0.738161 0.889979 -0.040184
C75   C     C_R   0.607826 0.737926 0.888949 -0.126575
C76   C     C_R   0.092138 0.064984 0.811923 -0.063746
C77   C     C_R   0.607535 0.834991 0.924873 -0.155159
C78   C     C_R   0.907411 0.002931 0.201304 -0.167013
C79   C     C_R   0.698327 0.931591 0.958063 -0.205812
C80   C     C_R   0.794218 0.933059 0.966492 0.095100
C81   C     C_R   0.002552 0.050903 0.825405 0.082177
C82   C     C_R   0.088702 0.093636 0.289117 -0.060261
H1    H     H_    0.824929 0.938963 0.699808 0.102046
H2    H     H_    0.175847 0.379226 0.605888 0.102000
H3    H     H_    0.488293 0.842912 0.612048 0.144131
H4    H     H_    0.557851 0.741636 0.682984 0.181578
H5    H     H_    0.306441 0.792293 0.432606 0.136654
H6    H     H_    0.572773 0.068532 0.405098 0.126939
H7    H     H_    0.411836 0.098949 0.282002 0.188443
H8    H     H_    0.392202 0.259089 0.303855 0.141417
H9    H     H_    0.409416 0.375252 0.474527 0.161985
H10   H     H_    0.469578 0.345827 0.633609 0.137383
H11   H     H_    0.488542 0.186092 0.613007 0.128222
H12   H     H_    0.241515 0.047980 0.370371 0.150653
H13   H     H_    0.603844 0.061703 0.085707 0.109847
H14   H     H_    0.332208 0.173538 0.848223 0.101845
H15   H     H_    0.798757 0.162314 0.135835 0.106040
H16   H     H_    0.935276 0.321894 0.317098 0.110856
H17   H     H_    0.683997 0.289160 0.400897 0.134349
H18   H     H_    0.547675 0.125816 0.218941 0.142718
H19   H     H_    0.840693 0.499768 0.426421 0.151845
H20   H     H_    0.149538 0.521074 0.710231 0.130862
H21   H     H_    0.278940 0.656636 0.661727 0.122254
H22   H     H_    0.443978 0.836254 0.757049 0.124952
H23   H     H_    0.176855 0.813420 0.627954 0.132100
H24   H     H_    0.455137 0.998910 0.881598 0.111943
H25   H     H_    0.299333 0.981674 0.908669 0.171550
H26   H     H_    0.667856 0.013947 0.340371 0.109437
H27   H     H_    0.133474 0.801238 0.817192 0.174077
H28   H     H_    0.510422 0.474782 0.812183 0.134977
H29   H     H_    0.517600 0.355259 0.943932 0.139292
H30   H     H_    0.695443 0.618766 0.987192 0.127536
H31   H     H_    0.563945 0.511934 0.077430 0.129500
H32   H     H_    0.511806 0.352141 0.122166 0.132254
H33   H     H_    0.431430 0.173994 0.109556 0.177555
H34   H     H_    0.824635 0.984229 0.156714 0.121735
H35   H     H_    0.210900 0.350014 0.050152 0.139338
H36   H     H_    0.401800 0.440190 0.092443 0.112409
H37   H     H_    0.331030 0.349952 0.676563 0.086552
H38   H     H_    0.160716 0.213855 0.204464 0.112169
H39   H     H_    0.825218 0.011456 0.845420 0.131818
H40   H     H_    0.866545 0.834750 0.933273 0.170517
H41   H     H_    0.700710 0.663130 0.859583 0.168665
H42   H     H_    0.536098 0.662743 0.859977 0.125636
H43   H     H_    0.536872 0.835198 0.926728 0.143020
H44   H     H_    0.694560 0.004795 0.979321 0.113716
H45   H     H_    0.171995 0.152935 0.319494 0.101394
H46   H     H_    0.677381 0.859861 0.535731 0.124620
H47   H     H_    0.825139 0.194339 0.455804 0.115546
H48   H     H_    0.177481 0.118198 0.870750 0.106475
H49   H     H_    0.717048 0.622515 0.298408 0.114922
H50   H     H_    0.825522 0.651448 0.573078 0.200404
H51   H     H_    0.769417 0.693537 0.491589 0.129882
H52   H     H_    0.664603 0.470998 0.545585 0.373586
H53   H     H_    0.270074 0.914213 0.071683 0.377980
H54   H     H_    0.721140 0.797822 0.121112 0.116653
H55   H     H_    0.278895 0.899638 0.571776 0.102843
H56   H     H_    0.538359 0.569518 0.379132 0.183175
H57   H     H_    0.467737 0.671260 0.306985 0.145230
N1    N     N_R   0.941940 0.944580 0.650780 -0.050505
N2    N     N_R   0.204460 0.150250 0.707090 -0.046613
N3    N     N_R   0.794270 0.003240 0.446420 -0.040261
N4    N     N_R   0.204920 0.207570 0.650770 -0.042019
N5    N     N_R   0.793810 0.945920 0.502740 -0.044716
N6    N     N_R   0.943620 0.152590 0.446420 -0.043835
N7    N     N_R   0.055110 0.000900 0.707100 -0.051418
N8    N     N_R   0.795080 0.792430 0.349230 -0.043228
N9    N     N_3   0.807932 0.648421 0.498168 -0.204363
N10   N     N_R   0.206190 0.054080 0.497260 -0.048968
N11   N     N_R   0.056380 0.847410 0.553580 -0.043398
N12   N     N_R   0.944890 0.999100 0.292900 -0.040982
N13   N     N_R   0.058060 0.055420 0.349220 -0.053777
N14   N     N_R   0.943200 0.791100 0.497260 -0.048639
N15   N     N_R   0.795540 0.849750 0.292910 -0.042694
N16   N     N_R   0.205730 0.996760 0.553580 -0.039716
N17   N     N_R   0.056800 0.208900 0.502740 -0.044195
Ni1   Ni    Ni4+2 0.869690 0.869690 0.500000 0.219226
Ni2   Ni    Ni4+2 0.130310 0.130310 0.500000 0.205765
Ni3   Ni    Ni4+2 0.129250 0.998840 0.629170 0.214534
Ni4   Ni    Ni4+2 0.870750 0.001160 0.370830 0.215954
O1    O     O_2   0.736733 0.680472 0.684246 -0.343046
O2    O     O_2   0.564272 0.545991 0.649877 -0.377606
O3    O     O_3   0.621265 0.494776 0.503549 -0.586147
O4    O     O_2   0.190643 0.035356 0.152031 -0.340149
O5    O     O_2   0.115502 0.949348 0.954614 -0.322369
O6    O     O_3   0.308039 0.985901 0.078209 -0.617096
S1    S     S_3+6 0.621037 0.592253 0.597226 -0.129640
S2    S     S_3+6 0.218241 0.029324 0.064004 -0.122563

loop_
_geom_bond_atom_site_label_1
_geom_bond_atom_site_label_2
_ccdc_geom_bond_type
C25   C31   A    
C49   H24   S    
C66   C68   A    
C63   C65   A    
C41   C42   A    
C73   C80   A    
C6    C45   A    
C64   N6    A    
C27   C29   A    
C65   H32   S    
C6    C58   S    
C35   C36   A    
C3    C6    A    
C52   H46   S    
C39   C41   A    
C32   H15   S    
C56   H12   S    
C26   C27   A    
C37   C38   A    
C18   C24   A    
C1    H1    S    
C36   C37   A    
C3    H54   S    
C30   H11   S    
N2    N4    A    
C42   C53   S    
C30   C31   A    
C12   C64   A    
C57   H30   S    
C10   C17   A    
C2    N9    S    
C23   C40   A    
C48   H22   S    
H52   O3    S    
C54   H28   S    
C18   C19   A    
C73   C74   A    
N8    N15   A    
C11   H57   S    
C62   H35   S    
N6    N17   A    
C76   H48   S    
N2    Ni3   S    
C66   C72   A    
C33   H16   S    
C68   C69   A    
N11   N14   A    
C38   H13   S    
C58   H31   S    
N12   N13   A    
C27   H9    S    
C70   C71   A    
C32   C38   A    
C4    C12   A    
C29   C30   A    
N10   Ni2   S    
C9    C82   A    
C47   C53   A    
C74   H41   S    
C21   H6    S    
C76   N7    A    
C59   C60   A    
C51   H27   S    
C66   H38   S    
C13   C14   A    
C67   N11   A    
O6    S2    S    
C61   C62   A    
C7    C56   A    
C44   C46   A    
C78   N12   A    
C39   H19   S    
C77   C79   A    
C22   C34   S    
N13   Ni2   S    
C16   H14   S    
C47   H21   S    
C74   C75   A    
N16   Ni3   S    
C75   H42   S    
H50   N9    S    
O4    S2    D    
C8    C41   S    
C17   S1    S    
N1    N7    A    
C5    C7    A    
C63   H36   S    
C67   H23   S    
N7    Ni3   S    
C25   C26   A    
C5    N16   A    
C60   S2    S    
C3    N15   A    
C79   C80   A    
C13   C24   S    
C60   C61   A    
C51   C53   A    
O3    S1    S    
C43   C44   A    
N15   Ni4   S    
C62   C63   A    
N1    Ni1   S    
C47   C48   A    
C4    H2    S    
C50   C51   A    
H51   N9    S    
C52   N5    A    
C64   H47   S    
C5    H55   S    
C75   C77   A    
O1    S1    D    
C1    N1    A    
C15   H4    S    
C61   C72   S    
C48   C49   A    
C4    N17   A    
C79   H44   S    
C45   H49   S    
C16   C23   A    
C7    C19   S    
C39   C46   A    
C50   H25   S    
C22   C24   A    
C26   H8    S    
C42   C43   A    
N8    Ni1   S    
C77   H43   S    
N4    Ni2   S    
C15   C17   A    
C54   C55   D    
C55   H29   S    
C45   N8    A    
C34   C52   A    
C73   H40   S    
C78   H34   S    
C14   H3    S    
N3    Ni4   S    
C76   C81   A    
C23   C55   S    
O5    S2    D    
C2    N14   A    
C25   H7    S    
C18   H5    S    
N12   Ni4   S    
C19   C20   A    
N17   Ni2   S    
C16   N2    A    
N10   N16   A    
C43   H20   S    
C71   C72   A    
C12   C44   S    
N6    Ni4   S    
C32   C33   A    
C11   C13   A    
C70   H39   S    
C57   C58   D    
C28   H26   S    
C33   C35   A    
H53   O6    S    
C36   H17   S    
N3    N5    A    
C9    C78   A    
C37   H18   S    
N14   Ni1   S    
C69   C70   A    
C82   N13   A    
C82   H45   S    
C9    C68   S    
C10   C11   A    
C28   C34   A    
O2    S1    D    
C40   H37   S    
C28   N3    A    
C20   C21   A    
C8    C67   A    
C59   H33   S    
C49   C50   A    
C40   N4    A    
C2    C8    A    
C56   N10   A    
C14   C15   A    
C69   C80   S    
N11   Ni3   S    
C10   H56   S    
N5    Ni1   S    
C21   C22   A    
C35   C46   S    
C1    C81   A    
C54   C57   S    
C29   H10   S    
C59   C65   A    
C71   C81   S    
C20   C31   S    
