data_mof_unit_34844.cif
_audit_creation_date              2012-12-11T15:06:34-0500
_audit_creation_method            fapswitch 2.2
_symmetry_space_group_name_H-M    P1
_symmetry_Int_Tables_number       1
_space_group_crystal_system       triclinic
_cell_length_a                    7.238502
_cell_length_b                    15.149925
_cell_length_c                    22.38243
_cell_angle_alpha                 90.000023
_cell_angle_beta                  89.999651
_cell_angle_gamma                 89.999984
_cell_volume                      2454.51910326

loop_
_atom_site_label
_atom_site_type_symbol
_atom_type_description
_atom_site_fract_x
_atom_site_fract_y
_atom_site_fract_z
_atom_type_partial_charge
O1    O     O_R   0.390810 0.844810 0.447340 -0.521086
O2    O     O_R   0.109190 0.155190 0.947340 -0.521085
O3    O     O_R   0.890810 0.655190 0.552660 -0.521085
O4    O     O_R   0.609190 0.344810 0.052660 -0.521086
O5    O     O_R   0.720550 0.655820 0.440420 -0.545028
O6    O     O_R   0.779450 0.344180 0.940420 -0.545027
O7    O     O_R   0.220550 0.844180 0.559580 -0.545028
O8    O     O_R   0.279450 0.155820 0.059580 -0.545029
C1    C     C_R   0.553302 0.625550 0.427356 0.669660
C2    C     C_R   0.946698 0.374450 0.927356 0.669661
C3    C     C_R   0.053302 0.874450 0.572644 0.669659
C4    C     C_R   0.446698 0.125550 0.072644 0.669658
O9    O     O_R   0.720530 0.844130 0.440420 -0.538905
O10   O     O_R   0.779470 0.155870 0.940420 -0.538906
O11   O     O_R   0.220530 0.655870 0.559580 -0.538905
O12   O     O_R   0.279470 0.344130 0.059580 -0.538904
O13   O     O_R   0.890830 0.844810 0.552660 -0.511287
O14   O     O_R   0.609170 0.155190 0.052660 -0.511287
O15   O     O_R   0.390830 0.655190 0.447340 -0.511287
O16   O     O_R   0.109170 0.344810 0.947340 -0.511286
C5    C     C_R   0.552511 0.872474 0.425784 0.794443
C6    C     C_R   0.947489 0.127526 0.925784 0.794446
C7    C     C_R   0.052511 0.627526 0.574216 0.794444
C8    C     C_R   0.447489 0.372474 0.074216 0.794440
O17   O     O_3   0.557310 0.749980 0.536820 -0.372795
O18   O     O_3   0.942690 0.250020 0.036820 -0.372795
O19   O     O_3   0.057310 0.750020 0.463180 -0.372795
O20   O     O_3   0.442690 0.249980 0.963180 -0.372795
V1    V     V_3+5 0.832160 0.749980 0.493170 1.580227
V2    V     V_3+5 0.667840 0.250020 0.993170 1.580224
V3    V     V_3+5 0.332160 0.750020 0.506830 1.580223
V4    V     V_3+5 0.167840 0.249980 0.006830 1.580227
C9    C     C_R   0.810632 0.592596 0.859682 -0.061579
C10   C     C_R   0.689373 0.407405 0.359681 -0.061579
C11   C     C_R   0.310634 0.907404 0.140318 -0.061577
C12   C     C_R   0.189362 0.092597 0.640317 -0.061578
H1    H     H_    0.736010 0.651357 0.873151 0.197395
H2    H     H_    0.763997 0.348644 0.373150 0.197396
H3    H     H_    0.236013 0.848642 0.126850 0.197396
H4    H     H_    0.263981 0.151359 0.626849 0.197395
C13   C     C_R   0.944436 0.451357 0.886662 -0.124867
C14   C     C_R   0.555566 0.548642 0.386662 -0.124867
C15   C     C_R   0.444435 0.048642 0.113338 -0.124866
C16   C     C_R   0.055564 0.951358 0.613338 -0.124866
C17   C     C_R   0.124618 0.474554 0.600571 0.611920
C18   C     C_R   0.375376 0.525446 0.100572 0.611920
C19   C     C_R   0.624622 0.025446 0.399428 0.611921
C20   C     C_R   0.875383 0.974553 0.899429 0.611920
C21   C     C_R   0.139300 0.404463 0.640113 -0.128257
C22   C     C_R   0.360693 0.595536 0.140114 -0.128258
C23   C     C_R   0.639306 0.095536 0.359886 -0.128259
C24   C     C_R   0.860701 0.904462 0.859887 -0.128258
C25   C     C_R   0.086161 0.414063 0.699361 -0.179073
C26   C     C_R   0.413834 0.585935 0.199363 -0.179074
C27   C     C_R   0.586167 0.085936 0.300638 -0.179075
C28   C     C_R   0.913838 0.914063 0.800639 -0.179073
C29   C     C_R   0.015802 0.494683 0.721217 0.033045
C30   C     C_R   0.484196 0.505316 0.221218 0.033045
C31   C     C_R   0.515805 0.005316 0.278783 0.033046
C32   C     C_R   0.984197 0.994683 0.778783 0.033046
C33   C     C_R   0.989924 0.566073 0.679850 -0.168983
C34   C     C_R   0.510074 0.433926 0.179850 -0.168985
C35   C     C_R   0.489926 0.933927 0.320150 -0.168982
C36   C     C_R   0.010075 0.066073 0.820150 -0.168981
C37   C     C_R   0.966441 0.505328 0.782836 0.025299
C38   C     C_R   0.533559 0.494671 0.282836 0.025297
C39   C     C_R   0.466442 0.994671 0.217164 0.025297
C40   C     C_R   0.033558 0.005328 0.717164 0.025298
C41   C     C_R   0.868699 0.581935 0.800288 -0.136585
C42   C     C_R   0.631304 0.418065 0.300288 -0.136586
C43   C     C_R   0.368701 0.918064 0.199712 -0.136584
C44   C     C_R   0.131297 0.081936 0.699712 -0.136584
C45   C     C_R   0.831168 0.648160 0.758630 0.584826
C46   C     C_R   0.668835 0.351840 0.258629 0.584829
C47   C     C_R   0.331171 0.851839 0.241370 0.584827
C48   C     C_R   0.168827 0.148161 0.741370 0.584824
C49   C     C_R   0.901850 0.643970 0.700829 0.271344
C50   C     C_R   0.598150 0.356029 0.200829 0.271346
C51   C     C_R   0.401852 0.856029 0.299171 0.271343
C52   C     C_R   0.098148 0.143970 0.799171 0.271340
C53   C     C_R   0.008481 0.441931 0.827699 -0.208079
C54   C     C_R   0.491519 0.558068 0.327699 -0.208077
C55   C     C_R   0.508479 0.058069 0.172301 -0.208075
C56   C     C_R   0.991522 0.941931 0.672302 -0.208077
C57   C     C_R   0.846633 0.528622 0.902843 0.381826
C58   C     C_R   0.653372 0.471378 0.402843 0.381825
C59   C     C_R   0.346633 0.971377 0.097157 0.381825
C60   C     C_R   0.153362 0.028624 0.597156 0.381827
C61   C     C_R   0.049726 0.555495 0.619032 -0.181644
C62   C     C_R   0.450271 0.444504 0.119032 -0.181644
C63   C     C_R   0.549728 0.944505 0.380968 -0.181644
C64   C     C_R   0.950274 0.055495 0.880968 -0.181644
H5    H     H_    0.088397 0.383972 0.817908 0.170515
H6    H     H_    0.411600 0.616027 0.317909 0.170516
H7    H     H_    0.588393 0.116029 0.182092 0.170516
H8    H     H_    0.911609 0.883970 0.682092 0.170514
H9    H     H_    0.095775 0.356173 0.726840 0.207004
H10   H     H_    0.404218 0.643825 0.226842 0.207005
H11   H     H_    0.595785 0.143825 0.273159 0.207004
H12   H     H_    0.904222 0.856173 0.773160 0.207003
H13   H     H_    0.193171 0.341765 0.624727 0.188341
H14   H     H_    0.306820 0.658233 0.124729 0.188342
H15   H     H_    0.693179 0.158233 0.375271 0.188341
H16   H     H_    0.806830 0.841765 0.875273 0.188340
O21   O     O_3   0.782189 0.544278 0.960010 -0.608095
H17   H     H_    0.840255 0.502379 0.988259 0.303421
O22   O     O_3   0.717817 0.455722 0.460009 -0.608094
H18   H     H_    0.659753 0.497622 0.488258 0.303421
O23   O     O_3   0.282191 0.955720 0.039990 -0.608094
H19   H     H_    0.340248 0.997622 0.011742 0.303421
O24   O     O_3   0.217803 0.044281 0.539990 -0.608094
H20   H     H_    0.159745 0.002378 0.511741 0.303421
F1    F     F_    0.729294 0.719622 0.774668 -0.695652
F2    F     F_    0.770710 0.280379 0.274667 -0.695652
F3    F     F_    0.229298 0.780377 0.225332 -0.695654
F4    F     F_    0.270699 0.219623 0.725331 -0.695654
F5    F     F_    0.182107 0.463009 0.543304 -0.665558
F6    F     F_    0.317887 0.536990 0.043305 -0.665559
F7    F     F_    0.682110 0.036990 0.456695 -0.665559
F8    F     F_    0.817896 0.963009 0.956697 -0.665558
O25   O     O_3   0.880251 0.717490 0.665983 -0.617742
H21   H     H_    0.007399 0.738474 0.657725 0.245949
O26   O     O_3   0.619747 0.282509 0.165983 -0.617742
H22   H     H_    0.492598 0.261527 0.157724 0.245950
O27   O     O_3   0.380253 0.782510 0.334018 -0.617742
H23   H     H_    0.507401 0.761525 0.342275 0.245950
O28   O     O_3   0.119749 0.217489 0.834018 -0.617741
H24   H     H_    0.992600 0.238476 0.842274 0.245949

loop_
_geom_bond_atom_site_label_1
_geom_bond_atom_site_label_2
_ccdc_geom_bond_type
O17   V3    S    
C30   C34   A    
O1    C5    A    
C54   H6    S    
C27   C31   A    
O19   V1    S    
O13   V1    S    
O3    C7    A    
C58   O22   S    
C14   C54   A    
C44   C48   A    
O15   V3    S    
O26   H22   S    
C20   F8    S    
C35   C51   A    
C12   C60   A    
C39   C55   A    
C30   C38   A    
C1    C14   S    
C22   C26   A    
O9    V1    S    
C4    C15   S    
C21   H13   S    
O4    C8    A    
C21   C25   A    
C23   H15   S    
C46   F2    S    
C15   C55   A    
O1    V3    S    
C45   F1    S    
C18   F6    S    
O2    V4    S    
C10   C58   A    
O3    V1    S    
C9    C57   A    
C42   C46   A    
C31   C39   A    
C60   O24   S    
C11   C59   A    
C1    O15   A    
C24   H16   S    
O24   H20   S    
C2    O16   A    
O2    C6    A    
O22   H18   S    
C7    C61   S    
C41   C45   A    
C14   C58   A    
C17   C61   A    
C10   C42   A    
C39   C43   A    
C9    C41   A    
O11   C7    A    
C51   O27   S    
C55   H7    S    
O12   C8    A    
C2    C13   S    
C36   C52   A    
C27   H11   S    
O10   V2    S    
O16   V4    S    
C57   O21   S    
C33   C61   A    
O7    C3    A    
O5    V1    S    
O7    V3    S    
C40   C56   A    
C12   H4    S    
C33   C49   A    
C25   C29   A    
O18   V4    S    
C19   C23   A    
C25   H9    S    
C9    H1    S    
C28   C32   A    
C40   C44   A    
O8    V4    S    
C11   H3    S    
O5    C1    A    
C38   C54   A    
C53   H5    S    
C37   C53   A    
C17   C21   A    
O8    C4    A    
C13   C53   A    
C26   C30   A    
O9    C5    A    
C3    C16   S    
O11   V3    S    
C50   O26   S    
O25   H21   S    
C59   O23   S    
O6    V2    S    
C22   H14   S    
C20   C64   A    
O27   H23   S    
C47   F3    S    
C28   H12   S    
C4    O14   A    
O28   H24   S    
C56   H8    S    
C5    C63   S    
C17   F5    S    
C3    O13   A    
C45   C49   A    
C10   H2    S    
C19   C63   A    
C34   C50   A    
C48   C52   A    
C29   C37   A    
C16   C56   A    
C8    C62   S    
O6    C2    A    
C29   C33   A    
C18   C62   A    
C52   O28   S    
O12   V4    S    
C13   C57   A    
O21   H17   S    
C18   C22   A    
C31   C35   A    
C32   C36   A    
C15   C59   A    
O10   C6    A    
O20   V2    S    
O23   H19   S    
C43   C47   A    
C38   C42   A    
C37   C41   A    
C34   C62   A    
C19   F7    S    
C48   F4    S    
C23   C27   A    
C49   O25   S    
O14   V2    S    
C11   C43   A    
C12   C44   A    
C20   C24   A    
C32   C40   A    
C46   C50   A    
C35   C63   A    
C6    C64   S    
C26   H10   S    
C36   C64   A    
C16   C60   A    
C47   C51   A    
O4    V2    S    
C24   C28   A    
