data_mof_unit_26777.cif
_audit_creation_date              2012-12-10T17:21:15-0500
_audit_creation_method            fapswitch 2.2
_symmetry_space_group_name_H-M    P1
_symmetry_Int_Tables_number       1
_space_group_crystal_system       triclinic
_cell_length_a                    9.62668
_cell_length_b                    10.751537
_cell_length_c                    13.875803
_cell_angle_alpha                 90.261499
_cell_angle_beta                  85.386824
_cell_angle_gamma                 88.855066
_cell_volume                      1431.20205746

loop_
_atom_site_label
_atom_site_type_symbol
_atom_type_description
_atom_site_fract_x
_atom_site_fract_y
_atom_site_fract_z
_atom_type_partial_charge
C1    C     C_R   0.498572 0.737250 0.502049 0.776887
C2    C     C_R   0.573231 0.933894 0.433324 -0.173423
C3    C     C_R   0.574314 0.062185 0.433099 -0.179784
C4    C     C_R   0.477883 0.499578 0.682683 0.811801
C5    C     C_R   0.499700 0.129217 0.507044 -0.009212
C6    C     C_R   0.886530 0.272328 0.476873 0.397989
C7    C     C_R   0.949019 0.187030 0.409234 -0.223601
C8    C     C_R   0.080129 0.211868 0.364017 -0.239123
C9    C     C_R   0.150204 0.317138 0.391838 -0.129311
C10   C     C_R   0.080809 0.405748 0.454747 0.209457
C11   C     C_R   0.934557 0.395143 0.473010 0.077117
C12   C     C_1   0.465257 0.497193 0.785686 -0.150047
C13   C     C_R   0.920103 0.598896 0.533133 -0.049053
C14   C     C_R   0.067515 0.595871 0.538032 -0.043992
C15   C     C_R   0.500585 0.262876 0.501391 0.782346
C16   C     C_R   0.522117 0.499855 0.317295 0.797490
C17   C     C_1   0.534693 0.499952 0.214213 -0.151111
C18   C     C_2   0.556845 0.501119 0.023828 -0.136665
C19   C     C_2   0.442844 0.491993 0.975958 -0.109811
C20   C     C_1   0.454267 0.494727 0.872431 0.056555
C21   C     C_1   0.545471 0.500303 0.127410 0.026689
C22   C     C_R   0.347990 0.875352 0.661074 -0.266284
C23   C     C_R   0.278046 0.942652 0.736935 -0.176425
C24   C     C_R   0.280546 0.072379 0.737793 0.486819
C25   C     C_R   0.353972 0.134615 0.662282 -0.202645
C26   C     C_R   0.423529 0.068199 0.583805 0.066297
C27   C     C_R   0.420933 0.936951 0.583356 0.099405
C28   C     C_R   0.495762 0.871286 0.506631 -0.063851
Cu1   Cu    Cu3+1 0.359340 0.500010 0.500010 0.951228
Cu2   Cu    Cu3+1 0.640660 0.499990 0.499990 0.990765
H1    H     H_    0.340508 0.483090 0.014175 0.172203
H2    H     H_    0.632758 0.109612 0.374698 0.130855
H3    H     H_    0.860845 0.679551 0.560918 0.162433
H4    H     H_    0.852036 0.367421 0.689423 0.362869
H5    H     H_    0.908621 0.094193 0.403849 0.176526
H6    H     H_    0.202526 0.350864 0.791423 0.341055
H7    H     H_    0.133016 0.143740 0.315650 0.181849
H8    H     H_    0.255380 0.327689 0.361808 0.190547
H9    H     H_    0.116799 0.673498 0.570356 0.148829
H10   H     H_    0.659116 0.510135 0.985534 0.174212
H11   H     H_    0.631449 0.882989 0.375188 0.147123
H12   H     H_    0.345906 0.775013 0.665013 0.160188
H13   H     H_    0.223475 0.893093 0.795741 0.179493
H14   H     H_    0.358102 0.234792 0.666695 0.153629
N1    N     N_R   0.852210 0.498790 0.499090 -0.202280
N2    N     N_R   0.148080 0.498710 0.499060 -0.188743
O1    O     O_R   0.381190 0.680360 0.500010 -0.586817
O2    O     O_2   0.994216 0.169718 0.628865 -0.257789
O3    O     O_3   0.777485 0.310697 0.672996 -0.471033
O4    O     O_2   0.082045 0.082080 0.884926 -0.228107
O5    O     O_2   0.300031 0.188140 0.906161 -0.303937
O6    O     O_3   0.126089 0.290404 0.794595 -0.482643
O7    O     O_R   0.618760 0.680340 0.500000 -0.581082
O8    O     O_R   0.364420 0.499990 0.637850 -0.592370
O9    O     O_R   0.601990 0.499960 0.637840 -0.529692
O10   O     O_R   0.381240 0.319660 0.500000 -0.600480
O11   O     O_R   0.618810 0.319640 0.499990 -0.548205
O12   O     O_R   0.398010 0.500040 0.362160 -0.590711
O13   O     O_R   0.635580 0.500010 0.362150 -0.570389
O14   O     O_2   0.769006 0.093805 0.590678 -0.273097
S1    S     S_3+6 0.855905 0.207841 0.593940 0.052296
S2    S     S_3+6 0.195832 0.157611 0.834953 0.046764

loop_
_geom_bond_atom_site_label_1
_geom_bond_atom_site_label_2
_ccdc_geom_bond_type
C10   N2    A    
C1    C28   S    
C24   S2    S    
C23   C24   A    
C13   H3    S    
C6    C7    A    
Cu1   O10   S    
C4    C12   S    
C18   C21   S    
C2    C28   A    
C9    C10   A    
Cu2   N1    S    
C19   C20   S    
H6    O6    S    
Cu1   N2    S    
C19   H1    S    
C15   O10   A    
C12   C20   T    
C2    C3    A    
O2    S1    D    
C10   C11   A    
C23   H13   S    
C7    C8    A    
C14   N2    A    
C16   O12   A    
C13   C14   A    
C24   C25   A    
C13   N1    A    
C15   O11   A    
C26   C27   A    
Cu1   Cu2   S    
O5    S2    D    
Cu1   O1    S    
C25   H14   S    
C9    H8    S    
C22   C27   A    
C4    O9    A    
C3    H2    S    
O4    S2    D    
Cu2   O7    S    
C5    C15   S    
C11   N1    A    
C8    H7    S    
C2    H11   S    
C5    C26   A    
Cu2   O11   S    
C6    C11   A    
O3    S1    S    
Cu1   O12   S    
C6    S1    S    
C8    C9    A    
C18   C19   D    
Cu1   O8    S    
C22   H12   S    
C27   C28   A    
Cu2   O13   S    
C1    O7    A    
C22   C23   A    
C1    O1    A    
H4    O3    S    
C18   H10   S    
C4    O8    A    
C25   C26   A    
C7    H5    S    
Cu2   O9    S    
O6    S2    S    
C17   C21   T    
C16   C17   S    
C14   H9    S    
O14   S1    D    
C3    C5    A    
C16   O13   A    
