data_mof_unit_22866.cif
_audit_creation_date              2012-12-10T18:44:24-0500
_audit_creation_method            fapswitch 2.2
_symmetry_space_group_name_H-M    P1
_symmetry_Int_Tables_number       1
_space_group_crystal_system       triclinic
_cell_length_a                    12.819653
_cell_length_b                    10.789862
_cell_length_c                    9.828199
_cell_angle_alpha                 90.999616
_cell_angle_beta                  97.760461
_cell_angle_gamma                 89.678455
_cell_volume                      1346.79575574

loop_
_atom_site_label
_atom_site_type_symbol
_atom_type_description
_atom_site_fract_x
_atom_site_fract_y
_atom_site_fract_z
_atom_type_partial_charge
C1    C     C_R   0.501061 0.259813 0.498344 0.879134
C2    C     C_R   0.498943 0.740186 0.501655 0.879165
C3    C     C_R   0.499279 0.872746 0.505082 -0.091440
C4    C     C_R   0.500735 0.127250 0.494912 -0.091443
C5    C     C_R   0.565753 0.576437 0.084952 -0.059218
C6    C     C_R   0.434247 0.423563 0.915048 -0.059212
C7    C     C_R   0.565773 0.576334 0.940975 -0.080814
C8    C     C_R   0.434226 0.423667 0.059024 -0.080810
C9    C     C_R   0.298300 0.501280 0.472255 0.889760
C10   C     C_R   0.701700 0.498702 0.527746 0.889757
C11   C     C_R   0.813891 0.501341 0.547283 -0.041716
C12   C     C_R   0.186110 0.498607 0.452734 -0.041695
C13   C     C_R   0.032747 0.377733 0.375962 -0.211395
C14   C     C_R   0.967269 0.622168 0.624110 -0.211420
C15   C     C_R   0.137635 0.401958 0.372952 -0.271785
C16   C     C_R   0.862382 0.597949 0.627116 -0.271758
C17   C     C_R   0.129463 0.580064 0.528162 0.134483
C18   C     C_R   0.870530 0.419880 0.471847 0.134472
C19   C     C_R   0.024349 0.551440 0.538169 0.124645
C20   C     C_R   0.975656 0.448477 0.461877 0.124645
C21   C     C_R   0.527340 0.057741 0.381119 0.189728
C22   C     C_R   0.472662 0.942255 0.618865 0.189708
C23   C     C_R   0.526688 0.930678 0.388955 -0.233180
C24   C     C_R   0.473334 0.069317 0.611040 -0.233183
H1    H     H_    0.817513 0.658787 0.686557 0.158196
H2    H     H_    0.182513 0.341105 0.313541 0.158180
H3    H     H_    0.998272 0.301280 0.313167 0.165959
H4    H     H_    0.001754 0.698599 0.686936 0.165962
H5    H     H_    0.548188 0.876331 0.303075 0.168807
H6    H     H_    0.451847 0.123662 0.696930 0.168820
H7    H     H_    0.618263 0.637563 0.149938 0.127426
H8    H     H_    0.381737 0.362437 0.850061 0.127428
H9    H     H_    0.618398 0.637195 0.896681 0.121052
H10   H     H_    0.381600 0.362807 0.103319 0.121048
N1    N     N_R   0.499970 0.499970 0.857200 -0.078697
N2    N     N_R   0.500030 0.500030 0.142800 -0.078697
O1    O     O_R   0.499990 0.316750 0.614620 -0.629128
O2    O     O_R   0.500010 0.683250 0.385380 -0.629125
O3    O     O_R   0.499990 0.316780 0.385290 -0.620930
O4    O     O_R   0.500010 0.683220 0.614710 -0.620920
O5    O     O_R   0.346360 0.499970 0.595710 -0.610573
O6    O     O_R   0.653640 0.500030 0.404290 -0.610576
O7    O     O_R   0.346360 0.499990 0.366380 -0.622056
O8    O     O_R   0.653640 0.500010 0.633620 -0.622065
Zn1   Zn    Zn3+2 0.500000 0.499980 0.653120 0.943781
Zn2   Zn    Zn3+2 0.500000 0.500020 0.346880 0.943778
C25   C     C_3   0.819683 0.303022 0.405297 -0.926363
H11   H     H_    0.743359 0.282486 0.441033 0.236514
H12   H     H_    0.807019 0.312047 0.291893 0.247245
H13   H     H_    0.870680 0.221488 0.433911 0.236125
C26   C     C_3   0.180277 0.696966 0.594635 -0.926407
H14   H     H_    0.256597 0.717510 0.558895 0.236508
H15   H     H_    0.129248 0.778458 0.565954 0.236164
H16   H     H_    0.192942 0.688004 0.708045 0.247230
C27   C     C_3   0.556527 0.113362 0.251005 -0.862152
H17   H     H_    0.487754 0.162743 0.195771 0.247487
H18   H     H_    0.623883 0.177472 0.275288 0.251761
H19   H     H_    0.580595 0.041705 0.178764 0.217343
C28   C     C_3   0.443433 0.886632 0.748956 -0.862144
H20   H     H_    0.376104 0.822494 0.724627 0.251772
H21   H     H_    0.512204 0.837286 0.804245 0.247477
H22   H     H_    0.419305 0.958278 0.821167 0.217341

loop_
_geom_bond_atom_site_label_1
_geom_bond_atom_site_label_2
_ccdc_geom_bond_type
C12   C17   A    
C6    H8    S    
C27   H17   S    
C15   H2    S    
C11   C18   A    
N2    Zn2   S    
C14   C16   A    
C10   O6    A    
C26   H16   S    
C11   C16   A    
C2    O2    A    
C9    O5    A    
C19   C20   A    
C12   C15   A    
C1    O1    A    
C1    C4    S    
C18   C25   S    
C17   C26   S    
C13   C15   A    
C2    C3    S    
C28   H20   S    
C25   H12   S    
C8    H10   S    
O8    Zn1   S    
C4    C21   A    
C7    H9    S    
C27   H19   S    
C5    H7    S    
O3    Zn2   S    
C10   O8    A    
C23   H5    S    
C17   C19   A    
C25   H13   S    
C18   C20   A    
C10   C11   S    
C27   H18   S    
C21   C23   A    
C8    N2    A    
O4    Zn1   S    
C4    C24   A    
O7    Zn2   S    
C22   C24   A    
C9    O7    A    
C24   H6    S    
O2    Zn2   S    
C9    C12   S    
C1    O3    A    
O1    Zn1   S    
C26   H14   S    
N1    Zn1   S    
C5    N2    A    
C2    O4    A    
C16   H1    S    
C6    N1    A    
C5    C7    A    
O6    Zn2   S    
C28   H21   S    
C22   C28   S    
C21   C27   S    
O5    Zn1   S    
C13   H3    S    
C3    C22   A    
C6    C8    A    
C28   H22   S    
C13   C20   A    
C14   H4    S    
C3    C23   A    
C7    N1    A    
C14   C19   A    
C25   H11   S    
C26   H15   S    
