data_mof_unit_19047.cif
_audit_creation_date              2012-12-11T15:29:36-0500
_audit_creation_method            fapswitch 2.2
_symmetry_space_group_name_H-M    P1
_symmetry_Int_Tables_number       1
_space_group_crystal_system       triclinic
_cell_length_a                    21.416643
_cell_length_b                    7.238787
_cell_length_c                    14.82281
_cell_angle_alpha                 89.616971
_cell_angle_beta                  73.716411
_cell_angle_gamma                 90.054447
_cell_volume                      2205.74674882

loop_
_atom_site_label
_atom_site_type_symbol
_atom_type_description
_atom_site_fract_x
_atom_site_fract_y
_atom_site_fract_z
_atom_type_partial_charge
O1    O     O_R   0.464160 0.506670 0.130070 -0.534373
O2    O     O_R   0.535840 0.006670 0.869930 -0.537868
O3    O     O_R   0.589710 0.179080 0.006710 -0.552035
O4    O     O_R   0.410290 0.679080 0.993290 -0.546266
C1    C     C_R   0.616369 0.344497 0.001425 0.685898
C2    C     C_R   0.383844 0.844364 0.997222 0.683862
O5    O     O_R   0.467940 0.177220 0.138010 -0.540259
O6    O     O_R   0.532060 0.677220 0.861990 -0.537479
O7    O     O_R   0.413200 0.002810 0.002170 -0.530535
O8    O     O_R   0.586800 0.502810 0.997830 -0.538322
C3    C     C_R   0.455850 0.345316 0.174387 0.693603
C4    C     C_R   0.544665 0.846722 0.825496 0.683327
O9    O     O_3   0.482180 0.337850 0.955280 -0.376051
O10   O     O_3   0.517820 0.837850 0.044720 -0.379648
V1    V     V_3+5 0.503310 0.064600 0.008300 1.402689
V2    V     V_3+5 0.496690 0.564600 0.991700 1.410203
C5    C     C_R   0.574723 0.865645 0.724098 -0.042680
C6    C     C_R   0.426714 0.357699 0.275672 -0.035895
C7    C     C_R   0.931626 0.856379 0.277619 -0.085393
C8    C     C_R   0.069699 0.363449 0.723067 -0.081325
C9    C     C_R   0.576405 0.038630 0.583534 -0.147959
C10   C     C_R   0.433021 0.476951 0.424287 -0.147373
C11   C     C_R   0.542411 0.968428 0.671021 -0.160445
C12   C     C_R   0.463534 0.425572 0.332307 -0.167518
C13   C     C_R   0.640833 0.823759 0.686637 -0.206998
C14   C     C_R   0.359443 0.334519 0.312117 -0.215879
C15   C     C_R   0.676908 0.895755 0.597922 0.090154
C16   C     C_R   0.326929 0.388246 0.405133 0.089246
C17   C     C_R   0.643605 0.009726 0.548451 0.109714
C18   C     C_R   0.365097 0.464472 0.460003 0.113732
C19   C     C_R   0.744991 0.864072 0.557959 0.055090
C20   C     C_R   0.258023 0.373707 0.444585 0.048817
C21   C     C_R   0.778204 0.950452 0.470531 0.023156
C22   C     C_R   0.228751 0.438668 0.537754 0.022516
C23   C     C_R   0.745825 0.093685 0.435283 -0.034494
C24   C     C_R   0.267473 0.546017 0.582028 -0.045102
C25   C     C_R   0.678241 0.108619 0.469185 -0.239977
C26   C     C_R   0.335156 0.543099 0.546692 -0.239987
C27   C     C_R   0.781215 0.750139 0.602342 -0.190191
C28   C     C_R   0.217228 0.298387 0.393889 -0.200175
C29   C     C_R   0.846630 0.714342 0.560575 -0.118816
C30   C     C_R   0.150699 0.279313 0.434090 -0.139911
C31   C     C_R   0.877224 0.776313 0.469304 0.089871
C32   C     C_R   0.122579 0.319972 0.528774 0.089520
C33   C     C_R   0.842194 0.889047 0.421710 0.050326
C34   C     C_R   0.162110 0.393119 0.582661 0.059124
C35   C     C_R   0.941152 0.718660 0.423361 0.384781
C36   C     C_R   0.056082 0.280636 0.571172 0.387914
C37   C     C_R   0.967720 0.759394 0.327421 -0.236306
C38   C     C_R   0.030058 0.304944 0.668464 -0.234599
C39   C     C_R   0.869569 0.920769 0.324279 -0.154736
C40   C     C_R   0.135190 0.402915 0.681032 -0.173305
H1    H     H_    0.652898 0.210671 0.438753 0.158497
H2    H     H_    0.364774 0.617455 0.583070 0.156696
H3    H     H_    0.841415 0.983787 0.282154 0.113110
H4    H     H_    0.165160 0.432136 0.726991 0.104173
H5    H     H_    0.015790 0.709789 0.290544 0.119983
H6    H     H_    0.979371 0.273186 0.702159 0.148009
H7    H     H_    0.872047 0.626982 0.598244 0.178482
H8    H     H_    0.121835 0.222433 0.391406 0.190508
H9    H     H_    0.550804 0.125310 0.545789 0.119266
H10   H     H_    0.462269 0.535401 0.466058 0.118863
H11   H     H_    0.491675 0.004601 0.700148 0.113775
H12   H     H_    0.515471 0.446767 0.303871 0.107878
H13   H     H_    0.663495 0.747661 0.731637 0.108435
H14   H     H_    0.333817 0.285071 0.264085 0.114094
H15   H     H_    0.760479 0.685363 0.669716 0.140227
H16   H     H_    0.234984 0.252463 0.322373 0.160146
C41   C     C_3   0.219252 0.678048 0.959067 -0.361181
C42   C     C_3   0.770642 0.269914 0.088605 -0.363048
H17   H     H_    0.193604 0.559841 0.002363 0.133065
H18   H     H_    0.787883 0.126610 0.094214 0.128700
H19   H     H_    0.214532 0.657786 0.887060 0.224830
H20   H     H_    0.775909 0.345158 0.151020 0.242649
C43   C     C_3   0.291805 0.672420 0.957095 -0.394451
C44   C     C_3   0.697849 0.265421 0.089988 -0.406544
H21   H     H_    0.322290 0.654188 0.883406 0.195362
H22   H     H_    0.668456 0.342005 0.152325 0.180798
H23   H     H_    0.299849 0.549619 0.998010 0.154620
H24   H     H_    0.680375 0.119769 0.097784 0.151153
H25   H     H_    0.170872 0.751605 0.141272 0.091408
H26   H     H_    0.818895 0.104984 0.922429 0.098339
H27   H     H_    0.274926 0.749968 0.143070 0.050343
H28   H     H_    0.715264 0.095079 0.920149 0.048940
C45   C     C_3   0.194366 0.876998 0.102252 0.177134
C46   C     C_3   0.804119 0.249617 0.912803 0.164740
C47   C     C_3   0.227268 0.024317 0.938165 0.247871
C48   C     C_3   0.784745 0.564130 0.993919 0.238370
C49   C     C_3   0.187414 0.863992 0.000139 -0.057286
C50   C     C_3   0.812842 0.364727 0.997528 -0.036985
H29   H     H_    0.207706 0.160974 0.967040 0.054255
H30   H     H_    0.813882 0.637025 0.929307 0.062834
C51   C     C_3   0.312445 0.852260 0.998645 -0.039297
C52   C     C_3   0.687903 0.352209 0.998723 -0.012557
C53   C     C_3   0.267823 0.873466 0.101350 0.189440
C54   C     C_3   0.730826 0.243182 0.912906 0.194378
C55   C     C_3   0.299761 0.016817 0.938254 -0.267328
C56   C     C_3   0.712992 0.554972 0.991586 -0.339080
H31   H     H_    0.331928 0.004123 0.865153 0.170213
H32   H     H_    0.681867 0.636897 0.050535 0.165831
H33   H     H_    0.312870 0.149485 0.965924 0.137294
H34   H     H_    0.708765 0.620349 0.925373 0.137068
O11   O     O_R   0.913210 0.208550 0.002110 -0.547693
O12   O     O_R   0.086790 0.708550 0.997890 -0.548253
O13   O     O_R   0.032060 0.539960 0.861980 -0.535648
O14   O     O_R   0.967940 0.039960 0.138020 -0.531383
C57   C     C_R   0.043821 0.372769 0.825263 0.710984
C58   C     C_R   0.956118 0.871480 0.174917 0.737079
O15   O     O_R   0.910290 0.538020 0.993280 -0.523431
O16   O     O_R   0.089710 0.038020 0.006720 -0.543848
O17   O     O_R   0.964160 0.712340 0.130090 -0.536168
O18   O     O_R   0.035840 0.212340 0.869910 -0.543508
C59   C     C_R   0.884042 0.370244 0.997687 0.735942
C60   C     C_R   0.116054 0.870121 0.001407 0.700927
O19   O     O_3   0.017820 0.379210 0.044690 -0.382705
O20   O     O_3   0.982180 0.879210 0.955310 -0.378275
V3    V     V_3+5 0.996690 0.652500 0.991710 1.457004
V4    V     V_3+5 0.003310 0.152500 0.008290 1.442181
O21   O     O_3   0.975739 0.617104 0.472336 -0.633507
H35   H     H_    0.019326 0.588137 0.429908 0.308962
O22   O     O_3   0.017995 0.214494 0.516949 -0.633776
H36   H     H_    0.973012 0.194322 0.557426 0.315902
O23   O     O_3   0.223606 0.012420 0.845120 -0.621196
H37   H     H_    0.183580 0.078083 0.842011 0.275242
O24   O     O_3   0.788792 0.665835 0.072744 -0.631596
H38   H     H_    0.783343 0.797887 0.058182 0.270983
O25   O     O_3   0.160461 0.028702 0.151948 -0.629189
H39   H     H_    0.181316 0.144002 0.121551 0.314408
O26   O     O_3   0.845805 0.310696 0.826270 -0.639531
H40   H     H_    0.832395 0.436506 0.812952 0.313038
O27   O     O_3   0.284264 0.034059 0.142834 -0.646969
H41   H     H_    0.318738 0.999615 0.172710 0.281462
O28   O     O_3   0.723109 0.314436 0.828034 -0.639663
H42   H     H_    0.683591 0.256097 0.818146 0.285388
C61   C     C_2   0.781349 0.249830 0.376959 0.742810
O29   O     O_2   0.755158 0.340748 0.328087 -0.577646
O30   O     O_R   0.843385 0.299876 0.382093 -0.647702
H43   H     H_    0.861904 0.410030 0.340539 0.301463
C62   C     C_2   0.239681 0.688407 0.653792 0.762467
O31   O     O_2   0.268550 0.732029 0.710870 -0.553033
O32   O     O_R   0.182106 0.779027 0.653225 -0.652928
H44   H     H_    0.168435 0.874250 0.704803 0.305737

loop_
_geom_bond_atom_site_label_1
_geom_bond_atom_site_label_2
_ccdc_geom_bond_type
O18   V4    S    
C3    C6    S    
C47   H29   S    
C15   C17   A    
C21   C33   A    
C57   O18   A    
O1    C3    A    
O2    C4    A    
O16   V4    S    
C2    O7    A    
C1    C52   S    
O15   V3    S    
C61   O29   D    
C27   C29   A    
O5    C3    A    
O13   C57   A    
C5    C11   A    
C6    C12   A    
O11   C59   A    
C44   H22   S    
O12   V3    S    
C52   C56   S    
C34   C40   A    
C37   H5    S    
O20   V3    S    
C18   C26   A    
H28   C54   S    
C50   C59   S    
C41   H17   S    
C8    C38   A    
C44   C52   S    
C48   H30   S    
C16   C18   A    
C6    C14   A    
C4    C5    S    
C42   H20   S    
C19   C21   A    
C41   H19   S    
C22   C34   A    
C31   C35   A    
O16   C60   A    
C9    H9    S    
O15   C59   A    
C8    C57   S    
C25   H1    S    
C7    C58   S    
O19   V4    S    
O6    V2    S    
C11   H11   S    
C12   H12   S    
O14   V4    S    
C53   O27   S    
C29   C31   A    
O13   V3    S    
C42   C50   S    
C30   C32   A    
C41   C49   S    
C55   H31   S    
C32   C34   A    
H25   C45   S    
C62   O31   D    
C15   C19   A    
C14   H14   S    
O23   H37   S    
C13   H13   S    
C29   H7    S    
C35   C37   A    
C46   C50   S    
C23   C61   S    
C36   O22   S    
C45   C49   S    
O5    V1    S    
H26   C46   S    
C9    C17   A    
C38   H6    S    
O4    V2    S    
C48   O24   S    
C10   H10   S    
C43   H21   S    
C7    C37   A    
C26   H2    S    
C16   C20   A    
O6    C4    A    
C2    C51   S    
H27   C53   S    
O1    V2    S    
C62   O32   S    
C52   C54   S    
O2    V1    S    
C31   C33   A    
O22   H36   S    
C46   C54   S    
O12   C60   A    
O4    C2    A    
C48   C50   S    
C56   H32   S    
C9    C11   A    
C42   C44   S    
O24   H38   S    
C10   C12   A    
C45   O25   S    
O11   V4    S    
C30   H8    S    
O25   H39   S    
C51   C55   S    
O3    V1    S    
C35   O21   S    
C43   C51   S    
O26   H40   S    
C61   O30   S    
C49   C60   S    
C10   C18   A    
C23   C25   A    
C27   H15   S    
C44   H24   S    
C28   C30   A    
O3    C1    A    
C42   H18   S    
O21   H35   S    
C46   O26   S    
C54   O28   S    
C13   C15   A    
O30   H43   S    
C14   C16   A    
C58   O17   A    
O17   V3    S    
C5    C13   A    
C24   C26   A    
O7    V1    S    
C1    O8    A    
C8    C40   A    
C32   C36   A    
C56   H34   S    
O32   H44   S    
C47   O23   S    
C45   C53   S    
O28   H42   S    
O14   C58   A    
C36   C38   A    
C21   C23   A    
C22   C24   A    
C19   C27   A    
C41   C43   S    
C39   H3    S    
C20   C28   A    
O27   H41   S    
C24   C62   S    
C48   C56   S    
C7    C39   A    
C51   C53   S    
C28   H16   S    
O9    V2    S    
C17   C25   A    
C47   C49   S    
C33   C39   A    
O10   V1    S    
O8    V2    S    
C43   H23   S    
C55   H33   S    
C40   H4    S    
C20   C22   A    
C47   C55   S    
