data_mof_unit_50999.cif
_audit_creation_date              2012-12-10T18:59:15-0500
_audit_creation_method            fapswitch 2.2
_symmetry_space_group_name_H-M    P1
_symmetry_Int_Tables_number       1
_space_group_crystal_system       triclinic
_cell_length_a                    10.757238
_cell_length_b                    10.797596
_cell_length_c                    9.578869
_cell_angle_alpha                 90.644546
_cell_angle_beta                  88.030186
_cell_angle_gamma                 89.941549
_cell_volume                      1111.87883401

loop_
_atom_site_label
_atom_site_type_symbol
_atom_type_description
_atom_site_fract_x
_atom_site_fract_y
_atom_site_fract_z
_atom_type_partial_charge
C1    C     C_R   0.500811 0.262692 0.499020 0.793554
C2    C     C_R   0.058909 0.624860 0.537827 -0.002097
C3    C     C_R   0.127897 0.513444 0.511400 -0.099266
C4    C     C_R   0.067516 0.402493 0.480327 -0.195368
C5    C     C_R   0.939421 0.398711 0.475765 -0.213822
C6    C     C_R   0.871010 0.507566 0.492196 -0.069105
C7    C     C_R   0.587712 0.065307 0.577134 0.105402
C8    C     C_R   0.506742 0.129717 0.493893 -0.087361
C9    C     C_R   0.439219 0.063560 0.394777 -0.227037
C10   C     C_R   0.438921 0.934268 0.396228 -0.213124
C11   C     C_R   0.505892 0.870933 0.496964 -0.077361
C12   C     C_R   0.262621 0.509289 0.503058 0.827997
C13   C     C_R   0.587233 0.938232 0.579018 0.092731
C14   C     C_3   0.616356 0.935851 0.730218 -0.489896
C15   C     C_3   0.617576 0.076690 0.727384 -0.458682
C16   C     C_R   0.605904 0.526356 0.069863 0.250451
C17   C     C_R   0.400060 0.459707 0.078606 -0.141486
C18   C     C_R   0.399700 0.457989 0.930249 0.314583
C19   C     C_R   0.606048 0.526043 0.922892 0.214499
C20   C     C_3   0.680292 0.642185 0.916151 -0.498318
C21   C     C_3   0.680056 0.642598 0.074781 -0.488920
C22   C     C_R   0.501268 0.737525 0.500254 0.815831
C23   C     C_R   0.737367 0.498560 0.497554 0.776407
C24   C     C_R   0.111423 0.738059 0.587811 0.228589
C25   C     C_R   0.043298 0.849031 0.574184 -0.144123
C26   C     C_R   0.920876 0.846619 0.533105 -0.215674
C27   C     C_R   0.862592 0.734192 0.509501 -0.185956
C28   C     C_R   0.929948 0.622372 0.513051 0.070306
Cu1   Cu    Cu3+1 0.499990 0.499980 0.640670 0.958040
Cu2   Cu    Cu3+1 0.500010 0.500020 0.359330 0.940481
H1    H     H_    0.120097 0.317824 0.461647 0.130367
H2    H     H_    0.709544 0.895519 0.747705 0.203041
H3    H     H_    0.541463 0.119411 0.792628 0.202382
H4    H     H_    0.711456 0.116767 0.741896 0.192493
H5    H     H_    0.318563 0.428350 0.137000 0.158125
H6    H     H_    0.774123 0.627324 0.866461 0.207211
H7    H     H_    0.626425 0.719366 0.873584 0.208116
H8    H     H_    0.773761 0.627089 0.116859 0.201181
H9    H     H_    0.627135 0.721345 0.123489 0.215048
H10   H     H_    0.081360 0.938176 0.601993 0.140252
H11   H     H_    0.869007 0.932196 0.526361 0.152403
H12   H     H_    0.765436 0.735673 0.484375 0.131184
H13   H     H_    0.893438 0.310905 0.458147 0.130907
H14   H     H_    0.381749 0.111399 0.321854 0.152862
H15   H     H_    0.381410 0.884329 0.323982 0.160413
H16   H     H_    0.539175 0.899165 0.797079 0.198171
N1    N     N_R   0.500790 0.500930 0.147930 -0.200003
N2    N     N_R   0.500790 0.500890 0.852020 -0.201745
O1    O     O_R   0.500000 0.319640 0.618810 -0.572543
O2    O     O_R   0.500010 0.319680 0.381230 -0.579208
O3    O     O_R   0.319640 0.499980 0.618820 -0.545786
O4    O     O_R   0.319650 0.500020 0.381230 -0.591030
O5    O     O_R   0.499990 0.680320 0.618770 -0.568712
O6    O     O_R   0.500000 0.680360 0.381190 -0.589834
O7    O     O_R   0.680350 0.499980 0.618770 -0.578571
O8    O     O_R   0.680360 0.500020 0.381180 -0.580199
N3    N     N_2   0.291323 0.415614 0.864694 -0.377762
H17   H     H_    0.212055 0.461310 0.900791 0.223229
C29   C     C_3   0.274669 0.282742 0.865279 -0.685120
H18   H     H_    0.193320 0.257931 0.802400 0.221187
H19   H     H_    0.257780 0.249542 0.973703 0.195383
H20   H     H_    0.357726 0.235574 0.818330 0.241841
N4    N     N_2   0.219602 0.735481 0.670848 -0.418399
H21   H     H_    0.216651 0.663087 0.739983 0.269067
C30   C     C_3   0.259642 0.847832 0.740114 -0.715816
H22   H     H_    0.286726 0.919168 0.662390 0.241574
H23   H     H_    0.341431 0.826854 0.802963 0.230022
H24   H     H_    0.184853 0.883645 0.812699 0.216993

loop_
_geom_bond_atom_site_label_1
_geom_bond_atom_site_label_2
_ccdc_geom_bond_type
N4    C30   S    
C15   H4    S    
C23   O7    A    
Cu1   Cu2   S    
C24   N4    S    
C1    C8    S    
C11   C13   A    
C9    C10   A    
C18   N3    S    
C19   C20   S    
C21   H9    S    
C7    C13   A    
C30   H24   S    
Cu2   O8    S    
C10   H15   S    
C7    C15   S    
C17   C18   A    
N3    H17   S    
C23   O8    A    
C22   O6    A    
Cu1   O1    S    
C13   C14   S    
C20   C21   S    
C2    C24   A    
C20   H7    S    
Cu2   O6    S    
C27   H12   S    
C26   C27   A    
C16   C21   S    
Cu1   O5    S    
C16   C19   A    
C6    C23   S    
C16   N1    A    
C17   H5    S    
C12   O4    A    
Cu1   O3    S    
C2    C3    A    
C22   O5    A    
C30   H22   S    
C25   H10   S    
C5    H13   S    
C5    C6    A    
Cu2   O2    S    
C29   H19   S    
C4    H1    S    
N3    C29   S    
C10   C11   A    
Cu1   N2    S    
N4    H21   S    
C20   H6    S    
C17   N1    A    
Cu2   N1    S    
C29   H18   S    
C12   O3    A    
C24   C25   A    
C11   C22   S    
C14   H16   S    
C7    C8    A    
C1    O2    A    
C27   C28   A    
Cu2   O4    S    
C14   C15   S    
C4    C5    A    
C9    H14   S    
C2    C28   A    
C3    C12   S    
Cu1   O7    S    
C30   H23   S    
C25   C26   A    
C19   N2    A    
C1    O1    A    
C15   H3    S    
C6    C28   A    
C21   H8    S    
C3    C4    A    
C26   H11   S    
C14   H2    S    
C8    C9    A    
C29   H20   S    
C18   N2    A    
