data_mof_unit_42443.cif
_audit_creation_date              2012-10-26T20:40:16-0400
_audit_creation_method            fapswitch 2.2
_symmetry_space_group_name_H-M    P1
_symmetry_Int_Tables_number       1
_space_group_crystal_system       triclinic
_cell_length_a                    15.066086
_cell_length_b                    10.796413
_cell_length_c                    9.591232
_cell_angle_alpha                 90.858579
_cell_angle_beta                  90.075471
_cell_angle_gamma                 93.655373
_cell_volume                      1556.75403915

loop_
_atom_site_label
_atom_site_type_symbol
_atom_type_description
_atom_site_fract_x
_atom_site_fract_y
_atom_site_fract_z
_atom_type_partial_charge
C1    C     C_R   0.495547 0.262154 0.498730 0.591486
C2    C     C_R   0.186532 0.524659 0.374567 -0.138126
C3    C     C_R   0.232610 0.514517 0.500690 -0.021273
C4    C     C_R   0.329162 0.506396 0.500126 0.547646
C5    C     C_R   0.186078 0.509444 0.627359 -0.133199
C6    C     C_R   0.333646 0.108114 0.591771 0.112091
C7    C     C_R   0.269327 0.037862 0.671076 0.075828
C8    C     C_R   0.283221 0.913983 0.698980 -0.149000
C9    C     C_R   0.355734 0.857803 0.643054 -0.147904
C10   C     C_R   0.422290 0.927234 0.569285 -0.001584
C11   C     C_R   0.415144 0.056297 0.554325 0.026784
C12   C     C_R   0.907526 0.506038 0.628251 0.012778
C13   C     C_R   0.487967 0.127205 0.494259 0.012406
C14   C     C_R   0.558133 0.068728 0.432072 -0.157068
C15   C     C_R   0.559799 0.941091 0.433640 -0.150911
C16   C     C_R   0.499121 0.737278 0.501189 0.526378
C17   C     C_R   0.493933 0.870541 0.504179 0.016323
C18   C     C_R   0.620139 0.665397 0.146855 -0.090568
C19   C     C_R   0.678883 0.746033 0.075763 -0.175131
C20   C     C_R   0.678429 0.746382 0.931987 -0.168664
C21   C     C_R   0.619296 0.665983 0.858399 -0.088520
C22   C     C_R   0.558781 0.581538 0.926524 0.155175
C23   C     C_R   0.954849 0.529280 0.247609 -0.127137
C24   C     C_R   0.558970 0.581344 0.076163 0.160349
C25   C     C_R   0.443795 0.422599 0.072520 -0.004004
C26   C     C_R   0.443835 0.422603 0.924532 -0.002577
C27   C     C_R   0.671379 0.501563 0.500099 0.534003
C28   C     C_R   0.814907 0.502044 0.627098 -0.137391
C29   C     C_R   0.768536 0.506090 0.500403 -0.014908
C30   C     C_R   0.815237 0.515764 0.374105 -0.140373
C31   C     C_R   0.907867 0.520217 0.373509 0.013594
C32   C     C_R   0.954236 0.514817 0.500981 0.062869
C33   C     C_3   0.276843 0.204774 0.390230 -0.255025
C34   C     C_R   0.047496 0.531815 0.247753 -0.125267
C35   C     C_2   0.185085 0.087830 0.721367 0.555195
C36   C     C_R   0.094079 0.525206 0.373781 0.018694
C37   C     C_R   0.047382 0.517203 0.501100 0.068422
C38   C     C_R   0.093684 0.510321 0.628428 0.023457
C39   C     C_R   0.046775 0.502627 0.754452 -0.127986
C40   C     C_R   0.954157 0.500641 0.754382 -0.129559
Cu1   Cu    Cu3+1 0.499990 0.499990 0.640660 0.925347
Cu2   Cu    Cu3+1 0.500010 0.500010 0.359340 0.929652
H1    H     H_    0.779072 0.495160 0.724941 0.132288
H2    H     H_    0.779674 0.519796 0.276077 0.129603
H3    H     H_    0.397814 0.359165 0.868029 0.122200
H4    H     H_    0.919938 0.533746 0.149110 0.107373
H5    H     H_    0.082660 0.538007 0.149347 0.106999
H6    H     H_    0.222376 0.529730 0.276649 0.125275
H7    H     H_    0.221480 0.502418 0.725136 0.123914
H8    H     H_    0.081667 0.497388 0.852867 0.108264
H9    H     H_    0.918991 0.494124 0.852769 0.108115
H10   H     H_    0.612472 0.122522 0.383219 0.127807
H11   H     H_    0.275568 0.276988 0.594072 0.285460
H12   H     H_    0.234229 0.857510 0.756529 0.148851
H13   H     H_    0.262903 0.295438 0.345878 0.147877
H14   H     H_    0.214106 0.144845 0.389877 0.186270
H15   H     H_    0.326192 0.161954 0.321699 0.145147
H16   H     H_    0.081256 0.192418 0.684939 0.344727
H17   H     H_    0.357967 0.759281 0.658332 0.160369
H18   H     H_    0.614305 0.897242 0.383290 0.109042
H19   H     H_    0.397762 0.359184 0.126674 0.112283
H20   H     H_    0.625690 0.673262 0.256999 0.176706
H21   H     H_    0.724949 0.809019 0.132991 0.122341
H22   H     H_    0.724123 0.809646 0.876763 0.128556
H23   H     H_    0.623851 0.674111 0.748434 0.183024
N1    N     N_R   0.500860 0.501210 0.147910 -0.244338
N2    N     N_R   0.500890 0.501290 0.852040 -0.247195
N3    N     N_2   0.311532 0.221129 0.530896 -0.498605
O1    O     O_R   0.499990 0.319640 0.618810 -0.482005
O2    O     O_R   0.137252 0.165388 0.637989 -0.721325
O3    O     O_R   0.500000 0.319660 0.381240 -0.494674
O4    O     O_R   0.370250 0.499960 0.618800 -0.513702
O5    O     O_R   0.370260 0.499980 0.381230 -0.500264
O6    O     O_R   0.500000 0.680340 0.618760 -0.531582
O7    O     O_R   0.500010 0.680360 0.381190 -0.513540
O8    O     O_R   0.629740 0.500020 0.618770 -0.523411
O9    O     O_R   0.629750 0.500040 0.381200 -0.525653
O10   O     O_2   0.155715 0.057213 0.835495 -0.528501

loop_
_geom_bond_atom_site_label_1
_geom_bond_atom_site_label_2
_ccdc_geom_bond_type
C33   H13   S    
C12   C40   A    
C27   C29   S    
C16   O7    A    
Cu1   Cu2   S    
C19   C20   A    
C5    H7    S    
C7    C8    A    
Cu1   N2    S    
Cu2   O7    S    
C1    O3    A    
C12   C28   A    
C16   O6    A    
C26   N2    A    
C22   C24   A    
C21   C22   A    
C36   C37   A    
C38   C39   A    
C16   C17   S    
C10   C17   A    
C18   C19   A    
C15   H18   S    
H11   N3    S    
C26   H3    S    
Cu1   O6    S    
C14   H10   S    
C35   O2    S    
C19   H21   S    
C8    C9    A    
C29   C30   A    
C9    C10   A    
C24   N1    A    
C33   H14   S    
C6    N3    S    
C23   H4    S    
C13   C14   A    
C12   C32   A    
C30   H2    S    
C8    H12   S    
C6    C11   A    
C18   H20   S    
C27   O9    A    
C25   C26   A    
C1    O1    A    
C9    H17   S    
C23   C31   A    
C20   H22   S    
C37   C38   A    
C31   C32   A    
C23   C34   A    
C25   H19   S    
C32   C37   A    
C4    O5    A    
Cu1   O4    S    
C18   C24   A    
C1    C13   S    
C3    C4    S    
C4    O4    A    
Cu1   O1    S    
C2    C36   A    
C15   C17   A    
C28   C29   A    
Cu2   O5    S    
C33   H15   S    
C35   O10   D    
C21   H23   S    
C7    C35   S    
H16   O2    S    
C25   N1    A    
C3    C5    A    
C6    C7    A    
C40   H9    S    
C28   H1    S    
C2    H6    S    
C2    C3    A    
Cu1   O8    S    
C11   C13   A    
C30   C31   A    
Cu2   O3    S    
C34   C36   A    
C22   N2    A    
C10   C11   A    
C39   C40   A    
C39   H8    S    
C20   C21   A    
Cu2   O9    S    
Cu2   N1    S    
C14   C15   A    
C34   H5    S    
C5    C38   A    
C27   O8    A    
C33   N3    S    
