data_mof_unit_56396.cif
_audit_creation_date              2012-12-11T16:07:18-0500
_audit_creation_method            fapswitch 2.2
_symmetry_space_group_name_H-M    P1
_symmetry_Int_Tables_number       1
_space_group_crystal_system       triclinic
_cell_length_a                    17.210341
_cell_length_b                    17.210427
_cell_length_c                    17.187772
_cell_angle_alpha                 90.000015
_cell_angle_beta                  90.000021
_cell_angle_gamma                 90.000205
_cell_volume                      5090.97195889

loop_
_atom_site_label
_atom_site_type_symbol
_atom_type_description
_atom_site_fract_x
_atom_site_fract_y
_atom_site_fract_z
_atom_type_partial_charge
C1    C     C_R   0.395422 0.696361 0.610868 -0.143953
C2    C     C_R   0.575738 0.667633 0.647475 -0.130357
C3    C     C_3   0.788898 0.211096 0.633362 -0.301987
C4    C     C_3   0.732688 0.732692 0.286867 -0.296982
C5    C     C_3   0.267337 0.267313 0.713160 -0.296980
C6    C     C_3   0.788868 0.211110 0.366613 -0.301980
C7    C     C_3   0.211120 0.788922 0.633362 -0.301987
C8    C     C_3   0.711139 0.711115 0.866614 -0.301976
C9    C     C_3   0.288850 0.288854 0.133410 -0.301968
C10   C     C_3   0.767326 0.232689 0.786834 -0.296977
C11   C     C_3   0.232699 0.767306 0.213139 -0.296979
C12   C     C_3   0.288882 0.288906 0.866636 -0.301981
C13   C     C_R   0.696352 0.395433 0.389114 -0.143975
C14   C     C_3   0.711129 0.711126 0.133390 -0.301974
C15   C     C_3   0.232666 0.767302 0.786834 -0.296977
C16   C     C_3   0.767310 0.232703 0.213138 -0.296980
C17   C     C_3   0.757211 0.565185 0.830594 -1.021876
C18   C     C_3   0.242796 0.434795 0.169404 -1.021873
C19   C     C_3   0.623332 0.186149 0.756488 -1.041713
C20   C     C_3   0.376684 0.813860 0.243504 -1.041718
C21   C     C_3   0.242810 0.434834 0.830605 -1.021899
C22   C     C_3   0.757185 0.565187 0.169394 -1.021897
C23   C     C_3   0.376672 0.813820 0.756514 -1.041698
C24   C     C_R   0.303638 0.604576 0.610869 -0.143986
C25   C     C_3   0.623311 0.186172 0.243476 -1.041707
C26   C     C_3   0.813872 0.376684 0.243512 -1.041719
C27   C     C_3   0.186086 0.623333 0.756437 -1.041722
C28   C     C_3   0.565185 0.757174 0.169387 -1.021891
C29   C     C_3   0.434837 0.242873 0.830653 -1.021863
C30   C     C_3   0.186160 0.623311 0.243485 -1.041708
C31   C     C_3   0.813883 0.376672 0.756464 -1.041707
C32   C     C_3   0.434797 0.242808 0.169396 -1.021867
C33   C     C_3   0.565183 0.757147 0.830641 -1.021838
C34   C     C_3   0.313850 0.123308 0.256543 -1.041572
C35   C     C_R   0.575742 0.667639 0.352530 -0.130361
C36   C     C_3   0.686109 0.876676 0.743506 -1.041574
C37   C     C_3   0.065179 0.742812 0.330592 -1.021918
C38   C     C_3   0.934843 0.257141 0.669369 -1.021891
C39   C     C_3   0.686140 0.876683 0.256514 -1.041618
C40   C     C_3   0.313903 0.123334 0.743537 -1.041619
C41   C     C_3   0.934817 0.257147 0.330618 -1.021934
C42   C     C_3   0.065162 0.742898 0.669343 -1.021908
C43   C     C_3   0.257205 0.934841 0.669416 -1.021927
C44   C     C_3   0.742800 0.065180 0.330584 -1.021924
C45   C     C_3   0.123334 0.313839 0.743487 -1.041609
C46   C     C_R   0.424266 0.332371 0.647478 -0.130357
C47   C     C_3   0.876683 0.686152 0.256522 -1.041619
C48   C     C_3   0.742835 0.065164 0.669390 -1.021945
C49   C     C_3   0.257159 0.934816 0.330610 -1.021940
C50   C     C_3   0.876677 0.686172 0.743455 -1.041564
C51   C     C_3   0.123307 0.313837 0.256552 -1.041570
C52   C     C_R   0.303647 0.604567 0.389114 -0.143957
C53   C     C_R   0.696362 0.395424 0.610869 -0.143968
C54   C     C_R   0.924251 0.167644 0.147467 -0.130362
C55   C     C_R   0.075741 0.832366 0.852525 -0.130360
C56   C     C_R   0.196339 0.104553 0.110914 -0.143963
C57   C     C_R   0.604568 0.303648 0.389115 -0.143956
C58   C     C_R   0.803653 0.895438 0.889101 -0.143975
C59   C     C_R   0.075745 0.832356 0.147467 -0.130359
C60   C     C_R   0.924264 0.167634 0.852525 -0.130356
C61   C     C_R   0.803651 0.895436 0.110896 -0.143970
C62   C     C_R   0.196359 0.104573 0.889120 -0.143981
C63   C     C_R   0.895436 0.803653 0.889102 -0.143959
C64   C     C_R   0.104554 0.196338 0.110914 -0.143961
C65   C     C_R   0.167636 0.924264 0.852526 -0.130355
C66   C     C_R   0.832356 0.075745 0.147466 -0.130358
C67   C     C_R   0.104575 0.196358 0.889121 -0.143966
C68   C     C_R   0.667635 0.575737 0.647474 -0.130356
C69   C     C_R   0.895435 0.803651 0.110896 -0.143968
C70   C     C_R   0.832364 0.075740 0.852526 -0.130358
C71   C     C_R   0.167644 0.924251 0.147467 -0.130362
C72   C     C_3   0.324998 0.324999 0.249343 0.001487
C73   C     C_3   0.674988 0.674984 0.750677 0.001486
C74   C     C_3   0.268289 0.731709 0.327790 -0.007280
C75   C     C_3   0.731733 0.268273 0.672179 -0.007286
C76   C     C_3   0.674991 0.674991 0.249330 0.001478
C77   C     C_3   0.325024 0.325028 0.750691 0.001478
C78   C     C_3   0.731710 0.268290 0.327790 -0.007280
C79   C     C_R   0.332358 0.424255 0.352533 -0.130358
C80   C     C_3   0.268269 0.731729 0.672179 -0.007286
C81   C     C_3   0.768290 0.768294 0.827777 -0.007275
C82   C     C_3   0.231690 0.231689 0.172252 -0.007270
C83   C     C_3   0.825023 0.174980 0.749312 0.001468
C84   C     C_3   0.174992 0.825001 0.250666 0.001467
C85   C     C_3   0.231728 0.231724 0.827808 -0.007283
C86   C     C_3   0.768293 0.768294 0.172223 -0.007277
C87   C     C_3   0.174984 0.825027 0.749312 0.001468
C88   C     C_3   0.825001 0.174992 0.250666 0.001467
C89   C     C_R   0.321266 0.678732 0.634125 0.115283
C90   C     C_R   0.604579 0.303639 0.610868 -0.143970
C91   C     C_R   0.678716 0.321284 0.365847 0.115291
C92   C     C_R   0.632228 0.632225 0.692233 0.097618
C93   C     C_R   0.367761 0.367761 0.307778 0.097630
C94   C     C_R   0.678734 0.321269 0.634125 0.115283
C95   C     C_R   0.321283 0.678716 0.365847 0.115291
C96   C     C_R   0.367779 0.367781 0.692238 0.097611
C97   C     C_R   0.632233 0.632233 0.307773 0.097625
C98   C     C_R   0.867759 0.132237 0.192221 0.097625
C99   C     C_R   0.132230 0.867776 0.807767 0.097611
C100  C     C_R   0.178693 0.178692 0.134201 0.115289
C101  C     C_R   0.395432 0.696352 0.389114 -0.143973
C102  C     C_R   0.821290 0.821293 0.865824 0.115282
C103  C     C_R   0.132238 0.867759 0.192221 0.097625
C104  C     C_R   0.867774 0.132227 0.807767 0.097611
C105  C     C_R   0.821290 0.821291 0.134172 0.115286
C106  C     C_R   0.178728 0.178726 0.865855 0.115279
C107  C     C_3   0.737897 0.648043 0.807712 0.293921
C108  C     C_3   0.262096 0.351938 0.192300 0.293914
C109  C     C_3   0.705043 0.205399 0.729375 0.298946
C110  C     C_3   0.294975 0.794595 0.270606 0.298938
C111  C     C_3   0.262120 0.351974 0.807730 0.293934
C112  C     C_R   0.332369 0.424266 0.647477 -0.130356
C113  C     C_3   0.737888 0.648046 0.192283 0.293928
C114  C     C_3   0.294962 0.794590 0.729388 0.298943
C115  C     C_3   0.705021 0.205417 0.270592 0.298936
C116  C     C_3   0.794601 0.294975 0.270610 0.298937
C117  C     C_3   0.205371 0.705043 0.729351 0.298939
C118  C     C_3   0.648045 0.737883 0.192279 0.293926
C119  C     C_3   0.351974 0.262148 0.807754 0.293923
C120  C     C_3   0.205411 0.705021 0.270596 0.298935
C121  C     C_3   0.794618 0.294962 0.729364 0.298936
C122  C     C_3   0.351939 0.262102 0.192295 0.293912
C123  C     C_R   0.667639 0.575742 0.352530 -0.130360
C124  C     C_3   0.648042 0.737868 0.807736 0.293909
C125  C     C_3   0.294584 0.205013 0.229431 0.298894
C126  C     C_3   0.705388 0.794971 0.770606 0.298896
C127  C     C_3   0.148041 0.762108 0.307713 0.293939
C128  C     C_3   0.851978 0.237860 0.692253 0.293935
C129  C     C_3   0.705404 0.794975 0.229406 0.298909
C130  C     C_3   0.294625 0.205043 0.770633 0.298911
C131  C     C_3   0.851954 0.237871 0.307727 0.293943
C132  C     C_3   0.148027 0.762160 0.692240 0.293939
C133  C     C_3   0.237889 0.851977 0.692277 0.293948
C134  C     C_R   0.424255 0.332358 0.352533 -0.130359
C135  C     C_3   0.762103 0.148042 0.307709 0.293940
C136  C     C_3   0.205042 0.294597 0.770609 0.298917
C137  C     C_3   0.794975 0.705410 0.229410 0.298910
C138  C     C_3   0.762131 0.148027 0.692264 0.293951
C139  C     C_3   0.237876 0.851953 0.307723 0.293945
C140  C     C_3   0.794971 0.705417 0.770582 0.298902
C141  C     C_3   0.205012 0.294578 0.229435 0.298895
C142  C     C_3   0.267305 0.267301 0.286889 -0.296986
C143  C     C_3   0.732671 0.732695 0.713136 -0.296983
C144  C     C_3   0.211114 0.788872 0.366613 -0.301980
H1    H     H_    0.422028 0.753114 0.608489 0.104434
H2    H     H_    0.541999 0.718248 0.662475 0.113492
H3    H     H_    0.644748 0.873893 0.694041 0.260449
H4    H     H_    0.658900 0.910294 0.791286 0.251457
H5    H     H_    0.740436 0.905260 0.724055 0.264141
H6    H     H_    0.065396 0.704408 0.382455 0.258295
H7    H     H_    0.032938 0.796994 0.344085 0.256659
H8    H     H_    0.036887 0.711692 0.281915 0.260736
H9    H     H_    0.934629 0.295540 0.617501 0.258292
H10   H     H_    0.963141 0.288262 0.718042 0.260732
H11   H     H_    0.967075 0.202954 0.655880 0.256658
H12   H     H_    0.644793 0.873903 0.305987 0.260460
H13   H     H_    0.753105 0.422039 0.391488 0.104450
H14   H     H_    0.740474 0.905260 0.275952 0.264153
H15   H     H_    0.658923 0.910304 0.208743 0.251464
H16   H     H_    0.355254 0.126114 0.694067 0.260459
H17   H     H_    0.341119 0.089721 0.791314 0.251467
H18   H     H_    0.259575 0.094748 0.724097 0.264146
H19   H     H_    0.934603 0.295533 0.382495 0.258299
H20   H     H_    0.967049 0.202956 0.344093 0.256661
H21   H     H_    0.963115 0.288280 0.281954 0.260744
H22   H     H_    0.065373 0.704516 0.617463 0.258296
H23   H     H_    0.036858 0.711765 0.718004 0.260741
H24   H     H_    0.246886 0.577970 0.608489 0.104459
H25   H     H_    0.032937 0.797095 0.655872 0.256659
H26   H     H_    0.295609 0.934626 0.617553 0.258295
H27   H     H_    0.203030 0.967097 0.655929 0.256657
H28   H     H_    0.288332 0.963116 0.718099 0.260728
H29   H     H_    0.704394 0.065398 0.382446 0.258295
H30   H     H_    0.711679 0.036892 0.281905 0.260735
H31   H     H_    0.796980 0.032936 0.344078 0.256659
H32   H     H_    0.126112 0.355181 0.694008 0.260459
H33   H     H_    0.094771 0.259497 0.724051 0.264146
H34   H     H_    0.089699 0.341055 0.791249 0.251461
H35   H     H_    0.542008 0.718257 0.337534 0.113498
H36   H     H_    0.873904 0.644807 0.305997 0.260461
H37   H     H_    0.910309 0.658936 0.208754 0.251463
H38   H     H_    0.905256 0.740488 0.275960 0.264154
H39   H     H_    0.704447 0.065377 0.617515 0.258299
H40   H     H_    0.797018 0.032916 0.655921 0.256659
H41   H     H_    0.711696 0.036883 0.718062 0.260736
H42   H     H_    0.295547 0.934601 0.382486 0.258299
H43   H     H_    0.288293 0.963110 0.281944 0.260743
H44   H     H_    0.202970 0.967052 0.344086 0.256661
H45   H     H_    0.873895 0.644822 0.693982 0.260450
H46   H     H_    0.458006 0.281756 0.662481 0.113500
H47   H     H_    0.905237 0.740514 0.724009 0.264141
H48   H     H_    0.910316 0.658965 0.791221 0.251451
H49   H     H_    0.126091 0.355193 0.306021 0.260451
H50   H     H_    0.089676 0.341044 0.208780 0.251452
H51   H     H_    0.094738 0.259501 0.276003 0.264149
H52   H     H_    0.246895 0.577961 0.391488 0.104438
H53   H     H_    0.753114 0.422031 0.608489 0.104447
H54   H     H_    0.957979 0.218266 0.162460 0.113500
H55   H     H_    0.042008 0.781747 0.837525 0.113502
H56   H     H_    0.253092 0.077950 0.108547 0.104430
H57   H     H_    0.577962 0.246895 0.391489 0.104436
H58   H     H_    0.746899 0.922042 0.891474 0.104439
H59   H     H_    0.042011 0.781736 0.162460 0.113503
H60   H     H_    0.958002 0.218250 0.837525 0.113505
H61   H     H_    0.746897 0.922040 0.108523 0.104439
H62   H     H_    0.253113 0.077969 0.891500 0.104447
H63   H     H_    0.922038 0.746899 0.891474 0.104426
H64   H     H_    0.077951 0.253091 0.108547 0.104428
H65   H     H_    0.218253 0.958002 0.837529 0.113513
H66   H     H_    0.781736 0.042011 0.162459 0.113503
H67   H     H_    0.077973 0.253113 0.891500 0.104435
H68   H     H_    0.718251 0.541998 0.662471 0.113500
H69   H     H_    0.922039 0.746898 0.108523 0.104437
H70   H     H_    0.781744 0.042008 0.837529 0.113510
H71   H     H_    0.218267 0.957979 0.162459 0.113501
H72   H     H_    0.258152 0.258144 0.350265 0.159791
H73   H     H_    0.741820 0.741863 0.649761 0.159793
H74   H     H_    0.203116 0.796861 0.430107 0.147528
H75   H     H_    0.796890 0.203095 0.569868 0.147530
H76   H     H_    0.741847 0.741854 0.350241 0.159791
H77   H     H_    0.258183 0.258140 0.649787 0.159793
H78   H     H_    0.796855 0.203109 0.430107 0.147528
H79   H     H_    0.281738 0.457988 0.337539 0.113491
H80   H     H_    0.203139 0.796934 0.569868 0.147530
H81   H     H_    0.703164 0.703120 0.930111 0.147534
H82   H     H_    0.296831 0.296838 0.069912 0.147531
H83   H     H_    0.758162 0.241862 0.850206 0.159795
H84   H     H_    0.241868 0.758144 0.149766 0.159793
H85   H     H_    0.296862 0.296907 0.930132 0.147535
H86   H     H_    0.703143 0.703137 0.069893 0.147533
H87   H     H_    0.241819 0.758119 0.850206 0.159795
H88   H     H_    0.758152 0.241875 0.149766 0.159793
H89   H     H_    0.795650 0.565415 0.882432 0.258283
H90   H     H_    0.577973 0.246886 0.608489 0.104446
H91   H     H_    0.703038 0.532943 0.844130 0.256657
H92   H     H_    0.788300 0.536885 0.781901 0.260716
H93   H     H_    0.204355 0.434563 0.117567 0.258284
H94   H     H_    0.211712 0.463108 0.218092 0.260723
H95   H     H_    0.296973 0.467025 0.155861 0.256659
H96   H     H_    0.626106 0.144815 0.805969 0.260468
H97   H     H_    0.594763 0.240488 0.775913 0.264154
H98   H     H_    0.589707 0.158927 0.708726 0.251481
H99   H     H_    0.373909 0.855199 0.194026 0.260469
H100  H     H_    0.410301 0.841082 0.291272 0.251482
H101  H     H_    0.422038 0.753104 0.391489 0.104448
H102  H     H_    0.405264 0.759528 0.224075 0.264161
H103  H     H_    0.204387 0.434611 0.882455 0.258289
H104  H     H_    0.296984 0.467080 0.844118 0.256658
H105  H     H_    0.211703 0.463125 0.781918 0.260718
H106  H     H_    0.795608 0.565412 0.117544 0.258289
H107  H     H_    0.788287 0.536883 0.218077 0.260726
H108  H     H_    0.703005 0.532952 0.155875 0.256660
H109  H     H_    0.373900 0.855152 0.805996 0.260472
H110  H     H_    0.405228 0.759475 0.775942 0.264156
H111  H     H_    0.410312 0.841038 0.708759 0.251472
H112  H     H_    0.281754 0.458006 0.662477 0.113508
H113  H     H_    0.626084 0.144835 0.193998 0.260474
H114  H     H_    0.589680 0.158955 0.291237 0.251474
H115  H     H_    0.594746 0.240511 0.224045 0.264164
H116  H     H_    0.855214 0.373908 0.194037 0.260469
H117  H     H_    0.759543 0.405268 0.224082 0.264160
H118  H     H_    0.841095 0.410296 0.291283 0.251483
H119  H     H_    0.144742 0.626108 0.805910 0.260468
H120  H     H_    0.158862 0.589729 0.708661 0.251487
H121  H     H_    0.240410 0.594739 0.775868 0.264153
H122  H     H_    0.565410 0.795595 0.117535 0.258289
H123  H     H_    0.718258 0.542008 0.337535 0.113499
H124  H     H_    0.532955 0.702991 0.155868 0.256661
H125  H     H_    0.536878 0.788275 0.218067 0.260727
H126  H     H_    0.434615 0.204456 0.882507 0.258286
H127  H     H_    0.463150 0.211772 0.781976 0.260723
H128  H     H_    0.467059 0.297061 0.844167 0.256659
H129  H     H_    0.144821 0.626085 0.194008 0.260473
H130  H     H_    0.240496 0.594742 0.224053 0.264163
H131  H     H_    0.158942 0.589685 0.291248 0.251475
H132  H     H_    0.855226 0.373899 0.805938 0.260472
H133  H     H_    0.841102 0.410289 0.708694 0.251478
H134  H     H_    0.457989 0.281739 0.337539 0.113490
H135  H     H_    0.759553 0.405251 0.775896 0.264156
H136  H     H_    0.434565 0.204369 0.117557 0.258283
H137  H     H_    0.467022 0.296988 0.155853 0.256660
H138  H     H_    0.463113 0.211725 0.218082 0.260724
H139  H     H_    0.565411 0.795581 0.882484 0.258280
H140  H     H_    0.536860 0.788231 0.781959 0.260721
H141  H     H_    0.532965 0.702961 0.844179 0.256658
H142  H     H_    0.355208 0.126092 0.306010 0.260451
H143  H     H_    0.259517 0.094734 0.275995 0.264148
H144  H     H_    0.341057 0.089681 0.208768 0.251453
N1    N     N_R   0.424590 0.632770 0.578330 -0.039424
N2    N     N_R   0.575410 0.632770 0.578330 -0.046832
N3    N     N_R   0.632770 0.424590 0.421670 -0.039425
N4    N     N_R   0.367230 0.575410 0.578330 -0.039424
N5    N     N_R   0.575410 0.632770 0.421670 -0.046831
N6    N     N_R   0.424590 0.367230 0.578330 -0.046832
N7    N     N_R   0.367230 0.575410 0.421670 -0.039425
N8    N     N_R   0.632770 0.424590 0.578330 -0.039424
N9    N     N_R   0.924590 0.132770 0.078330 -0.046830
N10   N     N_R   0.075410 0.867230 0.921670 -0.046830
N11   N     N_R   0.132770 0.075410 0.078330 -0.039427
N12   N     N_R   0.575410 0.367230 0.421670 -0.039425
N13   N     N_R   0.867230 0.924590 0.921670 -0.039426
N14   N     N_R   0.075410 0.867230 0.078330 -0.046830
N15   N     N_R   0.924590 0.132770 0.921670 -0.046830
N16   N     N_R   0.867230 0.924590 0.078330 -0.039426
N17   N     N_R   0.132770 0.075410 0.921670 -0.039425
N18   N     N_R   0.924590 0.867230 0.921670 -0.039425
N19   N     N_R   0.075410 0.132770 0.078330 -0.039426
N20   N     N_R   0.132770 0.924590 0.921670 -0.046831
N21   N     N_R   0.867230 0.075410 0.078330 -0.046830
N22   N     N_R   0.075410 0.132770 0.921670 -0.039424
N23   N     N_R   0.632770 0.575410 0.578330 -0.046832
N24   N     N_R   0.924590 0.867230 0.078330 -0.039425
N25   N     N_R   0.867230 0.075410 0.921670 -0.046831
N26   N     N_R   0.132770 0.924590 0.078330 -0.046830
N27   N     N_R   0.367230 0.424590 0.421670 -0.046832
N28   N     N_R   0.575410 0.367230 0.578330 -0.039424
N29   N     N_R   0.424590 0.632770 0.421670 -0.039425
N30   N     N_R   0.367230 0.424590 0.578330 -0.046832
N31   N     N_R   0.632770 0.575410 0.421670 -0.046831
N32   N     N_R   0.424590 0.367230 0.421670 -0.046832
Ni1   Ni    Ni4+2 0.500000 0.631570 0.500000 0.207686
Ni2   Ni    Ni4+2 0.500000 0.368430 0.500000 0.207686
Ni3   Ni    Ni4+2 0.631570 0.500000 0.500000 0.207686
Ni4   Ni    Ni4+2 0.368430 0.500000 0.500000 0.207686
Ni5   Ni    Ni4+2 0.000000 0.131570 0.000000 0.207688
Ni6   Ni    Ni4+2 0.000000 0.868430 0.000000 0.207688
Ni7   Ni    Ni4+2 0.131570 0.000000 0.000000 0.207689
Ni8   Ni    Ni4+2 0.868430 0.000000 0.000000 0.207689

loop_
_geom_bond_atom_site_label_1
_geom_bond_atom_site_label_2
_ccdc_geom_bond_type
C5    C136  S    
C33   H139  S    
C81   C126  S    
C78   C115  S    
C52   H52   S    
C44   H31   S    
C83   C128  S    
C23   H109  S    
C57   N12   A    
C21   H103  S    
C9    C108  S    
C72   C142  S    
C29   C119  S    
C46   H46   S    
C7    C133  S    
C17   C107  S    
C50   C140  S    
N26   Ni7   S    
N17   N22   A    
C126  C143  S    
C119  C130  S    
C107  C140  S    
C43   C133  S    
C117  C132  S    
C74   C144  S    
C36   H4    S    
C22   C113  S    
C55   H55   S    
C49   H42   S    
N6    Ni2   S    
C11   H84   S    
C67   H67   S    
C9    H82   S    
C61   C105  A    
C18   H93   S    
C59   N14   A    
C44   C135  S    
C19   C109  S    
N28   Ni2   S    
C30   H131  S    
C13   C91   A    
C82   C141  S    
C31   H132  S    
C66   N21   A    
C27   C117  S    
N31   Ni3   S    
C123  N31   A    
C8    C81   S    
C70   H70   S    
C65   C99   A    
C121  C128  S    
C48   H40   S    
C69   C105  A    
C76   C118  S    
C82   C125  S    
C40   H18   S    
C55   N10   A    
N23   Ni3   S    
C1    N1    A    
C3    C138  S    
C50   H47   S    
C7    C132  S    
C5    C130  S    
C35   N5    A    
C33   H141  S    
N24   Ni6   S    
C113  C137  S    
C69   N24   A    
C5    C77   S    
C32   H137  S    
C16   C115  S    
C42   H23   S    
N16   N24   A    
N29   Ni1   S    
C80   C117  S    
C36   C126  S    
C88   C135  S    
C74   C110  S    
C38   C128  S    
C62   C106  A    
C11   C84   S    
C74   C120  S    
C48   C138  S    
C53   H53   S    
C118  C129  S    
C28   C118  S    
N11   N19   A    
C49   H44   S    
C30   C120  S    
C34   C125  S    
C27   H120  S    
C68   C92   A    
C18   C108  S    
C14   H86   S    
C58   N13   A    
C112  H112  S    
C19   H97   S    
C22   H107  S    
C46   C96   A    
C58   H58   S    
C30   H129  S    
C41   H20   S    
N20   Ni7   S    
C51   H51   S    
C70   N25   A    
N21   Ni8   S    
C62   H62   S    
C83   C138  S    
C56   H56   S    
C20   H99   S    
C1    H1    S    
C140  C143  S    
C37   H6    S    
C47   H37   S    
C120  C127  S    
N1    Ni1   S    
C12   H85   S    
N27   N32   A    
C47   H36   S    
C44   H30   S    
C22   H106  S    
C111  C136  S    
C6    C78   S    
C112  N30   A    
C10   C109  S    
C50   H45   S    
C4    C137  S    
C60   H60   S    
C72   C108  S    
C34   H144  S    
C68   N23   A    
C66   H66   S    
C3    C75   S    
C25   H113  S    
C73   C124  S    
C62   N17   A    
C11   C110  S    
C63   N18   A    
C38   H11   S    
C63   C102  A    
C11   C120  S    
N2    Ni1   S    
C13   H13   S    
N5    N31   A    
C51   C141  S    
C35   H35   S    
N7    N29   A    
C29   H127  S    
C14   C86   S    
C51   H49   S    
C43   H27   S    
C3    C128  S    
C39   C129  S    
C109  C138  S    
N32   Ni2   S    
C6    C135  S    
C123  H123  S    
N27   Ni4   S    
C12   C119  S    
C76   C113  S    
N3    N12   A    
C90   N28   A    
C45   H34   S    
C20   C110  S    
C49   C139  S    
C39   H14   S    
C10   H83   S    
C37   H8    S    
C85   C106  S    
C68   H68   S    
C8    C107  S    
C124  C126  S    
C22   H108  S    
C17   H92   S    
C71   C103  A    
C15   H87   S    
C53   C94   A    
C78   C116  S    
C73   C92   S    
C79   H79   S    
C77   C96   S    
N30   Ni4   S    
C59   C103  A    
C2    N2    A    
C122  C125  S    
C142  H72   S    
C48   H41   S    
C97   C123  A    
C115  C135  S    
C71   H71   S    
C34   H142  S    
N14   Ni6   S    
C85   C136  S    
C25   H115  S    
N2    N23   A    
C26   H116  S    
N17   Ni7   S    
C57   H57   S    
C38   H10   S    
C46   N6    A    
C38   H9    S    
C6    H78   S    
C60   C104  A    
C88   C98   S    
C95   C101  A    
C61   H61   S    
N6    N30   A    
N8    N28   A    
C81   C140  S    
C101  H101  S    
C26   H117  S    
N9    Ni5   S    
C110  C139  S    
C70   C104  A    
C73   C107  S    
C10   C83   S    
N1    N4    A    
C52   C95   A    
C80   C89   S    
C77   C111  S    
N15   Ni5   S    
C86   C137  S    
N12   Ni2   S    
C43   H26   S    
C84   C139  S    
C4    H76   S    
N8    Ni3   S    
N5    Ni1   S    
C33   C124  S    
C58   C102  A    
C50   H48   S    
C53   N8    A    
C9    C82   S    
C33   H140  S    
C63   H63   S    
N14   N26   A    
C79   N27   A    
N16   Ni8   S    
C23   H110  S    
C32   H138  S    
C16   C116  S    
C108  C141  S    
C21   C111  S    
C90   C94   A    
C21   H104  S    
C101  N29   A    
C56   N11   A    
C134  H134  S    
C32   C122  S    
C69   H69   S    
C134  N32   A    
C8    C124  S    
C76   C97   S    
C15   C117  S    
C65   N20   A    
C85   C130  S    
C143  H73   S    
C96   C112  A    
C36   H3    S    
C49   H43   S    
C27   H119  S    
C9    C122  S    
N9    N21   A    
C24   N4    A    
C31   C121  S    
C26   H118  S    
C72   C93   S    
C30   H130  S    
C41   H19   S    
C41   C131  S    
C73   C143  S    
C20   H100  S    
C40   C130  S    
N11   Ni7   S    
C28   H125  S    
C57   C91   A    
C39   H15   S    
C40   H16   S    
C6    C131  S    
C28   H124  S    
C48   H39   S    
C8    H81   S    
N4    Ni4   S    
C67   C106  A    
C4    C129  S    
C67   N22   A    
C17   H89   S    
C14   C113  S    
N18   Ni6   S    
C40   H17   S    
C23   C114  S    
C7    H80   S    
C66   C98   A    
C27   H121  S    
N13   N18   A    
C127  C144  S    
C52   N7    A    
C71   N26   A    
C59   H59   S    
C64   C100  A    
C3    H75   S    
C16   C88   S    
C42   C132  S    
N19   Ni5   S    
C19   H96   S    
C42   H22   S    
C75   C94   S    
N10   N20   A    
C7    C80   S    
C5    H77   S    
N7    Ni4   S    
C87   C133  S    
C10   C121  S    
C24   C89   A    
C144  H74   S    
C64   H64   S    
C61   N16   A    
C12   C85   S    
C29   H126  S    
C24   H24   S    
C79   C93   A    
C25   C115  S    
C21   H105  S    
C36   H5    S    
N15   N25   A    
N10   Ni6   S    
C28   H122  S    
C90   H90   S    
N22   Ni5   S    
C64   N19   A    
C19   H98   S    
C14   C118  S    
C41   H21   S    
C31   H135  S    
C65   H65   S    
C32   H136  S    
C45   H33   S    
C84   C127  S    
C20   H102  S    
C37   H7    S    
C47   H38   S    
C87   C99   S    
C81   C102  S    
C17   H91   S    
C75   C109  S    
C83   C104  S    
C44   H29   S    
C23   H111  S    
C93   C134  A    
C45   H32   S    
C16   H88   S    
C87   C132  S    
C139  C144  S    
N3    Ni3   S    
C125  C142  S    
C42   H25   S    
C34   H143  S    
C47   C137  S    
C15   C114  S    
C2    C92   A    
C54   N9    A    
C25   H114  S    
C80   C114  S    
C13   N3    A    
C86   C105  S    
C56   C100  A    
C55   C99   A    
C18   H95   S    
C15   C87   S    
C60   N15   A    
C45   C136  S    
C1    C89   A    
C72   C122  S    
C75   C121  S    
C29   H128  S    
C82   C100  S    
C74   C95   S    
C77   C119  S    
C51   H50   S    
C43   H28   S    
C86   C129  S    
C88   C131  S    
C78   C91   S    
C2    H2    S    
C54   H54   S    
C39   H12   S    
C141  C142  S    
C116  C131  S    
C114  C133  S    
N25   Ni8   S    
C31   H133  S    
C26   C116  S    
C4    C76   S    
C18   H94   S    
C84   C103  S    
C54   C98   A    
C37   C127  S    
C35   C97   A    
C12   C111  S    
N13   Ni8   S    
