data_mof_unit_17240.cif
_audit_creation_date              2012-12-10T17:01:33-0500
_audit_creation_method            fapswitch 2.2
_symmetry_space_group_name_H-M    P1
_symmetry_Int_Tables_number       1
_space_group_crystal_system       triclinic
_cell_length_a                    9.834992
_cell_length_b                    11.033369
_cell_length_c                    13.020543
_cell_angle_alpha                 90.147316
_cell_angle_beta                  74.425597
_cell_angle_gamma                 110.670525
_cell_volume                      1266.72535194

loop_
_atom_site_label
_atom_site_type_symbol
_atom_type_description
_atom_site_fract_x
_atom_site_fract_y
_atom_site_fract_z
_atom_type_partial_charge
C1    C     C_R   0.439832 0.254002 0.507759 0.864667
C2    C     C_R   0.702958 0.551501 0.993357 -0.234018
C3    C     C_R   0.303395 0.448573 0.898296 0.435347
C4    C     C_R   0.696605 0.551427 0.101704 0.435347
C5    C     C_R   0.579758 0.519591 0.853609 -0.271967
C6    C     C_R   0.420241 0.480408 0.146391 -0.271967
C7    C     C_R   0.570926 0.517662 0.961626 0.088079
C8    C     C_R   0.429074 0.482337 0.038374 0.088076
C9    C     C_2   0.405814 0.114969 0.512050 -0.316653
C10   C     C_2   0.594186 0.885031 0.487949 -0.316652
C11   C     C_2   0.517228 0.069514 0.497916 -0.139879
C12   C     C_R   0.560168 0.745997 0.492241 0.864668
C13   C     C_2   0.482772 0.930486 0.502084 -0.139879
C14   C     C_2   0.083491 0.511508 0.491471 -0.060735
C15   C     C_2   0.916509 0.488492 0.508529 -0.060735
C16   C     C_R   0.470128 0.492769 0.703753 0.837978
C17   C     C_R   0.529872 0.507231 0.296247 0.837979
C18   C     C_R   0.551567 0.513856 0.180001 -0.187536
C19   C     C_R   0.448433 0.486144 0.819999 -0.187539
C20   C     C_R   0.297041 0.448498 0.006643 -0.234010
Cu1   Cu    Cu3+1 0.647370 0.522180 0.481340 1.023706
Cu2   Cu    Cu3+1 0.352630 0.477820 0.518660 1.023706
H1    H     H_    0.309380 0.451793 0.204551 0.186132
H2    H     H_    0.166893 0.587250 0.430111 0.160367
H3    H     H_    0.950723 0.627376 0.396115 0.234171
H4    H     H_    0.049277 0.372624 0.603885 0.234172
H5    H     H_    0.109600 0.657943 0.040750 0.379213
H6    H     H_    0.890404 0.342081 0.959254 0.379213
H7    H     H_    0.690619 0.548206 0.795449 0.186132
H8    H     H_    0.188578 0.421402 0.067178 0.213371
H9    H     H_    0.811421 0.578597 0.932822 0.213369
H10   H     H_    0.365390 0.865004 0.516850 0.185764
H11   H     H_    0.634610 0.134996 0.483149 0.185764
H12   H     H_    0.711373 0.950805 0.473177 0.160667
H13   H     H_    0.288627 0.049195 0.526823 0.160667
H14   H     H_    0.833106 0.412750 0.569888 0.160367
N1    N     N_2   0.131210 0.444490 0.546730 -0.257297
N2    N     N_2   0.868790 0.555510 0.453270 -0.257297
O1    O     O_R   0.578710 0.332530 0.490040 -0.584203
O2    O     O_2   0.883512 0.488958 0.189920 -0.283510
O3    O     O_3   0.018844 0.651575 0.018398 -0.500432
O4    O     O_2   0.116489 0.511044 0.810080 -0.283514
O5    O     O_2   0.113195 0.287669 0.799615 -0.288598
O6    O     O_3   0.981156 0.348427 0.981602 -0.500426
O7    O     O_R   0.421290 0.667470 0.509960 -0.584203
O8    O     O_R   0.329810 0.295070 0.521560 -0.564655
O9    O     O_R   0.670190 0.704930 0.478440 -0.564655
O10   O     O_R   0.604230 0.515670 0.637800 -0.603253
O11   O     O_R   0.395770 0.484330 0.362200 -0.603254
O12   O     O_R   0.355330 0.478200 0.669330 -0.493752
O13   O     O_R   0.644670 0.521800 0.330670 -0.493751
O14   O     O_2   0.886804 0.712332 0.200385 -0.288604
S1    S     S_3+6 0.873573 0.601541 0.131507 0.017024
S2    S     S_3+6 0.126427 0.398460 0.868493 0.017031

loop_
_geom_bond_atom_site_label_1
_geom_bond_atom_site_label_2
_ccdc_geom_bond_type
C2    C4    A    
H4    N1    S    
C3    C19   A    
C5    C19   A    
H3    N2    S    
C9    C11   D    
H5    O3    S    
O5    S2    D    
C2    C7    A    
Cu1   O1    S    
Cu1   O13   S    
Cu2   O12   S    
Cu1   O10   S    
C4    C18   A    
C17   O13   A    
C17   C18   S    
C3    C20   A    
C10   H12   S    
C20   H8    S    
Cu1   Cu2   S    
O4    S2    D    
C14   N1    D    
C16   O10   A    
C11   C13   S    
O3    S1    S    
C8    C20   A    
C15   N2    D    
C10   C12   S    
C12   O9    A    
C6    H1    S    
Cu2   O8    S    
C16   O12   A    
C5    H7    S    
Cu2   O11   S    
C16   C19   S    
C6    C18   A    
C3    S2    S    
C1    O8    A    
C4    S1    S    
C7    C8    A    
C1    O1    A    
C14   H2    S    
O6    S2    S    
C15   H14   S    
C11   H11   S    
Cu2   O7    S    
C1    C9    S    
O14   S1    D    
C9    H13   S    
O2    S1    D    
C17   O11   A    
C5    C7    A    
C14   C15   S    
C12   O7    A    
C6    C8    A    
C13   H10   S    
Cu2   N1    S    
H6    O6    S    
Cu1   N2    S    
C2    H9    S    
Cu1   O9    S    
C10   C13   D    
