data_mof_unit_36041.cif
_audit_creation_date              2012-12-11T17:41:44-0500
_audit_creation_method            fapswitch 2.2
_symmetry_space_group_name_H-M    P1
_symmetry_Int_Tables_number       1
_space_group_crystal_system       triclinic
_cell_length_a                    15.517418
_cell_length_b                    14.839897
_cell_length_c                    14.865256
_cell_angle_alpha                 109.669568
_cell_angle_beta                  121.463911
_cell_angle_gamma                 59.223668
_cell_volume                      2497.31441315

loop_
_atom_site_label
_atom_site_type_symbol
_atom_type_description
_atom_site_fract_x
_atom_site_fract_y
_atom_site_fract_z
_atom_type_partial_charge
C1    C     C_R   0.748615 0.998249 0.792078 -0.117006
C2    C     C_R   0.151129 0.219219 0.972359 -0.123520
C3    C     C_R   0.702930 0.661272 0.866432 0.044566
C4    C     C_R   0.257147 0.144224 0.981425 0.036902
C5    C     C_R   0.699324 0.746820 0.946853 0.075256
C6    C     C_R   0.281126 0.035652 0.963906 0.057628
C7    C     C_R   0.798860 0.757346 0.021383 -0.195629
C8    C     C_R   0.197348 0.004728 0.933738 -0.177223
C9    C     C_R   0.899386 0.685877 0.015670 -0.104157
C10   C     C_R   0.091926 0.080305 0.924189 -0.123095
C11   C     C_R   0.902229 0.602507 0.936106 -0.131017
C12   C     C_R   0.195593 0.063517 0.226503 -0.134461
C13   C     C_R   0.068885 0.187412 0.944018 -0.154227
C14   C     C_R   0.588608 0.845128 0.051885 -0.233237
C15   C     C_R   0.394931 0.923868 0.872051 -0.236746
C16   C     C_R   0.244392 0.290872 0.491832 -0.119983
C17   C     C_R   0.800690 0.725053 0.559837 -0.131277
C18   C     C_R   0.489784 0.918675 0.061924 0.066519
C19   C     C_R   0.497161 0.879344 0.869325 0.038572
C20   C     C_R   0.390078 0.954054 0.968230 0.031039
C21   C     C_R   0.593696 0.824442 0.955182 0.034142
C22   C     C_2   0.152526 0.398015 0.617042 -0.216523
C23   C     C_R   0.213283 0.300094 0.568050 0.150099
C24   C     C_2   0.978617 0.653984 0.539943 -0.231480
C25   C     C_2   0.135568 0.490909 0.602608 -0.105839
C26   C     C_2   0.039982 0.584244 0.611517 -0.114380
C27   C     C_2   0.825380 0.135998 0.901979 -0.233367
C28   C     C_2   0.014355 0.047899 0.157609 -0.218719
C29   C     C_R   0.207199 0.745456 0.518165 0.089426
C30   C     C_R   0.755812 0.111257 0.281504 0.097945
C31   C     C_R   0.299576 0.668744 0.499471 -0.163840
C32   C     C_R   0.665457 0.203327 0.290287 -0.156930
C33   C     C_R   0.291501 0.640184 0.396008 0.099270
C34   C     C_R   0.863229 0.726071 0.519844 0.155808
C35   C     C_R   0.682236 0.278927 0.377748 0.117533
C36   C     C_R   0.189267 0.688575 0.311088 -0.174196
C37   C     C_R   0.790960 0.259782 0.457370 -0.164217
C38   C     C_R   0.097018 0.765128 0.329765 -0.147674
C39   C     C_R   0.881212 0.167999 0.448416 -0.119562
C40   C     C_R   0.589484 0.214451 0.477720 -0.142871
C41   C     C_R   0.406207 0.768513 0.446532 -0.122353
C42   C     C_R   0.105757 0.793505 0.432898 -0.166333
C43   C     C_R   0.863941 0.094072 0.360612 -0.158123
C44   C     C_R   0.388009 0.459825 0.332599 -0.003391
C45   C     C_R   0.495925 0.293966 0.415359 0.081618
C46   C     C_R   0.583765 0.476853 0.405327 -0.017393
C47   C     C_R   0.488838 0.370449 0.365657 -0.035871
C48   C     C_R   0.490990 0.567635 0.417153 -0.015117
C49   C     C_R   0.585291 0.376313 0.386086 0.001160
C50   C     C_R   0.389985 0.557747 0.377491 -0.001288
C51   C     C_2   0.852703 0.111657 0.995047 -0.098358
C52   C     C_2   0.951598 0.119701 0.087616 -0.107905
C53   C     C_R   0.408534 0.979418 0.712027 -0.131274
C54   C     C_R   0.590080 0.950573 0.265144 -0.114996
C55   C     C_R   0.406451 0.286710 0.405854 -0.135800
C56   C     C_R   0.496695 0.671082 0.463405 0.060151
C57   C     C_R   0.590882 0.691937 0.531026 -0.144396
C58   C     C_R   0.592034 0.907126 0.788197 -0.150289
C59   C     C_R   0.405048 0.021345 0.193330 -0.147052
C60   C     C_R   0.243673 0.199142 0.584202 -0.148988
C61   C     C_R   0.801479 0.816184 0.468304 -0.160550
C62   C     C_R   0.748456 0.091943 0.701428 -0.151906
C63   C     C_R   0.195678 0.971195 0.316662 -0.169216
C64   C     C_R   0.774138 0.079209 0.802419 0.144091
C65   C     C_R   0.131759 0.025281 0.227950 0.157703
C66   C     C_R   0.500397 0.919532 0.793626 0.061493
C67   C     C_R   0.494888 0.960358 0.168947 0.044748
C68   C     C_R   0.804585 0.590133 0.862081 -0.129543
H1    H     H_    0.757690 0.966808 0.853691 0.092321
H2    H     H_    0.213904 0.922014 0.917665 0.127056
H3    H     H_    0.975231 0.695231 0.072991 0.106838
H4    H     H_    0.028450 0.055049 0.900830 0.131047
H5    H     H_    0.663223 0.807684 0.120009 0.125734
H6    H     H_    0.318038 0.954008 0.802686 0.123461
H7    H     H_    0.009619 0.585410 0.663341 0.126703
H8    H     H_    0.177099 0.495575 0.565059 0.130878
H9    H     H_    0.009877 0.651553 0.488129 0.138191
H10   H     H_    0.109653 0.394350 0.653884 0.128253
H11   H     H_    0.033852 0.852687 0.446657 0.103513
H12   H     H_    0.166654 0.121852 0.177484 0.099097
H13   H     H_    0.934337 0.023328 0.354181 0.103003
H14   H     H_    0.231941 0.353234 0.458523 0.091033
H15   H     H_    0.828062 0.673717 0.615284 0.083342
H16   H     H_    0.377746 0.631571 0.565419 0.120286
H17   H     H_    0.582206 0.216154 0.228666 0.117332
H18   H     H_    0.018703 0.802685 0.264295 0.106827
H19   H     H_    0.964654 0.153922 0.509908 0.113080
H20   H     H_    0.674499 0.188909 0.493720 0.111918
H21   H     H_    0.320646 0.786160 0.393489 0.125008
H22   H     H_    0.323019 0.993450 0.681857 0.085187
H23   H     H_    0.982318 0.996979 0.156314 0.123042
H24   H     H_    0.675751 0.908392 0.277483 0.090675
H25   H     H_    0.320253 0.325587 0.354168 0.087335
H26   H     H_    0.676384 0.636783 0.566063 0.095191
H27   H     H_    0.677716 0.856007 0.831166 0.115449
H28   H     H_    0.318856 0.040967 0.143305 0.130805
H29   H     H_    0.231599 0.177526 0.638015 0.098941
H30   H     H_    0.831817 0.848592 0.441400 0.092635
H31   H     H_    0.756869 0.149184 0.680535 0.104586
H32   H     H_    0.165217 0.945722 0.350219 0.106262
H33   H     H_    0.982555 0.170893 0.087869 0.131037
H34   H     H_    0.856712 0.185253 0.899361 0.126538
H35   H     H_    0.819636 0.064449 0.998532 0.124936
H36   H     H_    0.567206 0.642851 0.830548 0.115658
H37   H     H_    0.551118 0.703701 0.740760 0.114688
H38   H     H_    0.364930 0.148988 0.947258 0.117655
H39   H     H_    0.406793 0.150004 0.077930 0.111593
H40   H     H_    0.196477 0.854909 0.641411 0.093630
H41   H     H_    0.158641 0.760505 0.626465 0.109456
H42   H     H_    0.768942 0.963982 0.220382 0.080919
H43   H     H_    0.782339 0.024782 0.153663 0.093656
H44   H     H_    0.181617 0.667855 0.230896 0.122006
H45   H     H_    0.980311 0.547116 0.931988 0.106999
H46   H     H_    0.805806 0.314827 0.527259 0.108154
H47   H     H_    0.232614 0.474878 0.287435 0.106873
H48   H     H_    0.300125 0.376063 0.215598 0.104981
H49   H     H_    0.733109 0.485984 0.481423 0.089945
H50   H     H_    0.640482 0.552802 0.370403 0.127353
H51   H     H_    0.987113 0.246145 0.936656 0.108770
H52   H     H_    0.807945 0.524678 0.801082 0.109858
H53   H     H_    0.132100 0.302420 0.986420 0.112782
H54   H     H_    0.798480 0.821847 0.083250 0.109163
N1    N     N_R   0.705410 0.966550 0.689210 -0.045443
N2    N     N_R   0.556610 0.796750 0.548620 -0.038205
N3    N     N_R   0.556610 0.951620 0.703500 -0.039900
N4    N     N_R   0.443390 0.048380 0.296500 -0.041907
N5    N     N_R   0.294590 0.131500 0.522480 -0.040861
N6    N     N_R   0.705410 0.868500 0.477520 -0.039739
N7    N     N_R   0.705410 0.023370 0.632390 -0.041901
N8    N     N_R   0.294590 0.976630 0.367610 -0.040860
N9    N     N_3   0.605947 0.642876 0.790384 -0.224671
N10   N     N_3   0.338421 0.179753 0.007369 -0.225238
N11   N     N_3   0.217225 0.774038 0.624067 -0.220911
N12   N     N_R   0.294590 0.033450 0.310790 -0.044137
N13   N     N_3   0.736855 0.035475 0.192039 -0.217855
N14   N     N_3   0.285341 0.452696 0.252830 -0.219573
N15   N     N_3   0.671663 0.484840 0.404255 -0.203484
N16   N     N_R   0.294590 0.188320 0.465660 -0.044795
N17   N     N_R   0.705410 0.811680 0.534340 -0.042791
N18   N     N_R   0.556610 0.157790 0.497330 -0.040273
N19   N     N_R   0.443390 0.842210 0.502670 -0.042481
N20   N     N_R   0.443390 0.997080 0.657540 -0.037575
N21   N     N_R   0.556610 0.002920 0.342460 -0.037933
N22   N     N_R   0.443390 0.203250 0.451380 -0.040357
Ni1   Ni    Ni4+2 0.629830 0.882720 0.617850 0.211565
Ni2   Ni    Ni4+2 0.370170 0.117280 0.382150 0.208457
Ni3   Ni    Ni4+2 0.629830 0.013030 0.487540 0.213591
Ni4   Ni    Ni4+2 0.370170 0.986970 0.512460 0.211247

loop_
_geom_bond_atom_site_label_1
_geom_bond_atom_site_label_2
_ccdc_geom_bond_type
C44   N14   S    
C29   N11   S    
C63   C65   A    
C29   C42   A    
C28   C52   D    
C14   C18   A    
C41   H21   S    
C3    C68   A    
C39   H19   S    
C55   H25   S    
C54   H24   S    
N4    Ni2   S    
C11   H45   S    
C47   C49   A    
C59   N4    A    
C15   C19   A    
C46   C49   A    
C38   H18   S    
C3    N9    S    
C35   C49   S    
C14   C21   A    
C19   C21   A    
N6    N17   A    
C24   C26   D    
C38   C42   A    
C8    C10   A    
H47   N14   S    
C32   H17   S    
C51   H35   S    
C40   N18   A    
N4    N21   A    
C33   C36   A    
C56   C57   A    
H37   N9    S    
C19   C66   S    
C48   C56   S    
C53   N20   A    
C63   N8    A    
C2    C13   A    
C62   C64   A    
N19   Ni4   S    
C59   C67   A    
C58   C66   A    
N1    Ni1   S    
H36   N9    S    
C36   H44   S    
C31   C33   A    
N5    N16   A    
C28   H23   S    
H50   N15   S    
C44   C47   A    
N5    Ni4   S    
C48   C50   A    
C54   N21   A    
C42   H11   S    
C12   N12   A    
N1    N7    A    
C23   C60   A    
C62   N7    A    
H42   N13   S    
N8    N12   A    
H49   N15   S    
N18   Ni3   S    
C13   H51   S    
C27   C51   D    
C45   C47   S    
C40   C45   A    
N12   Ni2   S    
C46   C48   A    
C52   H33   S    
H41   N11   S    
C51   C52   S    
C32   C35   A    
N20   Ni4   S    
C22   H10   S    
N22   Ni2   S    
C60   H29   S    
C5    C7    A    
C39   C43   A    
C37   H46   S    
C25   C26   S    
N8    Ni4   S    
C22   C25   D    
C34   C61   A    
C24   C34   S    
C31   H16   S    
C15   C20   A    
C17   H15   S    
N21   Ni3   S    
C58   H27   S    
C1    N1    A    
C41   C56   A    
C41   N19   A    
C63   H32   S    
C14   H5    S    
N3    N20   A    
C16   H14   S    
C26   H7    S    
C17   N17   A    
C53   C66   A    
C9    C11   A    
C46   N15   S    
H48   N14   S    
C4    C6    A    
C16   C23   A    
C57   H26   S    
C43   H13   S    
N2    N19   A    
C17   C34   A    
C7    H54   S    
C1    C64   A    
C11   C68   A    
N2    Ni1   S    
C2    H53   S    
C44   C50   A    
C7    C9    A    
N17   Ni1   S    
C55   N22   A    
C35   C37   A    
C60   N5    A    
C16   N16   A    
C9    H3    S    
H39   N10   S    
C3    C5    A    
C10   C13   A    
C6    C8    A    
N6    Ni3   S    
C54   C67   A    
C6    C20   S    
C12   C65   A    
C27   H34   S    
C8    H2    S    
C25   H8    S    
C40   H20   S    
N18   N22   A    
C28   C65   S    
C33   C50   S    
H40   N11   S    
C29   C31   A    
N3    Ni1   S    
C68   H52   S    
C57   N2    A    
C30   C32   A    
C4    N10   S    
C61   H30   S    
H43   N13   S    
N16   Ni2   S    
C2    C4    A    
C12   H12   S    
C36   C38   A    
C61   N6    A    
C18   C20   A    
C30   C43   A    
C1    H1    S    
N7    Ni3   S    
C27   C64   S    
H38   N10   S    
C62   H31   S    
C24   H9    S    
C15   H6    S    
C5    C21   S    
C45   C55   A    
C58   N3    A    
C37   C39   A    
C30   N13   S    
C59   H28   S    
C53   H22   S    
C18   C67   S    
C22   C23   S    
C10   H4    S    
