data_mof_unit_52367.cif
_audit_creation_date              2012-12-10T18:11:46-0500
_audit_creation_method            fapswitch 2.2
_symmetry_space_group_name_H-M    P1
_symmetry_Int_Tables_number       1
_space_group_crystal_system       triclinic
_cell_length_a                    10.524616
_cell_length_b                    12.72101
_cell_length_c                    13.198797
_cell_angle_alpha                 81.643795
_cell_angle_beta                  92.837195
_cell_angle_gamma                 101.367136
_cell_volume                      1713.65320676

loop_
_atom_site_label
_atom_site_type_symbol
_atom_type_description
_atom_site_fract_x
_atom_site_fract_y
_atom_site_fract_z
_atom_type_partial_charge
C1    C     C_R   0.480064 0.439532 0.690856 0.896084
C2    C     C_R   0.517782 0.457210 0.970666 -0.047804
C3    C     C_R   0.470292 0.478635 0.869765 -0.067563
C4    C     C_R   0.741315 0.499167 0.500981 0.892011
C5    C     C_R   0.526928 0.540169 0.032447 0.048795
C6    C     C_R   0.529117 0.648234 0.988613 -0.116891
C7    C     C_R   0.465842 0.665847 0.892685 -0.165235
C8    C     C_R   0.423302 0.576299 0.839826 0.548572
C9    C     C_R   0.514168 0.516276 0.136631 -0.343345
C10   C     C_R   0.591162 0.705333 0.156500 0.470197
C11   C     C_R   0.471518 0.403080 0.801353 -0.092540
C12   C     C_3   0.063308 0.597276 0.511967 -0.158532
C13   C     C_R   0.287513 0.086557 0.368063 -0.124907
C14   C     C_R   0.668055 0.804535 0.620441 0.588306
C15   C     C_R   0.680380 0.898804 0.667809 -0.211579
C16   C     C_R   0.520288 0.560894 0.309162 0.913684
C17   C     C_R   0.595610 0.971261 0.637258 -0.043451
C18   C     C_R   0.510919 0.954154 0.551915 0.003601
C19   C     C_R   0.487126 0.850306 0.518380 0.024482
C20   C     C_R   0.449356 0.036647 0.496991 0.024931
C21   C     C_R   0.340356 0.006658 0.433171 0.010422
C22   C     C_R   0.290102 0.896907 0.433175 -0.080806
C23   C     C_3   0.968021 0.523397 0.590187 -0.345961
C24   C     C_R   0.376412 0.825248 0.452050 -0.062793
C25   C     C_R   0.496329 0.148144 0.498265 0.013084
C26   C     C_R   0.328794 0.194204 0.381994 0.087857
C27   C     C_R   0.257990 0.499338 0.500524 0.961842
C28   C     C_3   0.933291 0.396068 0.487715 -0.191664
C29   C     C_3   0.027481 0.425627 0.576244 0.575203
C30   C     C_3   0.121843 0.498280 0.500182 -0.029851
C31   C     C_3   0.029345 0.469923 0.410327 -0.263270
C32   C     C_3   0.968713 0.567735 0.422971 0.003832
C33   C     C_3   0.962894 0.296575 0.714045 -0.254595
C34   C     C_3   0.875704 0.495898 0.500246 -0.104152
C35   C     C_2   0.635416 0.334999 0.099122 0.359430
C36   C     C_3   0.207788 0.534685 0.808130 -0.273090
C37   C     C_2   0.257806 0.276450 0.329502 0.417568
C38   C     C_2   0.152413 0.861102 0.403749 0.457691
C39   C     C_2   0.209256 0.063001 0.274122 0.432137
C40   C     C_3   0.870880 0.779263 0.597237 -0.321510
C41   C     C_2   0.574487 0.047953 0.706973 0.450505
C42   C     C_2   0.777891 0.914458 0.752530 0.427582
C43   C     C_2   0.382198 0.769105 0.364085 0.582085
C44   C     C_2   0.925590 0.638688 0.332708 0.512244
C45   C     C_R   0.583717 0.731618 0.047430 -0.115978
C46   C     C_3   0.651952 0.882864 0.198625 -0.171901
C47   C     C_2   0.419447 0.768500 0.858167 0.494818
C48   C     C_2   0.664263 0.830589 0.993737 0.346717
C49   C     C_R   0.539658 0.597236 0.199356 -0.130794
C50   C     C_R   0.493208 0.299452 0.838816 -0.229241
C51   C     C_R   0.533041 0.275303 0.939720 -0.090501
C52   C     C_R   0.556058 0.355444 0.004439 0.007325
H1    H     H_    0.478942 0.432914 0.168032 0.179836
H2    H     H_    0.919420 0.353192 0.752021 0.131299
H3    H     H_    0.997232 0.238605 0.775261 0.232454
H4    H     H_    0.693057 0.401932 0.133212 0.081554
H5    H     H_    0.130739 0.552895 0.752585 0.199279
H6    H     H_    0.192381 0.569374 0.878379 0.140584
H7    H     H_    0.197278 0.445230 0.825393 0.188320
H8    H     H_    0.305887 0.344793 0.278286 0.084348
H9    H     H_    0.077317 0.877247 0.449235 0.030586
H10   H     H_    0.120330 0.093464 0.256450 0.110336
H11   H     H_    0.943244 0.729011 0.625176 0.192497
H12   H     H_    0.491627 0.240126 0.787765 0.215600
H13   H     H_    0.913105 0.862444 0.613534 0.149258
H14   H     H_    0.857988 0.780341 0.513213 0.230699
H15   H     H_    0.654124 0.093963 0.746506 0.109517
H16   H     H_    0.806862 0.844460 0.797766 0.100448
H17   H     H_    0.464244 0.795766 0.315814 0.064554
H18   H     H_    0.949904 0.629534 0.255981 0.071700
H19   H     H_    0.659580 0.917895 0.271445 0.163210
H20   H     H_    0.557243 0.894085 0.161537 0.177160
H21   H     H_    0.734754 0.929448 0.152170 0.207619
H22   H     H_    0.406101 0.820616 0.913174 0.128145
H23   H     H_    0.558793 0.196922 0.963747 0.210183
H24   H     H_    0.764741 0.830527 0.979271 0.097495
H25   H     H_    0.581826 0.177596 0.542223 0.105789
H26   H     H_    0.876978 0.314394 0.478442 0.173526
H27   H     H_    0.058635 0.450811 0.336519 0.197627
H28   H     H_    0.120696 0.676944 0.525191 0.170015
H29   H     H_    0.934701 0.541826 0.662918 0.154480
H30   H     H_    0.888357 0.249001 0.667199 0.169473
N1    N     N_R   0.432930 0.222190 0.444670 -0.140996
N2    N     N_R   0.566370 0.776980 0.554790 -0.147208
O1    O     O_R   0.467970 0.366730 0.627150 -0.614963
O2    O     O_2   0.639075 0.242828 0.139269 -0.560220
O3    O     O_3   0.328512 0.581668 0.763850 -0.561397
O4    O     O_2   0.141389 0.265758 0.341163 -0.608388
O5    O     O_2   0.122485 0.822920 0.324526 -0.488218
O6    O     O_2   0.247820 0.013311 0.213231 -0.511683
O7    O     O_3   0.752772 0.734518 0.647350 -0.609214
O8    O     O_2   0.464571 0.058558 0.722460 -0.549784
O9    O     O_2   0.832792 0.004476 0.768665 -0.599921
O10   O     O_2   0.292912 0.699944 0.339368 -0.582090
O11   O     O_2   0.863898 0.707368 0.344739 -0.529573
O12   O     O_R   0.510820 0.544830 0.662520 -0.555315
O13   O     O_3   0.663528 0.773114 0.221542 -0.591723
O14   O     O_2   0.392240 0.794649 0.768263 -0.516921
O15   O     O_2   0.620755 0.912785 0.967706 -0.584990
O16   O     O_R   0.664630 0.410960 0.482340 -0.649165
O17   O     O_R   0.707470 0.589060 0.517710 -0.544192
O18   O     O_R   0.489180 0.455170 0.337480 -0.667397
O19   O     O_R   0.532030 0.633270 0.372850 -0.592802
O20   O     O_R   0.292530 0.410940 0.482290 -0.595464
O21   O     O_R   0.335370 0.589040 0.517660 -0.593541
O22   O     O_3   0.069683 0.351956 0.654904 -0.611435
Zn1   Zn    Zn3+2 0.471390 0.381080 0.476380 0.972858
Zn2   Zn    Zn3+2 0.528610 0.618920 0.523620 1.053106

loop_
_geom_bond_atom_site_label_1
_geom_bond_atom_site_label_2
_ccdc_geom_bond_type
C33   H3    S    
C26   N1    A    
C6    C45   A    
C42   O9    D    
C50   H12   S    
C48   H24   S    
C37   O4    D    
C1    C11   S    
C14   N2    A    
C36   H7    S    
C7    C8    A    
C41   H15   S    
C38   O5    D    
C47   O14   D    
C25   H25   S    
C23   C29   S    
C28   C29   S    
C51   H23   S    
C36   H6    S    
C30   C31   S    
C35   O2    D    
C20   C25   A    
C27   O21   A    
C22   C38   S    
C27   O20   A    
C43   O10   D    
C18   C19   A    
C48   O15   D    
C44   H18   S    
O19   Zn2   S    
C28   H26   S    
C33   H30   S    
C39   O6    D    
C46   H20   S    
C38   H9    S    
O17   Zn2   S    
O12   Zn2   S    
C28   C34   S    
C43   H17   S    
C40   H14   S    
C21   C22   A    
C12   C32   S    
C27   C30   S    
C42   H16   S    
C50   C51   A    
C36   O3    S    
C1    O1    A    
O21   Zn2   S    
C4    C34   S    
C51   C52   A    
C9    C49   A    
C16   C49   S    
C47   H22   S    
C36   H5    S    
C32   C34   S    
C10   O13   S    
C5    C9    A    
C29   C30   S    
C16   O19   A    
C31   C32   S    
C12   C23   S    
C23   C34   S    
C4    O17   A    
C10   C45   A    
C17   C18   A    
C32   C44   S    
C13   C21   A    
O18   Zn1   S    
C40   H11   S    
C46   H19   S    
C2    C52   A    
C16   O18   A    
C46   O13   S    
C3    C8    A    
C40   H13   S    
C4    O16   A    
C22   C24   A    
C29   O22   S    
C2    C5    A    
C9    H1    S    
C19   N2    A    
C45   C48   S    
C33   H2    S    
C15   C17   A    
C39   H10   S    
C11   C50   A    
O16   Zn1   S    
C23   H29   S    
C12   C30   S    
C35   H4    S    
C28   C31   S    
C33   O22   S    
C15   C42   S    
C26   C37   S    
C31   H27   S    
C6    C7    A    
C8    O3    S    
C2    C3    A    
C44   O11   D    
C5    C6    A    
C1    O12   A    
C12   H28   S    
N2    Zn2   S    
N1    Zn1   S    
C19   C24   A    
C18   C20   A    
C46   H21   S    
C40   O7    S    
C13   C26   A    
C17   C41   S    
C14   O7    S    
C13   C39   S    
C37   H8    S    
C3    C11   A    
C41   O8    D    
C20   C21   A    
C35   C52   S    
C25   N1    A    
C24   C43   S    
C14   C15   A    
O1    Zn1   S    
C10   C49   A    
O20   Zn1   S    
C7    C47   S    
