data_mof_unit_11252.cif
_audit_creation_date              2012-12-11T14:13:17-0500
_audit_creation_method            fapswitch 2.2
_symmetry_space_group_name_H-M    P1
_symmetry_Int_Tables_number       1
_space_group_crystal_system       triclinic
_cell_length_a                    11.659425
_cell_length_b                    18.417085
_cell_length_c                    9.994583
_cell_angle_alpha                 89.999965
_cell_angle_beta                  110.853112
_cell_angle_gamma                 90.000069
_cell_volume                      2005.58095493

loop_
_atom_site_label
_atom_site_type_symbol
_atom_type_description
_atom_site_fract_x
_atom_site_fract_y
_atom_site_fract_z
_atom_type_partial_charge
C1    C     C_R   0.074693 0.645809 0.140739 0.550773
C2    C     C_R   0.925629 0.353911 0.859194 0.562250
C3    C     C_R   0.925324 0.145811 0.859266 0.550749
C4    C     C_R   0.074370 0.853911 0.140806 0.562251
C5    C     C_R   0.392081 0.452919 0.452928 0.001307
C6    C     C_R   0.603334 0.542376 0.529033 -0.002009
C7    C     C_R   0.607920 0.952919 0.547072 0.001309
C8    C     C_R   0.396667 0.042375 0.470972 -0.002008
C9    C     C_2   0.406148 0.930477 0.928560 -0.005054
C10   C     C_2   0.616734 0.059014 0.016268 -0.009043
C11   C     C_2   0.593852 0.430477 0.071441 -0.005054
C12   C     C_2   0.383265 0.559014 0.983733 -0.009047
C13   C     C_2   0.512741 0.943341 0.907638 -0.145539
C14   C     C_2   0.557715 0.018113 0.899335 -0.136611
C15   C     C_2   0.487259 0.443341 0.092363 -0.145539
C16   C     C_2   0.442287 0.518114 0.100667 -0.136612
C17   C     C_2   0.016692 0.923742 0.117587 -0.122017
C18   C     C_2   0.981305 0.075243 0.883215 -0.115177
C19   C     C_2   0.983312 0.423742 0.882414 -0.122024
C20   C     C_2   0.018712 0.575240 0.116790 -0.115171
C21   C     C_2   0.008119 0.960616 0.000671 -0.169812
C22   C     C_2   0.976994 0.036251 0.992646 -0.164223
C23   C     C_2   0.991908 0.460610 0.999340 -0.169822
C24   C     C_2   0.023036 0.536246 0.007370 -0.164225
C25   C     C_R   0.467696 0.646312 0.440933 0.522134
C26   C     C_R   0.531020 0.352374 0.556133 0.538022
C27   C     C_R   0.532304 0.146312 0.559068 0.522135
C28   C     C_R   0.468980 0.852373 0.443867 0.538022
C29   C     C_R   0.356265 0.636138 0.004372 0.561113
C30   C     C_R   0.623432 0.356284 0.036027 0.548305
C31   C     C_R   0.643735 0.136138 0.995628 0.561118
C32   C     C_R   0.376568 0.856283 0.963973 0.548303
C33   C     C_R   0.508334 0.422763 0.483144 -0.039231
C34   C     C_R   0.487109 0.573087 0.502704 -0.046827
C35   C     C_R   0.491668 0.922763 0.516858 -0.039233
C36   C     C_R   0.512891 0.073087 0.497298 -0.046829
C37   C     C_R   0.285923 0.408882 0.403924 -0.098032
C38   C     C_R   0.711204 0.585201 0.576314 -0.084177
C39   C     C_R   0.714078 0.908882 0.596076 -0.098031
C40   C     C_R   0.288797 0.085199 0.423693 -0.084176
C41   C     C_R   0.172560 0.436326 0.395945 -0.133869
C42   C     C_R   0.823195 0.556551 0.581304 -0.133510
C43   C     C_R   0.827442 0.936327 0.604058 -0.133866
C44   C     C_R   0.176807 0.056549 0.418708 -0.133513
C45   C     C_R   0.164759 0.506958 0.440281 -0.129419
C46   C     C_R   0.828444 0.485870 0.535323 -0.140343
C47   C     C_R   0.835242 0.006959 0.559723 -0.129416
C48   C     C_R   0.171560 0.985868 0.464692 -0.140339
C49   C     C_R   0.267335 0.552213 0.479403 -0.069780
C50   C     C_R   0.723657 0.442405 0.493523 -0.066592
C51   C     C_R   0.732665 0.052213 0.520599 -0.069776
C52   C     C_R   0.276347 0.942403 0.506487 -0.066586
C53   C     C_R   0.382160 0.527231 0.478184 -0.000598
C54   C     C_R   0.611561 0.468344 0.501142 0.003153
C55   C     C_R   0.617841 0.027231 0.521816 -0.000598
C56   C     C_R   0.388442 0.968343 0.498863 0.003154
Cr1   Cr    Cr6+3 0.187610 0.750000 0.979860 0.992118
Cr2   Cr    Cr6+3 0.812390 0.250000 0.020140 0.992119
Cr3   Cr    Cr6+3 0.245810 0.750000 0.341640 0.992534
Cr4   Cr    Cr6+3 0.754190 0.250000 0.658360 0.992537
Cr5   Cr    Cr6+3 0.485760 0.750000 0.219910 0.981867
Cr6   Cr    Cr6+3 0.514240 0.250000 0.780090 0.981867
H1    H     H_    0.092207 0.401769 0.362381 0.105451
H2    H     H_    0.904886 0.590003 0.615660 0.104580
H3    H     H_    0.907795 0.901770 0.637624 0.105454
H4    H     H_    0.095116 0.090000 0.384355 0.104576
H5    H     H_    0.078860 0.526966 0.444619 0.095163
H6    H     H_    0.913566 0.464765 0.530561 0.099221
H7    H     H_    0.921141 0.026967 0.555384 0.095162
H8    H     H_    0.086441 0.964763 0.469458 0.099222
H9    H     H_    0.291442 0.352581 0.375330 0.111289
H10   H     H_    0.708665 0.641209 0.608254 0.116663
H11   H     H_    0.708560 0.852580 0.624669 0.111289
H12   H     H_    0.291334 0.141207 0.391752 0.116663
H13   H     H_    0.255708 0.605132 0.518826 0.151002
H14   H     H_    0.730711 0.389597 0.449932 0.149286
H15   H     H_    0.744293 0.105133 0.481176 0.151002
H16   H     H_    0.269296 0.889595 0.550078 0.149284
H17   H     H_    0.536510 0.041254 0.793510 0.137399
H18   H     H_    0.569328 0.898206 0.898302 0.114227
H19   H     H_    0.463496 0.541256 0.206492 0.137403
H20   H     H_    0.430669 0.398206 0.101695 0.114228
H21   H     H_    0.945283 0.059266 0.073635 0.154772
H22   H     H_    0.031332 0.936335 0.914299 0.157344
H23   H     H_    0.054754 0.559261 0.926386 0.154773
H24   H     H_    0.968707 0.436325 0.085716 0.157350
H25   H     H_    0.010766 0.051266 0.802112 0.104696
H26   H     H_    0.000117 0.949703 0.205973 0.100574
H27   H     H_    0.989241 0.551263 0.197885 0.104701
H28   H     H_    0.999878 0.449706 0.794026 0.100580
O1    O     O_R   0.267710 0.668200 0.902110 -0.525806
O2    O     O_R   0.732290 0.331800 0.097890 -0.519180
O3    O     O_R   0.732290 0.168200 0.097890 -0.525803
O4    O     O_R   0.267710 0.831800 0.902110 -0.519182
O5    O     O_R   0.099480 0.674460 0.038850 -0.514969
O6    O     O_R   0.900520 0.325540 0.961150 -0.504876
O7    O     O_R   0.900520 0.174460 0.961150 -0.514959
O8    O     O_R   0.099480 0.825540 0.038850 -0.504874
O9    O     O_R   0.116720 0.669210 0.267660 -0.526645
O10   O     O_R   0.883280 0.330790 0.732340 -0.521412
O11   O     O_R   0.883280 0.169210 0.732340 -0.526632
O12   O     O_R   0.116720 0.830790 0.267660 -0.521411
O13   O     O_R   0.366710 0.675440 0.427590 -0.514944
O14   O     O_R   0.633290 0.324560 0.572410 -0.508579
O15   O     O_R   0.633290 0.175440 0.572410 -0.514941
O16   O     O_R   0.366710 0.824560 0.427590 -0.508578
O17   O     O_R   0.534870 0.669390 0.371760 -0.526028
O18   O     O_R   0.465130 0.330610 0.628240 -0.522066
O19   O     O_R   0.465130 0.169390 0.628240 -0.526023
O20   O     O_R   0.534870 0.830610 0.371760 -0.522065
O21   O     O_R   0.453080 0.674480 0.075160 -0.511845
O22   O     O_R   0.546920 0.325520 0.924840 -0.500701
O23   O     O_R   0.546920 0.174480 0.924840 -0.511855
O24   O     O_R   0.453080 0.825520 0.075160 -0.500698
O25   O     O_3   0.306390 0.750000 0.180470 -0.250456
O26   O     O_3   0.693610 0.250000 0.819530 -0.250451
C57   C     C_3   0.657284 0.026712 0.164953 -0.233331
C58   C     C_3   0.768821 0.976678 0.192156 -0.300233
C59   C     C_3   0.748076 0.899989 0.236673 -0.417394
H29   H     H_    0.708167 0.901691 0.321503 0.201883
H30   H     H_    0.685184 0.869578 0.144003 0.167346
H31   H     H_    0.836855 0.870471 0.277688 0.130656
H32   H     H_    0.792038 0.971972 0.094128 0.170957
H33   H     H_    0.848973 0.000935 0.277629 0.140780
H34   H     H_    0.682656 0.071452 0.243773 0.139892
H35   H     H_    0.579824 0.998072 0.182078 0.156332
C60   C     C_3   0.326570 0.992780 0.945584 -0.241863
C61   C     C_3   0.262607 0.033638 0.804698 -0.289545
C62   C     C_3   0.238975 0.113167 0.830065 -0.439809
H36   H     H_    0.324580 0.144933 0.855048 0.190646
H37   H     H_    0.206697 0.119010 0.921265 0.146851
H38   H     H_    0.169359 0.136220 0.732004 0.143191
H39   H     H_    0.319108 0.033001 0.736270 0.196996
H40   H     H_    0.174553 0.006025 0.745074 0.145633
H41   H     H_    0.255374 0.972187 0.985987 0.146433
H42   H     H_    0.383917 0.030617 0.029094 0.148678
C63   C     C_3   0.342715 0.526711 0.835049 -0.233334
C64   C     C_3   0.231183 0.476673 0.807849 -0.300243
C65   C     C_3   0.251931 0.399988 0.763321 -0.417393
H43   H     H_    0.291845 0.401696 0.678497 0.201889
H44   H     H_    0.314820 0.369573 0.855988 0.167347
H45   H     H_    0.163152 0.370470 0.722296 0.130658
H46   H     H_    0.207974 0.471962 0.905880 0.170962
H47   H     H_    0.151026 0.500930 0.722383 0.140780
H48   H     H_    0.317338 0.571450 0.756227 0.139896
H49   H     H_    0.420179 0.498074 0.817924 0.156331
C66   C     C_3   0.673432 0.492780 0.054421 -0.241863
C67   C     C_3   0.737409 0.533628 0.195317 -0.289540
C68   C     C_3   0.761057 0.613158 0.169970 -0.439794
H50   H     H_    0.675466 0.644938 0.145049 0.190631
H51   H     H_    0.793295 0.619005 0.078732 0.146859
H52   H     H_    0.830715 0.636193 0.268027 0.143189
H53   H     H_    0.680911 0.532990 0.263751 0.196990
H54   H     H_    0.825458 0.506006 0.254930 0.145632
H55   H     H_    0.744618 0.472189 0.014002 0.146435
H56   H     H_    0.616084 0.530624 0.970926 0.148682

loop_
_geom_bond_atom_site_label_1
_geom_bond_atom_site_label_2
_ccdc_geom_bond_type
C32   O4    A    
C4    O8    A    
C12   C29   S    
C17   H26   S    
Cr3   O9    S    
C44   H4    S    
C66   C67   S    
C7    C55   A    
C50   H14   S    
C61   C62   S    
C1    O9    A    
Cr2   O2    S    
Cr1   O25   S    
Cr6   O26   S    
C9    C60   S    
C5    C53   A    
Cr2   O3    S    
C60   H41   S    
C38   C42   A    
C5    C37   A    
C64   H46   S    
C68   H51   S    
C42   C46   A    
C65   H45   S    
Cr6   O18   S    
C27   O15   A    
C15   C16   S    
C3    C18   S    
C8    C36   A    
Cr2   O6    S    
C58   C59   S    
C47   H7    S    
C9    C13   D    
C9    C32   S    
C26   O14   A    
C20   H27   S    
C11   C15   D    
C10   C31   S    
C20   C24   D    
C11   C30   S    
C28   O16   A    
C23   H24   S    
C4    O12   A    
Cr5   O25   S    
C23   C24   S    
C6    C38   A    
C13   C14   S    
C66   H55   S    
C57   H35   S    
C40   C44   A    
C43   H3    S    
C25   C34   S    
C62   H38   S    
C3    O11   A    
C58   H33   S    
C13   H18   S    
C2    O10   A    
C21   C22   S    
Cr2   O26   S    
C8    C56   A    
Cr2   O7    S    
C67   H54   S    
C6    C54   A    
C52   H16   S    
Cr5   O20   S    
C36   C55   A    
C15   H20   S    
C59   H30   S    
C65   H43   S    
C38   H10   S    
Cr3   O16   S    
C12   C16   D    
C63   H49   S    
C44   C48   A    
C67   C68   S    
C28   C35   S    
Cr6   O23   S    
C30   O2    A    
C10   C14   D    
C68   H52   S    
C26   O18   A    
C25   O13   A    
C39   C43   A    
C28   O20   A    
C31   O3    A    
C17   C21   D    
C6    C34   A    
C5    C33   A    
C19   C23   D    
C51   H15   S    
C46   H6    S    
C61   H40   S    
C3    O7    A    
C26   C33   S    
C21   H22   S    
C45   C49   A    
C1    O5    A    
C49   H13   S    
Cr4   O14   S    
C50   C54   A    
C14   H17   S    
C60   H42   S    
C66   H56   S    
C4    C17   S    
Cr1   O4    S    
C37   H9    S    
Cr4   O26   S    
C67   H53   S    
C41   H1    S    
Cr4   O11   S    
Cr5   O21   S    
C42   H2    S    
C29   O1    A    
C25   O17   A    
C62   H36   S    
C24   H23   S    
C59   H31   S    
C63   H48   S    
C33   C54   A    
C1    C20   S    
C7    C39   A    
Cr1   O1    S    
C2    C19   S    
C18   C22   D    
Cr3   O12   S    
C7    C35   A    
C29   O21   A    
C48   H8    S    
Cr4   O10   S    
C35   C56   A    
C47   C51   A    
C59   H29   S    
C45   H5    S    
C27   C36   S    
C63   C64   S    
C46   C50   A    
C57   C58   S    
C18   H25   S    
Cr3   O13   S    
C22   H21   S    
C2    O6    A    
C10   C57   S    
C64   H47   S    
C68   H50   S    
C65   H44   S    
C11   C66   S    
Cr6   O19   S    
C43   C47   A    
C49   C53   A    
Cr1   O8    S    
C16   H19   S    
C40   H12   S    
C51   C55   A    
C58   H32   S    
C39   H11   S    
C37   C41   A    
Cr5   O17   S    
C64   C65   S    
C52   C56   A    
C48   C52   A    
Cr6   O22   S    
C27   O19   A    
C34   C53   A    
Cr3   O25   S    
Cr1   O5    S    
C30   O22   A    
Cr5   O24   S    
C19   H28   S    
C41   C45   A    
C12   C63   S    
C8    C40   A    
C32   O24   A    
C61   H39   S    
C57   H34   S    
C31   O23   A    
Cr4   O15   S    
C60   C61   S    
C62   H37   S    
