data_mof_unit_48835.cif
_audit_creation_date              2012-12-10T20:46:49-0500
_audit_creation_method            fapswitch 2.2
_symmetry_space_group_name_H-M    P1
_symmetry_Int_Tables_number       1
_space_group_crystal_system       triclinic
_cell_length_a                    12.933999
_cell_length_b                    8.934557
_cell_length_c                    8.111213
_cell_angle_alpha                 89.985686
_cell_angle_beta                  96.993991
_cell_angle_gamma                 89.98264
_cell_volume                      930.353326635

loop_
_atom_site_label
_atom_site_type_symbol
_atom_type_description
_atom_site_fract_x
_atom_site_fract_y
_atom_site_fract_z
_atom_type_partial_charge
C1    C     C_R   0.499969 0.218006 0.500005 0.940141
C2    C     C_R   0.864618 0.586331 0.678393 -0.390163
C3    C     C_R   0.133875 0.566640 0.569434 0.416840
C4    C     C_R   0.866125 0.433361 0.430566 0.416837
C5    C     C_R   0.026392 0.545688 0.564465 -0.109459
C6    C     C_R   0.973608 0.454315 0.435534 -0.109452
C7    C     C_1   0.499990 0.065192 0.500014 -0.160747
C8    C     C_1   0.500010 0.934808 0.499986 -0.160747
C9    C     C_R   0.500030 0.781993 0.499995 0.940140
C10   C     C_R   0.298011 0.503136 0.468053 0.960137
C11   C     C_R   0.701989 0.496864 0.531947 0.960137
C12   C     C_R   0.813422 0.500399 0.551253 -0.172795
C13   C     C_R   0.186577 0.499603 0.448747 -0.172791
C14   C     C_R   0.029294 0.386862 0.314981 0.509601
C15   C     C_R   0.970706 0.613144 0.685019 0.509598
C16   C     C_R   0.135382 0.413674 0.321606 -0.390167
H1    H     H_    0.820572 0.639690 0.767624 0.177749
H2    H     H_    0.179427 0.360316 0.232375 0.177750
H3    H     H_    0.812352 0.404224 0.203475 0.364547
H4    H     H_    0.187646 0.595773 0.796526 0.364546
H5    H     H_    0.031219 0.255894 0.121847 0.338412
H6    H     H_    0.968781 0.744119 0.878152 0.338413
N1    N     N_1   0.500020 0.500000 0.073640 -0.025085
N2    N     N_1   0.499980 0.500000 0.926360 -0.025085
O1    O     O_R   0.499990 0.285340 0.636850 -0.619497
O2    O     O_3   0.189459 0.651743 0.691191 -0.684904
O3    O     O_3   0.980486 0.291647 0.195408 -0.724074
O4    O     O_3   0.019514 0.708362 0.804592 -0.724068
O5    O     O_R   0.500010 0.714660 0.363150 -0.619497
O6    O     O_R   0.500010 0.285340 0.363150 -0.609469
O7    O     O_R   0.499990 0.714660 0.636850 -0.609469
O8    O     O_R   0.346350 0.500000 0.614250 -0.596416
O9    O     O_R   0.653650 0.500000 0.385750 -0.596418
O10   O     O_R   0.346360 0.500000 0.340500 -0.633590
O11   O     O_R   0.653640 0.500000 0.659500 -0.633589
O12   O     O_3   0.810541 0.348254 0.308810 -0.684900
Zn1   Zn    Zn3+2 0.499990 0.500000 0.682780 1.018767
Zn2   Zn    Zn3+2 0.500010 0.500000 0.317220 1.018766

loop_
_geom_bond_atom_site_label_1
_geom_bond_atom_site_label_2
_ccdc_geom_bond_type
O5    Zn2   S    
C11   C12   S    
C4    O12   S    
C14   O3    S    
C4    C12   A    
N1    Zn2   S    
O9    Zn2   S    
C3    C13   A    
C9    O5    A    
N1    N2    T    
C2    C12   A    
C11   O11   A    
N2    Zn1   S    
H5    O3    S    
C7    C8    T    
C10   O10   A    
H6    O4    S    
O8    Zn1   S    
C2    H1    S    
C1    O1    A    
C2    C15   A    
C15   O4    S    
H4    O2    S    
C4    C6    A    
C1    O6    A    
O11   Zn1   S    
H3    O12   S    
C5    C6    A    
C14   C16   A    
C5    C15   A    
C6    C14   A    
C9    O7    A    
C10   O8    A    
C11   O9    A    
O6    Zn2   S    
C16   H2    S    
C13   C16   A    
O1    Zn1   S    
C1    C7    S    
C3    O2    S    
O7    Zn1   S    
C8    C9    S    
C3    C5    A    
C10   C13   S    
O10   Zn2   S    
