data_mof_unit_49168.cif
_audit_creation_date              2012-12-10T16:48:10-0500
_audit_creation_method            fapswitch 2.2
_symmetry_space_group_name_H-M    P1
_symmetry_Int_Tables_number       1
_space_group_crystal_system       triclinic
_cell_length_a                    15.827542
_cell_length_b                    8.769162
_cell_length_c                    7.469295
_cell_angle_alpha                 102.505802
_cell_angle_beta                  95.593221
_cell_angle_gamma                 92.233919
_cell_volume                      1005.35241603

loop_
_atom_site_label
_atom_site_type_symbol
_atom_type_description
_atom_site_fract_x
_atom_site_fract_y
_atom_site_fract_z
_atom_type_partial_charge
C1    C     C_R   0.495383 0.200467 0.453989 0.816233
C2    C     C_R   0.497700 0.798706 0.545226 0.860455
C3    C     C_R   0.339965 0.500678 0.500028 0.797057
C4    C     C_R   0.660072 0.499421 0.500011 0.818102
C5    C     C_2   0.492854 0.033247 0.425713 -0.008099
C6    C     C_2   0.484740 0.962353 0.567735 0.030146
C7    C     C_3   0.975701 0.376696 0.559913 0.263261
C8    C     C_3   0.024663 0.625039 0.441260 0.262586
C9    C     C_3   0.020075 0.368802 0.383943 -0.258267
C10   C     C_3   0.980255 0.632954 0.617220 -0.257988
C11   C     C_1   0.250365 0.503093 0.498260 -0.139196
C12   C     C_1   0.749779 0.497606 0.502029 -0.130201
C13   C     C_3   0.039268 0.508591 0.671646 0.178332
C14   C     C_3   0.961091 0.493171 0.329524 0.179257
C15   C     C_3   0.083066 0.503493 0.495050 -0.001641
C16   C     C_3   0.917235 0.498209 0.506085 -0.003576
C17   C     C_1   0.174704 0.504250 0.494458 0.028099
C18   C     C_1   0.825509 0.497000 0.506238 0.031765
Cu1   Cu    Cu3+1 0.509330 0.517380 0.684380 0.959574
Cu2   Cu    Cu3+1 0.490670 0.482620 0.315620 0.960241
H1    H     H_    0.037897 0.261258 0.290258 0.168526
H2    H     H_    0.962458 0.740518 0.710906 0.169608
H3    H     H_    0.432706 0.380592 0.948492 0.231652
H4    H     H_    0.566565 0.621133 0.051730 0.244046
N1    N     N_2   0.476600 0.456420 0.038510 -0.217772
N2    N     N_2   0.523400 0.543580 0.961490 -0.211678
O1    O     O_R   0.506070 0.286130 0.619780 -0.592854
O2    O     O_R   0.493930 0.713870 0.380220 -0.567079
O3    O     O_R   0.490300 0.256770 0.308360 -0.587876
O4    O     O_R   0.509700 0.743230 0.691640 -0.584119
O5    O     O_R   0.386960 0.514660 0.655680 -0.583228
O6    O     O_R   0.613040 0.485340 0.344320 -0.575536
O7    O     O_R   0.371190 0.485310 0.344260 -0.574532
O8    O     O_R   0.628810 0.514690 0.655740 -0.566476
N3    N     N_2   0.944693 0.239344 0.617709 -0.423197
H5    H     H_    0.892365 0.255974 0.689840 0.284475
C19   C     C_3   0.008512 0.151966 0.696012 -0.618300
H6    H     H_    0.980792 0.033558 0.694687 0.226404
H7    H     H_    0.029399 0.210677 0.841454 0.257080
H8    H     H_    0.064206 0.139718 0.615348 0.239494
N4    N     N_2   0.055905 0.762286 0.383557 -0.426750
H9    H     H_    0.108290 0.745483 0.311621 0.282005
C20   C     C_3   0.992300 0.849976 0.305143 -0.616283
H10   H     H_    0.020223 0.968261 0.306556 0.225137
H11   H     H_    0.936574 0.862503 0.385692 0.241563
H12   H     H_    0.971435 0.791351 0.159663 0.257617
I1    I     I_    0.886982 0.469212 0.068177 -0.434942
I2    I     I_    0.113823 0.532859 0.932631 -0.451930
N5    N     N_2   0.498965 0.946401 0.242030 -0.427236
H13   H     H_    0.542124 0.995266 0.172292 0.261934
C21   C     C_3   0.417237 0.903296 0.133310 -0.557165
H14   H     H_    0.426412 0.832353 0.995234 0.256413
H15   H     H_    0.384431 0.009601 0.116631 0.210072
H16   H     H_    0.376053 0.832641 0.201124 0.231698
N6    N     N_2   0.456456 0.038747 0.738504 -0.440212
H17   H     H_    0.498334 0.120568 0.826673 0.282128
C22   C     C_3   0.367414 0.072145 0.729270 -0.669993
H18   H     H_    0.350737 0.125303 0.868959 0.218189
H19   H     H_    0.327104 0.962106 0.674898 0.230255
H20   H     H_    0.353454 0.155398 0.639076 0.222721

loop_
_geom_bond_atom_site_label_1
_geom_bond_atom_site_label_2
_ccdc_geom_bond_type
C13   I2    S    
C2    O2    A    
C9    C14   S    
C15   C17   S    
C14   I1    S    
C8    C15   S    
N4    C20   S    
N4    H9    S    
Cu1   Cu2   S    
N3    H5    S    
C2    O4    A    
C6    N6    S    
C20   H10   S    
C21   H16   S    
Cu1   O5    S    
N6    H17   S    
C13   C15   S    
C9    C15   S    
C19   H7    S    
C10   C16   S    
C10   H2    S    
C3    O5    A    
C20   H11   S    
C5    N5    S    
C22   H18   S    
C4    O6    A    
C1    C5    S    
Cu2   O7    S    
C1    O3    A    
C7    C16   S    
N3    C19   S    
C19   H6    S    
H4    N2    S    
C19   H8    S    
C4    O8    A    
Cu2   O3    S    
N6    C22   S    
C5    C6    D    
C20   H12   S    
C14   C16   S    
C22   H19   S    
C3    C11   S    
Cu2   N1    S    
C3    O7    A    
C21   H14   S    
C9    H1    S    
C7    C9    S    
C7    C13   S    
H3    N1    S    
Cu1   O1    S    
C8    N4    S    
C16   C18   S    
N5    H13   S    
Cu2   O6    S    
C12   C18   T    
C1    O1    A    
Cu1   N2    S    
C11   C17   T    
C22   H20   S    
C8    C14   S    
Cu2   O2    S    
C21   H15   S    
N1    N2    D    
C4    C12   S    
Cu1   O4    S    
C7    N3    S    
Cu1   O8    S    
C8    C10   S    
C2    C6    S    
N5    C21   S    
C10   C13   S    
