data_mof_unit_17798.cif
_audit_creation_date              2012-12-10T17:12:44-0500
_audit_creation_method            fapswitch 2.2
_symmetry_space_group_name_H-M    P1
_symmetry_Int_Tables_number       1
_space_group_crystal_system       triclinic
_cell_length_a                    23.434814
_cell_length_b                    10.72841
_cell_length_c                    9.978437
_cell_angle_alpha                 90.130818
_cell_angle_beta                  89.688598
_cell_angle_gamma                 90.05917
_cell_volume                      2508.71669792

loop_
_atom_site_label
_atom_site_type_symbol
_atom_type_description
_atom_site_fract_x
_atom_site_fract_y
_atom_site_fract_z
_atom_type_partial_charge
C1    C     C_R   0.499360 0.262563 0.499561 0.954794
C2    C     C_R   0.120072 0.609878 0.549758 0.503767
C3    C     C_R   0.237920 0.498765 0.624755 -0.098537
C4    C     C_R   0.389260 0.499973 0.500394 0.870176
C5    C     C_R   0.297134 0.497389 0.623776 -0.212526
C6    C     C_R   0.327008 0.500610 0.501442 -0.041122
C7    C     C_R   0.296914 0.505023 0.380277 -0.207192
C8    C     C_R   0.237693 0.506543 0.381641 -0.099112
C9    C     C_R   0.208277 0.503492 0.503791 0.316576
C10   C     C_R   0.761867 0.523715 0.373494 0.044200
C11   C     C_R   0.702433 0.515903 0.376040 -0.254244
C12   C     C_R   0.968807 0.301598 0.412170 -0.162109
C13   C     C_R   0.672899 0.506919 0.498350 -0.052772
C14   C     C_R   0.703016 0.506095 0.619204 -0.220842
C15   C     C_R   0.762037 0.512744 0.617773 -0.121481
C16   C     C_R   0.503760 0.737881 0.499863 0.934450
C17   C     C_R   0.791593 0.520882 0.496066 0.284222
C18   C     C_2   0.513707 0.935947 0.386066 0.449696
C19   C     C_2   0.520782 0.867249 0.498712 -0.227755
C20   C     C_2   0.519908 0.070126 0.393154 -0.308242
C21   C     C_2   0.496886 0.130855 0.496645 -0.326979
C22   C     C_2   0.527998 0.581169 0.924599 -0.277133
C23   C     C_R   0.028173 0.299086 0.413240 -0.159370
C24   C     C_2   0.532545 0.574173 0.076104 0.505108
C25   C     C_R   0.610723 0.501133 0.499585 0.872421
C26   C     C_R   0.881232 0.619889 0.545597 0.466955
C27   C     C_R   0.879885 0.412771 0.456103 0.517731
C28   C     C_R   0.939380 0.407897 0.456726 -0.014809
C29   C     C_R   0.969969 0.512325 0.503261 -0.021573
C30   C     C_R   0.940786 0.619241 0.548750 -0.012991
C31   C     C_R   0.552996 0.914287 0.617886 0.064144
C32   C     C_R   0.528035 0.913508 0.746486 -0.126856
C33   C     C_R   0.558803 0.955795 0.857320 -0.155628
C34   C     C_R   0.059058 0.402820 0.458936 -0.015595
C35   C     C_R   0.614604 0.999335 0.840918 -0.112893
C36   C     C_R   0.639767 0.000579 0.713646 -0.114490
C37   C     C_R   0.609227 0.958051 0.602546 -0.115031
C38   C     C_R   0.791889 0.533568 0.242577 0.120154
C39   C     C_R   0.830930 0.630604 0.218218 -0.164388
C40   C     C_R   0.858871 0.639401 0.094385 -0.118644
C41   C     C_R   0.847859 0.552077 0.993649 -0.094039
C42   C     C_R   0.808815 0.455845 0.016560 -0.149535
C43   C     C_R   0.780816 0.446622 0.140265 -0.101325
C44   C     C_R   0.029894 0.509769 0.504402 -0.023133
C45   C     C_R   0.060514 0.614236 0.550777 -0.015060
C46   C     C_R   0.031051 0.720198 0.596240 -0.159689
C47   C     C_R   0.971662 0.722637 0.595338 -0.172267
C48   C     C_R   0.118626 0.402702 0.460457 0.503440
H1    H     H_    0.946120 0.220268 0.376092 0.192027
H2    H     H_    0.468750 0.452034 0.101535 0.102846
H3    H     H_    0.053735 0.801494 0.632405 0.194538
H4    H     H_    0.950095 0.805744 0.630808 0.192241
H5    H     H_    0.214970 0.496063 0.719204 0.142850
H6    H     H_    0.319395 0.493814 0.718516 0.165647
H7    H     H_    0.319009 0.507704 0.284716 0.165399
H8    H     H_    0.214557 0.510474 0.288090 0.142672
H9    H     H_    0.490510 0.949138 0.199380 0.322638
H10   H     H_    0.484616 0.881330 0.760682 0.144071
H11   H     H_    0.539353 0.954915 0.955936 0.139376
H12   H     H_    0.679298 0.518367 0.282309 0.182188
H13   H     H_    0.638343 0.032104 0.926833 0.131146
H14   H     H_    0.683025 0.034196 0.701104 0.144243
H15   H     H_    0.629428 0.958628 0.504666 0.135749
H16   H     H_    0.592058 0.699693 0.074890 0.309973
H17   H     H_    0.839223 0.700306 0.294224 0.160266
H18   H     H_    0.888883 0.714326 0.076309 0.144265
H19   H     H_    0.869446 0.559180 0.897754 0.139669
H20   H     H_    0.800258 0.388270 0.938489 0.131723
H21   H     H_    0.750892 0.371111 0.156704 0.134335
H22   H     H_    0.681092 0.499537 0.714774 0.167391
H23   H     H_    0.785133 0.509763 0.711372 0.136470
H24   H     H_    0.539191 0.118741 0.308759 0.169995
H25   H     H_    0.475017 0.083732 0.578283 0.151600
H26   H     H_    0.550319 0.655909 0.873283 0.180224
H27   H     H_    0.483273 0.424595 0.898224 0.156827
H28   H     H_    0.049722 0.215870 0.378006 0.194034
N1    N     N_R   0.852363 0.518238 0.498316 -0.356340
N2    N     N_R   0.147573 0.505330 0.504926 -0.359449
N3    N     N_2   0.500610 0.501330 0.852150 -0.199488
N4    N     N_2   0.500630 0.501360 0.147810 -0.193178
O1    O     O_R   0.499990 0.319060 0.613040 -0.615050
O2    O     O_R   0.583840 0.500020 0.613040 -0.619117
O3    O     O_R   0.583850 0.500060 0.386900 -0.582666
O4    O     O_2   0.852248 0.721395 0.587941 -0.569716
O5    O     O_3   0.494663 0.882814 0.267749 -0.722383
O6    O     O_3   0.570911 0.649760 0.142280 -0.707904
O7    O     O_2   0.849587 0.313029 0.414338 -0.565523
O8    O     O_2   0.147549 0.300937 0.418581 -0.550949
O9    O     O_2   0.150408 0.709369 0.592023 -0.550552
O10   O     O_R   0.500010 0.319100 0.386900 -0.622469
O11   O     O_R   0.416150 0.499940 0.613100 -0.617597
O12   O     O_R   0.416160 0.499980 0.386960 -0.623248
O13   O     O_R   0.499990 0.680900 0.613100 -0.634112
O14   O     O_R   0.500010 0.680940 0.386960 -0.497935
Zn1   Zn    Zn3+2 0.499990 0.499970 0.650990 0.949559
Zn2   Zn    Zn3+2 0.500010 0.500030 0.349010 1.013242

loop_
_geom_bond_atom_site_label_1
_geom_bond_atom_site_label_2
_ccdc_geom_bond_type
C1    C21   S    
C1    O10   A    
C14   H22   S    
C41   C42   A    
C35   C36   A    
C7    H7    S    
C23   H28   S    
C19   C31   S    
C8    H8    S    
C12   H1    S    
C7    C8    A    
C41   H19   S    
C45   C46   A    
C12   C23   A    
C16   O13   A    
C12   C28   A    
C3    C9    A    
C36   C37   A    
C22   N3    D    
C38   C39   A    
O1    Zn1   S    
C10   C17   A    
C1    O1    A    
C21   H25   S    
O12   Zn2   S    
C18   C19   D    
C48   N2    A    
C24   N4    D    
C8    C9    A    
C48   O8    S    
C32   H10   S    
N4    Zn2   S    
C4    O11   A    
C33   H11   S    
C40   H18   S    
C13   C14   A    
C3    H5    S    
C42   H20   S    
C39   H17   S    
C13   C25   S    
C36   H14   S    
H16   O6    S    
C37   H15   S    
C2    C45   A    
C26   N1    A    
C18   O5    S    
C5    H6    S    
C34   C44   A    
C4    C6    S    
C39   C40   A    
C27   N1    A    
C46   H3    S    
C31   C37   A    
C2    O9    S    
C27   O7    S    
N3    Zn1   S    
C29   C30   A    
C2    N2    A    
C30   C47   A    
C31   C32   A    
C23   C34   A    
C17   N1    S    
C35   H13   S    
O14   Zn2   S    
C47   H4    S    
C40   C41   A    
C26   C30   A    
C29   C44   A    
C25   O2    A    
C22   C24   S    
C34   C48   A    
C42   C43   A    
C22   H26   S    
C11   H12   S    
C44   C45   A    
C15   C17   A    
C46   C47   A    
C28   C29   A    
C26   O4    S    
O2    Zn1   S    
C3    C5    A    
H2    N4    S    
O10   Zn2   S    
C6    C7    A    
C15   H23   S    
C16   O14   A    
C10   C38   S    
C32   C33   A    
C38   C43   A    
C11   C13   A    
C5    C6    A    
C24   O6    S    
C16   C19   S    
O3    Zn2   S    
C33   C35   A    
H9    O5    S    
C18   C20   S    
C9    N2    S    
C10   C11   A    
O11   Zn1   S    
C20   C21   D    
O13   Zn1   S    
C27   C28   A    
C25   O3    A    
C14   C15   A    
C20   H24   S    
C43   H21   S    
H27   N3    S    
C4    O12   A    
