data_mof_unit_11166.cif
_audit_creation_date              2012-12-10T21:11:30-0500
_audit_creation_method            fapswitch 2.2
_symmetry_space_group_name_H-M    P1
_symmetry_Int_Tables_number       1
_space_group_crystal_system       triclinic
_cell_length_a                    17.567607
_cell_length_b                    16.667807
_cell_length_c                    10.415531
_cell_angle_alpha                 90.023173
_cell_angle_beta                  88.746141
_cell_angle_gamma                 89.987764
_cell_volume                      3049.07732419

loop_
_atom_site_label
_atom_site_type_symbol
_atom_type_description
_atom_site_fract_x
_atom_site_fract_y
_atom_site_fract_z
_atom_type_partial_charge
C1    C     C_R   0.352728 0.500034 0.493856 0.961868
C2    C     C_R   0.647519 0.500009 0.502221 0.964067
C3    C     C_R   0.886895 0.498856 0.431532 -0.052767
C4    C     C_R   0.115712 0.501935 0.410209 -0.052069
C5    C     C_1   0.967220 0.499394 0.410069 0.031693
C6    C     C_1   0.034851 0.500414 0.403512 0.031812
C7    C     C_R   0.458744 0.832569 0.407998 0.329174
C8    C     C_R   0.541028 0.167389 0.592143 0.326479
C9    C     C_R   0.540860 0.832640 0.592361 0.326185
C10   C     C_R   0.458630 0.167404 0.408144 0.328163
C11   C     C_R   0.459887 0.747664 0.410240 -0.068542
C12   C     C_R   0.540083 0.252294 0.589747 -0.069632
C13   C     C_R   0.539945 0.747733 0.589924 -0.065076
C14   C     C_R   0.459813 0.252307 0.410338 -0.067237
C15   C     C_R   0.499781 0.875487 0.500181 0.021891
C16   C     C_R   0.499798 0.124513 0.500157 0.021682
C17   C     C_1   0.499741 0.963424 0.500192 0.191432
C18   C     C_1   0.499746 0.036577 0.500184 0.191674
C19   C     C_R   0.513630 0.499953 0.258752 0.857715
C20   C     C_R   0.484355 0.499976 0.739993 0.864747
C21   C     C_R   0.550724 0.646898 0.095843 -0.080142
C22   C     C_R   0.443908 0.352851 0.900197 -0.077460
C23   C     C_R   0.443553 0.646478 0.901330 -0.082759
C24   C     C_R   0.550313 0.352415 0.096510 -0.077275
C25   C     C_R   0.524623 0.720245 0.047037 0.304455
C26   C     C_R   0.469483 0.279348 0.949150 0.307961
C27   C     C_R   0.469265 0.720028 0.949857 0.306572
C28   C     C_R   0.524290 0.279125 0.047282 0.304748
C29   C     C_R   0.474943 0.573189 0.944404 -0.042680
C30   C     C_R   0.519169 0.426072 0.053943 -0.041040
C31   C     C_R   0.519332 0.573316 0.053790 -0.043565
C32   C     C_R   0.474998 0.426223 0.944055 -0.041659
C33   C     C_R   0.466490 0.499786 0.878485 -0.162203
C34   C     C_R   0.528639 0.499756 0.119370 -0.159931
C35   C     C_R   0.847774 0.572151 0.436711 -0.110528
C36   C     C_R   0.156399 0.429769 0.399628 -0.105346
C37   C     C_R   0.151719 0.573835 0.443550 -0.105934
C38   C     C_R   0.850295 0.426341 0.462894 -0.104075
C39   C     C_R   0.770695 0.573475 0.475361 0.344703
C40   C     C_R   0.234004 0.428066 0.431047 0.348186
C41   C     C_R   0.230073 0.573947 0.467685 0.336767
C42   C     C_R   0.771628 0.426381 0.492331 0.351485
C43   C     C_R   0.731416 0.500034 0.492678 -0.183139
C44   C     C_R   0.270476 0.500341 0.467209 -0.176789
H1    H     H_    0.428616 0.713741 0.340202 0.151115
H2    H     H_    0.571451 0.286184 0.659698 0.159766
H3    H     H_    0.571219 0.713864 0.659996 0.154112
H4    H     H_    0.428529 0.286205 0.340317 0.165886
N1    N     N_R   0.500000 0.707230 0.500000 -0.116261
N2    N     N_R   0.500000 0.292770 0.500000 -0.119248
O1    O     O_R   0.389110 0.566570 0.499990 -0.567196
O2    O     O_R   0.610890 0.433430 0.500010 -0.563118
O3    O     O_R   0.610890 0.566570 0.500010 -0.562449
O4    O     O_R   0.389110 0.433430 0.499990 -0.562183
O5    O     O_R   0.499990 0.566540 0.316770 -0.624524
O6    O     O_R   0.500010 0.433460 0.683230 -0.622595
O7    O     O_R   0.500010 0.566540 0.683230 -0.622030
O8    O     O_R   0.499990 0.433460 0.316770 -0.620858
Zn1   Zn    Zn3+2 0.500000 0.588860 0.500000 0.998949
Zn2   Zn    Zn3+2 0.500000 0.411140 0.500000 1.000898
O9    O     O_3   0.551722 0.209038 0.100018 -0.746582
H5    H     H_    0.512003 0.167125 0.095320 0.364970
O10   O     O_3   0.441368 0.789820 0.896861 -0.746678
H6    H     H_    0.481131 0.831763 0.900110 0.364228
O11   O     O_3   0.442049 0.209511 0.895553 -0.746547
H7    H     H_    0.481846 0.167618 0.899468 0.364493
O12   O     O_3   0.552508 0.790291 0.099271 -0.745884
H8    H     H_    0.512861 0.832324 0.095140 0.364729
C45   C     C_1   0.615233 0.647782 0.179623 0.310760
N3    N     N_1   0.667330 0.648795 0.245477 -0.142951
C46   C     C_1   0.381627 0.352205 0.811262 0.307693
N4    N     N_1   0.331628 0.351420 0.740765 -0.157073
C47   C     C_1   0.380010 0.646743 0.815417 0.306065
N5    N     N_1   0.328682 0.647155 0.747835 -0.124841
C48   C     C_1   0.613867 0.351231 0.182726 0.310222
N6    N     N_1   0.664934 0.350006 0.250955 -0.161805
C49   C     C_1   0.885817 0.645662 0.397341 0.206825
N7    N     N_1   0.915572 0.704467 0.365203 -0.151079
C50   C     C_1   0.117995 0.357772 0.356823 0.196478
N8    N     N_1   0.087552 0.300363 0.322308 -0.153245
C51   C     C_1   0.107561 0.646881 0.459693 0.201685
N9    N     N_1   0.072869 0.705402 0.473190 -0.154859
C52   C     C_1   0.893891 0.352403 0.465777 0.197545
N10   N     N_1   0.928495 0.293364 0.468355 -0.153758
O13   O     O_3   0.732037 0.645013 0.495878 -0.729587
H9    H     H_    0.768136 0.690204 0.503399 0.349314
O14   O     O_3   0.276243 0.357787 0.424948 -0.741398
H10   H     H_    0.243554 0.310711 0.409422 0.348564
O15   O     O_3   0.268359 0.644447 0.494640 -0.730187
H11   H     H_    0.238998 0.691668 0.466547 0.347948
O16   O     O_3   0.732548 0.356595 0.524092 -0.735164
H12   H     H_    0.764927 0.308697 0.511040 0.351727
O17   O     O_3   0.418213 0.874270 0.317581 -0.720330
H13   H     H_    0.392940 0.835281 0.260543 0.341681
O18   O     O_3   0.581495 0.125646 0.682592 -0.719457
H14   H     H_    0.606750 0.164607 0.739700 0.344705
O19   O     O_3   0.581151 0.874410 0.683037 -0.719732
H15   H     H_    0.606286 0.835467 0.740298 0.343718
O20   O     O_3   0.417940 0.125681 0.317929 -0.719538
H16   H     H_    0.392520 0.164656 0.261083 0.343469

loop_
_geom_bond_atom_site_label_1
_geom_bond_atom_site_label_2
_ccdc_geom_bond_type
C41   O15   S    
O14   H10   S    
C4    C36   A    
O17   H13   S    
O5    Zn1   S    
C38   C52   S    
C47   N5    T    
O18   H14   S    
C25   O12   S    
C20   O6    A    
O19   H15   S    
O3    Zn1   S    
O4    Zn2   S    
O13   H9    S    
C7    C11   A    
C21   C31   A    
C22   C32   A    
C23   C29   A    
C40   O14   S    
C38   C42   A    
C5    C6    T    
O7    Zn1   S    
O8    Zn2   S    
C29   C33   A    
C42   O16   S    
C9    C13   A    
O2    Zn2   S    
O20   H16   S    
C3    C38   A    
C23   C27   A    
O9    H5    S    
C28   O9    S    
C7    C15   A    
C8    C16   A    
C37   C51   S    
C10   O20   S    
C8    O18   S    
C23   C47   S    
C51   N9    T    
C19   O8    A    
C7    O17   S    
C30   C34   A    
O12   H8    S    
C2    O3    A    
C36   C40   A    
C12   H2    S    
C10   C14   A    
O16   H12   S    
C13   H3    S    
C39   C43   A    
C49   N7    T    
C19   C34   S    
C50   N8    T    
C21   C45   S    
C35   C39   A    
C48   N6    T    
C11   N1    A    
C1    C44   S    
C52   N10   T    
C3    C35   A    
C2    C43   S    
C8    C12   A    
C17   C18   T    
C31   C34   A    
C1    O1    A    
C2    O2    A    
C1    O4    A    
C13   N1    A    
C20   C33   S    
C4    C6    S    
C41   C44   A    
C11   H1    S    
O1    Zn1   S    
C42   C43   A    
C39   O13   S    
C22   C46   S    
C19   O5    A    
C15   C17   S    
C21   C25   A    
C9    O19   S    
C26   O11   S    
C20   O7    A    
C24   C28   A    
C3    C5    S    
C36   C50   S    
C12   N2    A    
C24   C48   S    
C25   C27   A    
C26   C28   A    
N1    Zn1   S    
N2    Zn2   S    
C32   C33   A    
C9    C15   A    
C46   N4    T    
C29   C31   A    
C10   C16   A    
C30   C32   A    
C14   N2    A    
C35   C49   S    
C37   C41   A    
C45   N3    T    
C24   C30   A    
O10   H6    S    
O6    Zn2   S    
C40   C44   A    
C4    C37   A    
C16   C18   S    
O11   H7    S    
C22   C26   A    
C14   H4    S    
C27   O10   S    
O15   H11   S    
