data_mof_unit_40918.cif
_audit_creation_date              2013-03-05T15:48:11-0500
_audit_creation_method            fapswitch 2.2
_symmetry_space_group_name_H-M    P1
_symmetry_Int_Tables_number       1
_space_group_crystal_system       triclinic
_cell_length_a                    20.905214
_cell_length_b                    7.128401
_cell_length_c                    14.028183
_cell_angle_alpha                 89.989564
_cell_angle_beta                  98.075244
_cell_angle_gamma                 90.014516
_cell_volume                      2069.76186822

loop_
_atom_site_label
_atom_site_type_symbol
_atom_site_description
_atom_site_fract_x
_atom_site_fract_y
_atom_site_fract_z
_atom_type_partial_charge
O1    O     O_R   0.447130 0.507140 0.597350 -0.589341
O2    O     O_R   0.552870 0.007140 0.402650 -0.589402
O3    O     O_R   0.578910 0.181280 0.586990 -0.591321
O4    O     O_R   0.421090 0.681280 0.413010 -0.591460
C1    C     C_R   0.604472 0.344504 0.607421 0.985228
C2    C     C_R   0.395528 0.844488 0.392579 0.985218
O5    O     O_R   0.449230 0.177860 0.608640 -0.589323
O6    O     O_R   0.550770 0.677860 0.391360 -0.589256
O7    O     O_R   0.422260 0.000770 0.424450 -0.589178
O8    O     O_R   0.577740 0.500770 0.575550 -0.589224
C3    C     C_R   0.433104 0.346320 0.634947 0.955984
C4    C     C_R   0.566893 0.846383 0.365051 0.955956
O9    O     O_3   0.491310 0.336980 0.439550 -0.276760
O10   O     O_3   0.508690 0.836980 0.560450 -0.276683
V1    V     V_3+5 0.501610 0.064760 0.511210 1.203145
V2    V     V_3+5 0.498390 0.564760 0.488790 1.203029
C5    C     C_R   0.617951 0.875123 0.119139 0.370841
C6    C     C_R   0.382072 0.370641 0.880979 0.370900
H1    H     H_    0.527163 0.870548 0.175257 0.173951
H2    H     H_    0.472859 0.366072 0.824867 0.173947
H3    H     H_    0.706148 0.916344 0.996490 0.179510
H4    H     H_    0.293949 0.409555 0.003891 0.179392
C7    C     C_R   0.607337 0.855222 0.288570 -0.150791
C8    C     C_R   0.392662 0.354848 0.711434 -0.150954
C9    C     C_R   0.920523 0.835620 0.304909 -0.171058
C10   C     C_R   0.079439 0.338564 0.694943 -0.171097
C11   C     C_R   0.883266 0.819868 0.378944 -0.089729
C12   C     C_R   0.116676 0.324015 0.620830 -0.089724
C13   C     C_R   0.816104 0.826024 0.359349 -0.186670
C14   C     C_R   0.183849 0.329029 0.640472 -0.186690
C15   C     C_R   0.784121 0.849588 0.263945 0.123882
C16   C     C_R   0.215867 0.350128 0.736014 0.123910
C17   C     C_R   0.822772 0.865919 0.188524 0.100988
C18   C     C_R   0.177241 0.364973 0.811532 0.100939
C19   C     C_R   0.715283 0.856078 0.240956 0.072434
C20   C     C_R   0.284714 0.355617 0.759039 0.072566
C21   C     C_R   0.686318 0.873205 0.142878 -0.017853
C22   C     C_R   0.313704 0.370003 0.857223 -0.018186
C23   C     C_R   0.726074 0.893640 0.070953 -0.130815
C24   C     C_R   0.273983 0.388947 0.929280 -0.130854
C25   C     C_R   0.792794 0.889518 0.093190 -0.233888
C26   C     C_R   0.207256 0.385984 0.907014 -0.233604
C27   C     C_R   0.674194 0.847937 0.312541 -0.236177
C28   C     C_R   0.325792 0.349035 0.687403 -0.236242
C29   C     C_R   0.579343 0.868623 0.192787 -0.215204
C30   C     C_R   0.420675 0.365420 0.807306 -0.214966
C31   C     C_R   0.890969 0.858349 0.210033 -0.157490
C32   C     C_R   0.109030 0.358710 0.789960 -0.157382
H5    H     H_    0.692304 0.838178 0.388114 0.109662
H6    H     H_    0.307664 0.341363 0.611772 0.109673
H7    H     H_    0.972690 0.828969 0.321530 0.103548
H8    H     H_    0.027258 0.333065 0.678263 0.103502
H9    H     H_    0.790980 0.810092 0.420738 0.114252
H10   H     H_    0.208953 0.314208 0.579001 0.114233
H11   H     H_    0.906609 0.801450 0.452273 0.117097
H12   H     H_    0.093305 0.307554 0.547389 0.117098
H13   H     H_    0.820803 0.905427 0.034360 0.134730
H14   H     H_    0.179271 0.400678 0.965941 0.134547
C33   C     C_1   0.166622 0.857145 0.168235 -0.301917
C34   C     C_1   0.833377 0.357101 0.831766 -0.301951
C35   C     C_1   0.219038 0.854877 0.219318 0.062966
C36   C     C_1   0.780962 0.354852 0.780683 0.062952
C37   C     C_1   0.280788 0.853426 0.279344 0.072493
C38   C     C_1   0.719213 0.353442 0.720656 0.072504
C39   C     C_1   0.333144 0.851097 0.330585 -0.282800
C40   C     C_1   0.666856 0.351136 0.669414 -0.282745
O11   O     O_R   0.922300 0.202240 0.924350 -0.586258
O12   O     O_R   0.077700 0.702240 0.075650 -0.586148
O13   O     O_R   0.050780 0.535130 0.891350 -0.593457
O14   O     O_R   0.949220 0.035130 0.108650 -0.593600
C41   C     C_R   0.067681 0.368036 0.865716 0.919017
C42   C     C_R   0.932316 0.867974 0.134279 0.919050
O15   O     O_R   0.921100 0.531560 0.912990 -0.588749
O16   O     O_R   0.078900 0.031560 0.087010 -0.588884
O17   O     O_R   0.947120 0.708470 0.097370 -0.588649
O18   O     O_R   0.052880 0.208470 0.902630 -0.588738
C43   C     C_R   0.895866 0.363549 0.893480 0.966839
C44   C     C_R   0.104134 0.863566 0.106520 0.966879
O19   O     O_3   0.008710 0.375800 0.060400 -0.282324
O20   O     O_3   0.991290 0.875800 0.939600 -0.282270
V3    V     V_3+5 0.998380 0.648080 0.988790 1.170176
V4    V     V_3+5 0.001620 0.148080 0.011210 1.169960
N1    N     N_R   0.586805 0.879835 0.021049 0.236860
O21   O     O_R   0.602182 0.757230 0.959402 -0.386634
O22   O     O_R   0.535082 0.980867 0.998176 -0.337083
N2    N     N_R   0.413212 0.372587 0.979094 0.237460
O23   O     O_R   0.397638 0.248469 0.039883 -0.386039
O24   O     O_R   0.465099 0.472673 0.002659 -0.337749

loop_
_geom_bond_atom_site_label_1
_geom_bond_atom_site_label_2
_geom_bond_distance
_ccdc_geom_bond_type
C22   C24   1.401949 A    
C37   C39   1.222269 T    
C7    C29   1.391446 A    
C11   C13   1.392978 A    
O11   C43   1.322130 A    
O2    C4    1.311927 A    
C26   H14   1.082811 S    
C2    O7    1.297289 A    
C12   H12   1.082803 S    
C23   C25   1.386154 A    
O5    C3    1.314230 A    
C14   H10   1.075823 S    
C4    C7    1.457639 S    
C6    N2    1.437584 S    
O12   V3    1.953354 S    
C16   C20   1.430613 A    
C19   C21   1.428449 A    
C5    C29   1.398287 A    
C41   O18   1.304726 A    
O20   V3    1.761860 S    
C11   H11   1.082815 S    
C3    C8    1.457625 S    
C7    C27   1.391821 A    
C34   C36   1.222232 T    
O13   C41   1.307274 A    
C36   C38   1.438805 S    
C2    C39   1.463106 S    
C18   C26   1.405038 A    
O1    C3    1.312021 A    
C15   C17   1.423361 A    
C19   C27   1.411358 A    
C9    C31   1.395830 A    
C10   C32   1.395821 A    
C24   C26   1.386166 A    
O6    V2    2.033895 S    
O16   V4    1.987039 S    
C42   O17   1.304628 A    
C6    C30   1.398257 A    
C33   C44   1.463012 S    
O15   V3    1.986860 S    
O12   C44   1.322131 A    
C34   C43   1.463005 S    
C33   C35   1.222237 T    
O20   V4    2.182315 S    
O18   V4    2.027763 S    
O19   V3    2.182086 S    
N2    O23   1.301376 A    
C27   H5    1.076716 S    
O5    V1    2.034313 S    
C5    N1    1.437639 S    
C16   C18   1.423357 A    
O4    V2    1.987230 S    
C9    H7    1.083746 S    
C10   H8    1.083764 S    
N1    O21   1.301373 A    
H3    C23   1.080998 S    
O6    C4    1.314351 A    
H4    C24   1.081005 S    
C35   C37   1.438812 S    
O1    V2    2.023437 S    
C5    C21   1.421284 A    
O2    V1    2.023658 S    
O4    C2    1.295533 A    
N1    O22   1.301390 A    
C17   C31   1.416204 A    
C15   C19   1.430641 A    
C20   C28   1.411377 A    
C18   C32   1.416220 A    
C32   C41   1.462571 S    
O3    V1    1.987049 S    
C28   H6    1.076721 S    
O17   V3    2.027999 S    
C1    C40   1.463099 S    
O3    C1    1.295489 A    
O19   V4    1.762022 S    
H1    C29   1.084074 S    
C9    C11   1.387473 A    
C10   C12   1.387480 A    
C17   C25   1.405022 A    
C12   C14   1.393007 A    
C6    C22   1.421270 A    
C25   H13   1.082810 S    
C1    O8    1.297291 A    
C21   C23   1.401961 A    
O8    V2    1.968259 S    
C14   C16   1.419500 A    
C13   H9    1.075816 S    
C8    C28   1.391830 A    
C20   C22   1.428426 A    
N2    O24   1.301472 A    
O7    V1    1.968167 S    
O14   V4    2.033839 S    
C31   C42   1.462594 S    
O13   V3    2.034256 S    
O11   V4    1.953431 S    
C13   C15   1.419503 A    
O16   C44   1.321699 A    
O9    V2    1.762677 S    
O15   C43   1.321660 A    
O10   V1    1.762514 S    
O14   C42   1.307389 A    
H2    C30   1.084101 S    
C38   C40   1.222266 T    
C8    C30   1.391456 A    
