data_mof_unit_28911.cif
_audit_creation_date              2012-12-10T18:13:56-0500
_audit_creation_method            fapswitch 2.2
_symmetry_space_group_name_H-M    P1
_symmetry_Int_Tables_number       1
_space_group_crystal_system       triclinic
_cell_length_a                    10.719171
_cell_length_b                    9.448648
_cell_length_c                    23.483983
_cell_angle_alpha                 90.292127
_cell_angle_beta                  88.419538
_cell_angle_gamma                 89.88277
_cell_volume                      2377.55567782

loop_
_atom_site_label
_atom_site_type_symbol
_atom_type_description
_atom_site_fract_x
_atom_site_fract_y
_atom_site_fract_z
_atom_type_partial_charge
C1    C     C_R   0.259786 0.499956 0.502060 0.754174
C2    C     C_R   0.277711 0.400970 0.972679 -0.166110
C3    C     C_R   0.275155 0.403889 0.032129 -0.165112
C4    C     C_R   0.373990 0.464566 0.061769 -0.013412
C5    C     C_R   0.475676 0.523634 0.031020 -0.016558
C6    C     C_R   0.574935 0.585434 0.060246 -0.010726
C7    C     C_R   0.676130 0.643679 0.029206 -0.161546
C8    C     C_R   0.679460 0.639109 0.969815 -0.164330
C9    C     C_R   0.375018 0.465604 0.121540 0.533432
C10   C     C_R   0.571086 0.585768 0.119976 0.527515
C11   C     C_R   0.571968 0.438671 0.235612 -0.093123
C12   C     C_R   0.497474 0.499961 0.391225 0.777411
C13   C     C_R   0.578331 0.432477 0.294647 -0.252434
C14   C     C_R   0.488657 0.501626 0.329181 -0.026985
C15   C     C_R   0.393349 0.579427 0.304001 -0.252958
C16   C     C_R   0.387256 0.586399 0.244758 -0.098717
C17   C     C_R   0.476779 0.516001 0.210305 0.348030
C18   C     C_R   0.480584 0.635658 0.760864 0.494989
C19   C     C_R   0.486615 0.632236 0.701329 -0.314242
C20   C     C_R   0.495780 0.502637 0.671846 -0.100039
C21   C     C_R   0.500649 0.376061 0.702812 -0.231034
C22   C     C_R   0.497233 0.379204 0.762209 -0.171282
C23   C     C_R   0.739803 0.499889 0.502180 0.748654
C24   C     C_R   0.487986 0.508564 0.791488 0.263462
C25   C     C_3   0.069089 0.610230 0.547026 -0.377598
C26   C     C_3   0.070516 0.351388 0.520542 -0.381096
C27   C     C_3   0.924959 0.611767 0.546663 -0.373932
C28   C     C_3   0.927346 0.353019 0.522632 -0.376020
C29   C     C_3   0.075380 0.535908 0.443515 -0.384435
C30   C     C_3   0.121760 0.499485 0.503431 0.167363
C31   C     C_3   0.877840 0.499659 0.503788 0.156508
C32   C     C_3   0.931838 0.535482 0.443767 -0.384742
C33   C     C_3   0.574624 0.083943 0.548364 -0.185502
C34   C     C_3   0.586391 0.917362 0.543794 -0.214929
C35   C     C_3   0.372515 0.083732 0.509338 -0.334119
C36   C     C_3   0.374403 0.917269 0.515292 -0.325644
C37   C     C_3   0.555619 0.082759 0.446853 0.433717
C38   C     C_3   0.537200 0.915710 0.443955 0.500951
C39   C     C_R   0.499083 0.500476 0.609111 0.812439
C40   C     C_R   0.583209 0.570037 0.880551 0.601179
C41   C     C_R   0.384571 0.455424 0.881848 0.512743
C42   C     C_R   0.379394 0.458146 0.941621 -0.009716
C43   C     C_R   0.478632 0.519897 0.970903 -0.020092
C44   C     C_R   0.581285 0.577021 0.940226 -0.034918
Cu1   Cu    Cu3+1 0.499860 0.642410 0.500030 0.935955
Cu2   Cu    Cu3+1 0.499860 0.357590 0.500030 0.915019
H1    H     H_    0.200145 0.353086 0.951186 0.188092
H2    H     H_    0.483315 0.731354 0.678443 0.160230
H3    H     H_    0.507756 0.274717 0.681226 0.157655
H4    H     H_    0.502435 0.281022 0.785612 0.160596
H5    H     H_    0.104428 0.717833 0.536358 0.165405
H6    H     H_    0.103276 0.269764 0.489158 0.167179
H7    H     H_    0.100756 0.584459 0.590511 0.154611
H8    H     H_    0.105432 0.320643 0.562954 0.159818
H9    H     H_    0.886526 0.589453 0.590200 0.154743
H10   H     H_    0.892876 0.329741 0.566745 0.158665
H11   H     H_    0.892493 0.719322 0.534741 0.177277
H12   H     H_    0.892460 0.267271 0.494953 0.201962
H13   H     H_    0.110413 0.641920 0.430222 0.158565
H14   H     H_    0.112092 0.457378 0.411719 0.158907
H15   H     H_    0.898842 0.642011 0.431262 0.191421
H16   H     H_    0.899009 0.457854 0.411798 0.149948
H17   H     H_    0.530055 0.111832 0.590287 0.136835
H18   H     H_    0.566539 0.871305 0.586464 0.146982
H19   H     H_    0.195792 0.357945 0.054741 0.188402
H20   H     H_    0.669072 0.132106 0.548604 0.182197
H21   H     H_    0.684484 0.888573 0.532169 0.183034
H22   H     H_    0.326298 0.130941 0.547965 0.183949
H23   H     H_    0.344452 0.886888 0.559313 0.170917
H24   H     H_    0.502740 0.126990 0.410858 0.004627
H25   H     H_    0.457329 0.896018 0.415260 -0.046070
H26   H     H_    0.314528 0.113054 0.472610 0.147102
H27   H     H_    0.303812 0.873004 0.486420 0.162812
H28   H     H_    0.753582 0.691866 0.050678 0.188045
H29   H     H_    0.759247 0.684168 0.947215 0.188076
H30   H     H_    0.642243 0.385066 0.209393 0.145919
H31   H     H_    0.656242 0.379018 0.312920 0.113690
H32   H     H_    0.324248 0.635040 0.330233 0.132446
H33   H     H_    0.313952 0.647471 0.225640 0.147832
N1    N     N_R   0.485408 0.510861 0.852652 -0.455708
N2    N     N_R   0.473130 0.524521 0.149335 -0.467832
N3    N     N_3   0.500250 0.143650 0.501250 -0.161853
N4    N     N_3   0.500250 0.856350 0.501250 -0.153917
O1    O     O_R   0.317570 0.620260 0.500030 -0.602098
O2    O     O_R   0.317570 0.379740 0.500030 -0.595977
O3    O     O_R   0.499840 0.620290 0.417900 -0.552253
O4    O     O_R   0.499840 0.379710 0.417900 -0.598494
O5    O     O_R   0.682190 0.620260 0.500010 -0.546200
O6    O     O_R   0.682190 0.379740 0.500010 -0.574775
O7    O     O_R   0.499920 0.620230 0.582140 -0.594181
O8    O     O_R   0.499920 0.379770 0.582140 -0.591901
O9    O     O_2   0.682309 0.621158 0.850581 -0.518561
O10   O     O_2   0.289278 0.398917 0.853094 -0.555436
O11   O     O_2   0.279989 0.405924 0.151604 -0.544154
O12   O     O_2   0.664606 0.646593 0.148575 -0.551575
O13   O     O_3   0.686236 0.113661 0.442992 -0.565252
C45   C     C_3   0.722434 0.186604 0.392655 0.119562
H34   H     H_    0.721739 0.301746 0.401070 0.165945
H35   H     H_    0.661416 0.165483 0.356176 0.095800
C46   C     C_3   0.855206 0.145359 0.374455 -0.847605
H36   H     H_    0.862523 0.029598 0.367716 0.263617
H37   H     H_    0.881504 0.199539 0.334038 0.208337
H38   H     H_    0.922359 0.176670 0.407178 0.235785
O14   O     O_3   0.647161 0.847060 0.422063 -0.530000
C47   C     C_3   0.647123 0.836208 0.361569 0.091437
H39   H     H_    0.661229 0.940056 0.341415 0.126342
H40   H     H_    0.558388 0.793420 0.345428 0.147723
C48   C     C_3   0.751656 0.738304 0.340703 -0.773309
H41   H     H_    0.739854 0.632055 0.359956 0.228647
H42   H     H_    0.749210 0.727220 0.293642 0.231538
H43   H     H_    0.843598 0.782031 0.352162 0.225612
O15   O     O_3   0.475071 0.764001 0.789261 -0.561837
C49   C     C_3   0.349168 0.807253 0.794104 0.026002
H44   H     H_    0.291678 0.727051 0.817492 0.164932
H45   H     H_    0.309881 0.825056 0.751282 0.136998
C50   C     C_3   0.341419 0.945767 0.827320 -0.714995
H46   H     H_    0.396428 0.028747 0.804690 0.245463
H47   H     H_    0.242682 0.980976 0.831537 0.209682
H48   H     H_    0.378874 0.931031 0.870532 0.250434

loop_
_geom_bond_atom_site_label_1
_geom_bond_atom_site_label_2
_ccdc_geom_bond_type
C38   N4    S    
C41   C42   A    
C19   C20   A    
C41   N1    A    
C21   H3    S    
C45   H34   S    
C28   H10   S    
C7    C8    A    
Cu2   O6    S    
Cu1   N4    S    
Cu1   Cu2   S    
C50   H46   S    
C1    O1    A    
C47   H40   S    
C29   C30   S    
C18   C24   A    
C10   O12   S    
C18   O15   S    
C32   H15   S    
C49   H44   S    
C29   C32   S    
C11   H30   S    
C5    C6    A    
C27   H9    S    
C15   H32   S    
C36   N4    S    
C15   C16   A    
C48   H41   S    
C18   C19   A    
C39   O8    A    
O15   C49   S    
C38   O14   S    
Cu2   N3    S    
C24   N1    S    
C41   O10   S    
C29   H13   S    
C50   H47   S    
C16   C17   A    
C40   N1    A    
C13   C14   A    
C33   N3    S    
C39   O7    A    
C22   H4    S    
C49   C50   S    
C5    C43   A    
C21   C22   A    
C3    H19   S    
C26   H8    S    
C46   H37   S    
O14   C47   S    
C45   H35   S    
C35   N3    S    
C33   H20   S    
C7    H28   S    
C1    O2    A    
C47   C48   S    
C13   H31   S    
C27   C31   S    
Cu1   O5    S    
C27   H11   S    
C20   C39   S    
C19   H2    S    
Cu2   O8    S    
C8    H29   S    
C37   O13   S    
C35   C36   S    
C23   C31   S    
C43   C44   A    
C25   H5    S    
C37   C38   S    
C26   H6    S    
C31   C32   S    
C29   H14   S    
C33   H17   S    
O13   C45   S    
C23   O6    A    
C33   C34   S    
C40   O9    S    
Cu1   O7    S    
C12   C14   S    
C35   H26   S    
C26   C30   S    
C23   O5    A    
C22   C24   A    
C37   N3    S    
Cu1   O1    S    
C42   C43   A    
C3    C4    A    
C45   C46   S    
C36   H23   S    
Cu2   O4    S    
C25   C30   S    
C38   H25   S    
C11   C17   A    
C12   O4    A    
C28   C31   S    
C8    C44   A    
C25   H7    S    
C4    C5    A    
C34   H21   S    
C6    C10   A    
C50   H48   S    
C6    C7    A    
C28   H12   S    
C2    H1    S    
C25   C27   S    
C47   H39   S    
C10   N2    A    
C26   C28   S    
C48   H43   S    
C12   O3    A    
C16   H33   S    
Cu2   O2    S    
C2    C3    A    
C32   H16   S    
C11   C13   A    
C35   H22   S    
C2    C42   A    
C1    C30   S    
C48   H42   S    
Cu1   O3    S    
C17   N2    S    
C46   H38   S    
C36   H27   S    
C40   C44   A    
C20   C21   A    
C34   N4    S    
C14   C15   A    
C46   H36   S    
C4    C9    A    
C37   H24   S    
C9    O11   S    
C34   H18   S    
C9    N2    A    
C49   H45   S    
