data_mof_unit_16887.cif
_audit_creation_date              2012-12-11T15:19:28-0500
_audit_creation_method            fapswitch 2.2
_symmetry_space_group_name_H-M    P1
_symmetry_Int_Tables_number       1
_space_group_crystal_system       triclinic
_cell_length_a                    19.925755
_cell_length_b                    6.88008
_cell_length_c                    18.204158
_cell_angle_alpha                 90.089943
_cell_angle_beta                  104.0489
_cell_angle_gamma                 89.882773
_cell_volume                      2420.96901657

loop_
_atom_site_label
_atom_site_type_symbol
_atom_type_description
_atom_site_fract_x
_atom_site_fract_y
_atom_site_fract_z
_atom_type_partial_charge
O1    O     O_R   0.312200 0.620210 0.189560 -0.551371
O2    O     O_R   0.687800 0.379790 0.810440 -0.541508
O3    O     O_R   0.187800 0.120210 0.310440 -0.548642
O4    O     O_R   0.812200 0.879790 0.689560 -0.542274
O5    O     O_R   0.171590 0.286140 0.165000 -0.530025
O6    O     O_R   0.828410 0.713860 0.835000 -0.540985
O7    O     O_R   0.328410 0.786140 0.335000 -0.531147
O8    O     O_R   0.671590 0.213860 0.665000 -0.539046
C1    C     C_R   0.145703 0.459606 0.143775 0.716539
C2    C     C_R   0.854215 0.540413 0.856338 0.692193
C3    C     C_R   0.354308 0.959517 0.356213 0.718105
C4    C     C_R   0.645759 0.040481 0.643697 0.692129
O9    O     O_R   0.310670 0.290220 0.180540 -0.532100
O10   O     O_R   0.689330 0.709780 0.819460 -0.523156
O11   O     O_R   0.189330 0.790220 0.319460 -0.536899
O12   O     O_R   0.810670 0.209780 0.680540 -0.523007
O13   O     O_R   0.327870 0.124170 0.326080 -0.535103
O14   O     O_R   0.672130 0.875830 0.673920 -0.532653
O15   O     O_R   0.172130 0.624170 0.173920 -0.540055
O16   O     O_R   0.827870 0.375830 0.826080 -0.533089
C5    C     C_R   0.331252 0.458834 0.164046 0.764482
C6    C     C_R   0.668532 0.540877 0.835538 0.728631
C7    C     C_R   0.168527 0.959262 0.335610 0.756340
C8    C     C_R   0.831707 0.040470 0.664764 0.729796
O17   O     O_3   0.255480 0.455050 0.297740 -0.370429
O18   O     O_3   0.744520 0.544950 0.702260 -0.361199
O19   O     O_3   0.244520 0.955050 0.202260 -0.375621
O20   O     O_3   0.755480 0.044950 0.797740 -0.362215
V1    V     V_3+5 0.248980 0.178550 0.241140 1.405957
V2    V     V_3+5 0.751020 0.821450 0.758860 1.450309
V3    V     V_3+5 0.251020 0.678550 0.258860 1.397523
V4    V     V_3+5 0.748980 0.321450 0.741140 1.454295
C9    C     C_R   0.937555 0.906104 0.634240 -0.269444
C10   C     C_R   0.062433 0.094180 0.366039 -0.303573
C11   C     C_R   0.567369 0.392041 0.870744 -0.263114
C12   C     C_R   0.433155 0.607472 0.129381 -0.322753
C13   C     C_R   0.879690 0.028867 0.614115 -0.173346
C14   C     C_R   0.119557 0.968377 0.385319 -0.159346
C15   C     C_R   0.620606 0.530311 0.886271 -0.179132
C16   C     C_R   0.380491 0.466919 0.114541 -0.173535
C17   C     C_R   0.868645 0.139468 0.546493 0.370235
C18   C     C_R   0.129933 0.854271 0.451831 0.334869
C19   C     C_R   0.627012 0.656656 0.949355 0.369019
C20   C     C_R   0.375270 0.336976 0.052857 0.340858
C21   C     C_R   0.917631 0.131120 0.501675 0.019866
C22   C     C_R   0.082752 0.870337 0.498984 0.006668
C23   C     C_R   0.577711 0.647997 0.993735 0.017405
C24   C     C_R   0.422280 0.353934 0.005610 0.004403
C25   C     C_R   0.975681 0.006259 0.522776 0.013785
C26   C     C_R   0.024116 0.993102 0.477241 0.023023
C27   C     C_R   0.524441 0.507232 0.977262 0.011494
C28   C     C_R   0.476001 0.493415 0.022683 0.023569
C29   C     C_R   0.985805 0.895730 0.589719 0.107095
C30   C     C_R   0.014605 0.106466 0.411049 0.106539
C31   C     C_R   0.519202 0.380720 0.915166 0.104037
C32   C     C_R   0.480817 0.621274 0.084277 0.104613
C33   C     C_R   0.909885 0.245054 0.436013 -0.167007
C34   C     C_R   0.093596 0.770427 0.568407 -0.172252
C35   C     C_R   0.580545 0.776826 0.054527 -0.163266
C36   C     C_R   0.416267 0.236564 0.940866 -0.167067
C37   C     C_R   0.957665 0.232425 0.391236 -0.192831
C38   C     C_R   0.045126 0.780057 0.612306 -0.172079
C39   C     C_R   0.532843 0.763095 0.099333 -0.198544
C40   C     C_R   0.464733 0.247387 0.897147 -0.171820
H1    H     H_    0.945897 0.821842 0.686000 0.136231
H2    H     H_    0.054980 0.181952 0.315243 0.135123
H3    H     H_    0.562482 0.295519 0.822558 0.140872
H4    H     H_    0.437122 0.706613 0.176621 0.136029
H5    H     H_    0.866813 0.344653 0.418853 0.158588
H6    H     H_    0.139446 0.683387 0.589425 0.149646
H7    H     H_    0.619739 0.888769 0.067889 0.159147
H8    H     H_    0.374281 0.134811 0.923421 0.146797
H9    H     H_    0.950033 0.321775 0.340898 0.123478
H10   H     H_    0.054498 0.698046 0.664603 0.123190
H11   H     H_    0.536643 0.864049 0.145918 0.121039
H12   H     H_    0.459168 0.152050 0.848592 0.122884
C41   C     C_1   0.583382 0.027539 0.581323 -0.202506
C42   C     C_1   0.416890 0.972522 0.418324 -0.191227
C43   C     C_1   0.916604 0.527436 0.918688 -0.202130
C44   C     C_1   0.083140 0.472759 0.081658 -0.197896
C45   C     C_1   0.531087 0.010982 0.529879 0.002339
C46   C     C_1   0.469307 0.989165 0.469606 0.003330
C47   C     C_1   0.968922 0.511016 0.970114 0.002687
C48   C     C_1   0.030722 0.489364 0.030372 0.002954
O21   O     O_3   0.812209 0.263479 0.525865 -0.573677
C49   C     C_3   0.750537 0.156008 0.498218 0.093214
H13   H     H_    0.708678 0.229812 0.518355 0.145565
H14   H     H_    0.752707 0.003371 0.519388 0.084389
C50   C     C_3   0.731078 0.155109 0.411568 -0.332478
H15   H     H_    0.728762 0.306989 0.390349 0.201052
H16   H     H_    0.771115 0.074773 0.390533 0.192506
C51   C     C_3   0.661072 0.058025 0.380571 -0.824744
H17   H     H_    0.662490 0.904965 0.400255 0.233928
H18   H     H_    0.648534 0.058814 0.317711 0.228749
H19   H     H_    0.619776 0.137872 0.399581 0.233690
O22   O     O_3   0.192745 0.759869 0.477469 -0.577253
C52   C     C_3   0.184920 0.556448 0.467946 0.077094
H20   H     H_    0.183046 0.515999 0.408436 0.159655
H21   H     H_    0.137013 0.500197 0.481729 0.108273
C53   C     C_3   0.247883 0.459797 0.520214 -0.315922
H22   H     H_    0.295660 0.508477 0.504376 0.205880
H23   H     H_    0.251292 0.505575 0.579596 0.194094
C54   C     C_3   0.243948 0.239000 0.515914 -0.772424
H24   H     H_    0.196214 0.187471 0.530894 0.237157
H25   H     H_    0.289400 0.175304 0.556498 0.229506
H26   H     H_    0.244627 0.189371 0.458164 0.236534
O23   O     O_3   0.679167 0.794824 0.965924 -0.572469
C55   C     C_3   0.743785 0.705403 0.998259 0.101967
H27   H     H_    0.783784 0.782802 0.976356 0.148073
H28   H     H_    0.746886 0.549244 0.982629 0.078971
C56   C     C_3   0.761526 0.725147 0.084563 -0.336863
H29   H     H_    0.758789 0.880681 0.100223 0.200779
H30   H     H_    0.723442 0.642188 0.107590 0.192950
C57   C     C_3   0.833960 0.647485 0.119996 -0.827444
H31   H     H_    0.837549 0.491159 0.106015 0.232204
H32   H     H_    0.845249 0.663251 0.182515 0.230883
H33   H     H_    0.873284 0.730337 0.098927 0.233201
O24   O     O_3   0.318577 0.214101 0.032884 -0.563859
C58   C     C_3   0.338590 0.018945 0.051496 0.108566
H34   H     H_    0.336355 0.987666 0.110650 0.153246
H35   H     H_    0.392243 0.985375 0.047140 0.077462
C59   C     C_3   0.289491 0.881572 0.997473 -0.322107
H36   H     H_    0.288398 0.919589 0.937950 0.185763
H37   H     H_    0.308892 0.730257 0.007115 0.163931
C60   C     C_3   0.215873 0.889837 0.008067 -0.650043
H38   H     H_    0.214725 0.834990 0.064902 0.230907
H39   H     H_    0.181741 0.796097 0.965069 0.190618
H40   H     H_    0.195503 0.040830 0.001234 0.243756

loop_
_geom_bond_atom_site_label_1
_geom_bond_atom_site_label_2
_ccdc_geom_bond_type
C34   C38   A    
O1    C5    A    
O19   V1    S    
O13   V1    S    
O3    C7    A    
C56   H29   S    
C44   C48   T    
O15   V3    S    
C10   H2    S    
C45   C46   S    
C9    H1    S    
O21   C49   S    
C2    C43   S    
O7    C3    A    
C21   C33   A    
C26   C30   A    
C18   O22   S    
O9    V1    S    
C14   C18   A    
O4    C8    A    
C49   H14   S    
C36   H8    S    
C52   H20   S    
O1    V3    S    
C55   H27   S    
O2    V4    S    
C18   C22   A    
C33   C37   A    
O3    V1    S    
O24   C58   S    
C53   H22   S    
C12   C16   A    
C1    O15   A    
C23   C27   A    
C2    O16   A    
O2    C6    A    
C60   H40   S    
O23   C55   S    
O14   V2    S    
C20   O24   S    
C50   H16   S    
C16   C20   A    
O11   C7    A    
O12   C8    A    
C31   C40   A    
O17   V1    S    
O10   V2    S    
C53   H23   S    
C52   H21   S    
C24   C36   A    
O5    V1    S    
C58   H35   S    
C9    C29   A    
O7    V3    S    
C11   C31   A    
C27   C28   A    
O8    V4    S    
O20   V4    S    
C56   H30   S    
C4    C41   S    
O18   V4    S    
C34   H6    S    
C15   C19   A    
C37   H9    S    
O19   V3    S    
C53   C54   S    
C9    C13   A    
C1    C44   S    
C54   H26   S    
C11   C15   A    
O5    C1    A    
C12   C32   A    
C3    C42   S    
C29   C38   A    
C42   C46   T    
C47   C48   S    
C21   C25   A    
O8    C4    A    
O22   C52   S    
C51   H18   S    
C8    C13   S    
C40   H12   S    
C32   C39   A    
O9    C5    A    
C54   H25   S    
C19   O23   S    
C50   C51   S    
O11   V3    S    
O6    V2    S    
C10   C30   A    
C60   H38   S    
C59   H37   S    
C52   C53   S    
C49   H13   S    
O16   V4    S    
C58   C59   S    
C3    O13   A    
C10   C14   A    
O17   V3    S    
C49   C50   S    
O6    C2    A    
C57   H32   S    
C58   H34   S    
C12   H4    S    
C57   H31   S    
C30   C37   A    
O12   V4    S    
C7    C14   S    
C17   O21   S    
C22   C26   A    
C35   C39   A    
C55   C56   S    
C36   C40   A    
O10   C6    A    
C59   C60   S    
O20   V2    S    
C59   H36   S    
C43   C47   T    
C5    C16   S    
C39   H11   S    
C25   C29   A    
C6    C15   S    
C51   H17   S    
C55   H28   S    
C56   C57   S    
C27   C31   A    
C51   H19   S    
C13   C17   A    
C41   C45   T    
O4    V2    S    
C57   H33   S    
C11   H3    S    
C23   C35   A    
C28   C32   A    
C24   C28   A    
C25   C26   A    
C4    O14   A    
C54   H24   S    
C60   H39   S    
C17   C21   A    
C38   H10   S    
C33   H5    S    
C50   H15   S    
C19   C23   A    
C22   C34   A    
C20   C24   A    
C35   H7    S    
O18   V2    S    
