data_mof_unit_55767.cif
_audit_creation_date              2012-12-11T14:48:35-0500
_audit_creation_method            fapswitch 2.2
_symmetry_space_group_name_H-M    P1
_symmetry_Int_Tables_number       1
_space_group_crystal_system       triclinic
_cell_length_a                    7.225438
_cell_length_b                    18.942406
_cell_length_c                    19.111638
_cell_angle_alpha                 90.026602
_cell_angle_beta                  86.155726
_cell_angle_gamma                 90.186113
_cell_volume                      2609.85659326

loop_
_atom_site_label
_atom_site_type_symbol
_atom_type_description
_atom_site_fract_x
_atom_site_fract_y
_atom_site_fract_z
_atom_type_partial_charge
O1    O     O_R   0.350610 0.187000 0.656530 -0.534717
O2    O     O_R   0.649390 0.813000 0.343470 -0.534824
O3    O     O_R   0.149390 0.687000 0.343470 -0.537380
O4    O     O_R   0.850610 0.313000 0.656530 -0.537454
O5    O     O_R   0.655920 0.179060 0.799470 -0.528631
O6    O     O_R   0.344080 0.820940 0.200530 -0.528734
O7    O     O_R   0.844080 0.679060 0.200530 -0.529918
O8    O     O_R   0.155920 0.320940 0.799470 -0.529864
O9    O     O_R   0.826150 0.314000 0.799910 -0.533837
O10   O     O_R   0.173850 0.686000 0.200090 -0.533671
O11   O     O_R   0.673850 0.814000 0.200090 -0.532992
O12   O     O_R   0.326150 0.186000 0.799910 -0.532983
C1    C     C_R   0.484114 0.161544 0.822978 0.722006
C2    C     C_R   0.515886 0.838454 0.177020 0.721840
C3    C     C_R   0.015559 0.661205 0.177321 0.720118
C4    C     C_R   0.984442 0.338836 0.822638 0.719010
O13   O     O_R   0.680230 0.178680 0.657050 -0.538158
O14   O     O_R   0.319770 0.821320 0.342950 -0.537865
O15   O     O_R   0.819770 0.678680 0.342950 -0.542220
O16   O     O_R   0.180230 0.321320 0.657050 -0.541072
C5    C     C_R   0.516818 0.162838 0.633060 0.707742
C6    C     C_R   0.483178 0.837135 0.366960 0.709484
C7    C     C_R   0.982464 0.663048 0.367244 0.708188
C8    C     C_R   0.017569 0.336995 0.632805 0.705579
O17   O     O_3   0.504860 0.294770 0.728200 -0.376564
O18   O     O_3   0.495140 0.705230 0.271800 -0.376904
O19   O     O_3   0.995140 0.794770 0.271800 -0.371383
O20   O     O_3   0.004860 0.205230 0.728200 -0.371428
V1    V     V_3+5 0.779710 0.242290 0.728230 1.419679
V2    V     V_3+5 0.220290 0.757710 0.271770 1.420662
V3    V     V_3+5 0.720290 0.742290 0.271770 1.412551
V4    V     V_3+5 0.279710 0.257710 0.728230 1.415130
H1    H     H_    0.806538 0.452131 0.621653 0.175483
H2    H     H_    0.196653 0.549196 0.379826 0.175206
H3    H     H_    0.672480 0.958554 0.372213 0.172867
H4    H     H_    0.327613 0.041364 0.627859 0.172848
C9    C     C_1   0.030289 0.607606 0.122130 -0.182072
C10   C     C_1   0.969729 0.392559 0.877703 -0.184909
C11   C     C_1   0.468604 0.111103 0.881059 -0.180777
C12   C     C_1   0.531395 0.888890 0.118935 -0.181116
C13   C     C_2   0.066548 0.505421 0.022925 0.369573
C14   C     C_2   0.933678 0.494969 0.976677 0.371711
C15   C     C_2   0.430465 0.022285 0.992301 0.369716
C16   C     C_2   0.569529 0.977697 0.007685 0.370154
C17   C     C_1   0.956744 0.438208 0.922978 -0.038522
C18   C     C_1   0.043338 0.562072 0.076738 -0.038463
C19   C     C_1   0.545096 0.929772 0.069348 -0.037877
C20   C     C_1   0.454902 0.070216 0.930641 -0.038231
C21   C     C_R   0.028308 0.389472 0.574814 -0.173078
C22   C     C_R   0.972665 0.611265 0.425880 -0.174481
C23   C     C_R   0.475809 0.888822 0.425500 -0.173291
C24   C     C_R   0.524219 0.111115 0.574545 -0.172972
C25   C     C_R   0.819727 0.564012 0.534480 0.483779
C26   C     C_R   0.192233 0.439802 0.469793 0.509573
C27   C     C_R   0.659136 0.069346 0.461022 0.513157
C28   C     C_R   0.341032 0.930545 0.539063 0.515940
C29   C     C_R   0.835500 0.616665 0.482402 0.111278
C30   C     C_R   0.166805 0.384504 0.518740 0.126336
C31   C     C_R   0.645233 0.121270 0.513908 0.117924
C32   C     C_R   0.354868 0.878640 0.486151 0.116609
C33   C     C_R   0.092798 0.553215 0.423247 -0.235715
C34   C     C_R   0.911554 0.448514 0.578594 -0.248710
C35   C     C_R   0.419495 0.048734 0.581235 -0.222124
C36   C     C_R   0.580592 0.951184 0.418836 -0.222702
C37   C     C_R   0.074051 0.499042 0.473903 -0.058932
C38   C     C_R   0.933861 0.503680 0.529095 -0.066665
C39   C     C_R   0.439192 0.994886 0.530221 -0.057913
C40   C     C_R   0.560928 0.005019 0.469859 -0.057899
O21   O     O_3   0.776978 0.538418 0.982862 -0.570926
C41   C     C_3   0.657157 0.528263 0.928355 -0.243982
H5    H     H_    0.597303 0.474069 0.930013 0.170627
H6    H     H_    0.729412 0.539523 0.876290 0.131823
H7    H     H_    0.540118 0.565867 0.935878 0.172764
O22   O     O_3   0.223362 0.462039 0.016647 -0.571948
C42   C     C_3   0.343622 0.472349 0.070986 -0.231217
H8    H     H_    0.271844 0.461049 0.123133 0.142595
H9    H     H_    0.403126 0.526600 0.069238 0.167344
H10   H     H_    0.460851 0.434849 0.063337 0.175103
O23   O     O_3   0.733652 0.980101 0.964398 -0.570697
C43   C     C_3   0.859774 0.926346 0.979435 -0.238628
H11   H     H_    0.797302 0.873152 0.973167 0.135948
H12   H     H_    0.909633 0.933023 0.032853 0.170095
H13   H     H_    0.982450 0.930310 0.941496 0.173992
O24   O     O_3   0.266315 0.019868 0.035574 -0.570891
C44   C     C_3   0.140552 0.073811 0.020734 -0.233987
H14   H     H_    0.017949 0.069851 0.058715 0.174970
H15   H     H_    0.090522 0.067367 0.967300 0.168650
H16   H     H_    0.203412 0.126930 0.027148 0.138328
O25   O     O_3   0.681988 0.569476 0.588086 -0.549044
C45   C     C_3   0.753987 0.607147 0.643906 -0.227135
H17   H     H_    0.793163 0.662005 0.628090 0.163974
H18   H     H_    0.874966 0.579570 0.664400 0.119531
H19   H     H_    0.644805 0.610619 0.687406 0.155928
O26   O     O_3   0.329602 0.434169 0.416036 -0.545466
C46   C     C_3   0.495175 0.462741 0.439487 -0.202370
H20   H     H_    0.543245 0.432565 0.484782 0.156556
H21   H     H_    0.478853 0.519533 0.453528 0.138440
H22   H     H_    0.605217 0.459144 0.396297 0.162177
O27   O     O_3   0.779345 0.080025 0.402520 -0.542376
C47   C     C_3   0.682367 0.115255 0.351317 -0.208365
H23   H     H_    0.635720 0.168445 0.369723 0.166666
H24   H     H_    0.561753 0.083613 0.335654 0.120368
H25   H     H_    0.777451 0.122757 0.303872 0.164992
O28   O     O_3   0.220980 0.919823 0.597603 -0.541603
C48   C     C_3   0.318093 0.884516 0.648721 -0.227493
H26   H     H_    0.438744 0.916139 0.664381 0.122308
H27   H     H_    0.364721 0.831348 0.630234 0.160993
H28   H     H_    0.223118 0.876947 0.696185 0.162569
N1    N     N_3   0.281393 0.323026 0.509069 -0.631265
H29   H     H_    0.374421 0.321169 0.548540 0.230739
H30   H     H_    0.197218 0.277975 0.512120 0.227998
N2    N     N_3   0.711749 0.675772 0.489152 -0.643630
H31   H     H_    0.788762 0.722514 0.483754 0.221711
H32   H     H_    0.618268 0.673093 0.449853 0.239879
N3    N     N_3   0.246940 0.815261 0.496158 -0.637031
H33   H     H_    0.334831 0.771703 0.489296 0.220121
H34   H     H_    0.147985 0.813342 0.458794 0.243184
N4    N     N_3   0.753200 0.184639 0.503894 -0.631546
H35   H     H_    0.852140 0.186556 0.541263 0.242982
H36   H     H_    0.665341 0.228208 0.510733 0.219146

loop_
_geom_bond_atom_site_label_1
_geom_bond_atom_site_label_2
_ccdc_geom_bond_type
C12   C19   T    
O1    C5    A    
C27   C31   A    
C30   N1    S    
O13   V1    S    
C13   C14   D    
O3    C7    A    
C46   H20   S    
C15   C16   D    
O15   V3    S    
N2    H32   S    
C27   C40   A    
C46   H22   S    
C26   C37   A    
C44   H14   S    
C48   H27   S    
C36   C40   A    
O20   V1    S    
O9    C4    A    
O10   C3    A    
N1    H30   S    
C26   C30   A    
O4    C8    A    
O11   C2    A    
C29   N2    S    
N3    H33   S    
N4    H35   S    
N2    H31   S    
C10   C17   T    
C13   O22   S    
C3    C9    S    
O16   C8    A    
H1    C34   S    
N3    H34   S    
O2    C6    A    
C13   C18   S    
C41   H5    S    
O14   V2    S    
H4    C35   S    
C15   C20   S    
O5    C1    A    
O4    V1    S    
C16   C19   S    
O9    V1    S    
O17   V4    S    
O7    C3    A    
O11   V3    S    
O18   V3    S    
O8    C4    A    
O12   V4    S    
O19   V2    S    
C15   O24   S    
O26   C46   S    
C43   H13   S    
O28   C48   S    
O5    V1    S    
C44   H15   S    
C48   H28   S    
C35   C39   A    
O7    V3    S    
O22   C42   S    
C34   C38   A    
C39   C40   A    
O8    V4    S    
O24   C44   S    
C28   O28   S    
C43   H12   S    
C25   C29   A    
C7    C22   S    
C47   H25   S    
O13   C5    A    
C21   C30   A    
C28   C32   A    
O2    V3    S    
C14   C17   S    
O3    V2    S    
O15   C7    A    
C42   H8    S    
C24   C31   A    
O6    C2    A    
O10   V2    S    
C45   H18   S    
O27   C47   S    
C41   H7    S    
C47   H24   S    
C25   C38   A    
C42   H9    S    
H3    C36   S    
O6    V2    S    
C31   N4    S    
C25   O25   S    
C45   H19   S    
O16   V4    S    
C44   H16   S    
C8    C21   S    
C1    C11   S    
C21   C34   A    
O14   C6    A    
C22   C29   A    
C16   O23   S    
C23   C36   A    
C43   H11   S    
C24   C35   A    
C46   H21   S    
C28   C39   A    
C48   H26   S    
C14   O21   S    
O25   C45   S    
N1    H29   S    
C45   H17   S    
C47   H23   S    
O1    V4    S    
O21   C41   S    
C42   H10   S    
N4    H36   S    
C26   O26   S    
C2    C12   S    
O23   C43   S    
C33   C37   A    
O12   C1    A    
C37   C38   A    
H2    C33   S    
C27   O27   S    
C22   C33   A    
C6    C23   S    
C32   N3    S    
C41   H6    S    
C23   C32   A    
C9    C18   T    
C5    C24   S    
C4    C10   S    
C11   C20   T    
