data_mof_unit_43906.cif
_audit_creation_date              2012-12-11T16:19:04-0500
_audit_creation_method            fapswitch 2.2
_symmetry_space_group_name_H-M    P1
_symmetry_Int_Tables_number       1
_space_group_crystal_system       triclinic
_cell_length_a                    6.91877
_cell_length_b                    31.384388
_cell_length_c                    35.004429
_cell_angle_alpha                 90.042991
_cell_angle_beta                  89.943154
_cell_angle_gamma                 90.06197
_cell_volume                      7600.89907439

loop_
_atom_site_label
_atom_site_type_symbol
_atom_type_description
_atom_site_fract_x
_atom_site_fract_y
_atom_site_fract_z
_atom_type_partial_charge
O1    O     O_R   0.417270 0.211480 0.210950 -0.537434
O2    O     O_R   0.582730 0.788520 0.789050 -0.535410
O3    O     O_R   0.582730 0.788520 0.710950 -0.536307
O4    O     O_R   0.417270 0.211480 0.289050 -0.533260
O5    O     O_R   0.917270 0.288520 0.289050 -0.533007
O6    O     O_R   0.082730 0.711480 0.710950 -0.536755
O7    O     O_R   0.082730 0.711480 0.789050 -0.530923
O8    O     O_R   0.917270 0.288520 0.210950 -0.536137
O9    O     O_R   0.746940 0.206370 0.288750 -0.537321
O10   O     O_R   0.253060 0.793630 0.711250 -0.536948
O11   O     O_R   0.253060 0.793630 0.788750 -0.532790
O12   O     O_R   0.746940 0.206370 0.211250 -0.536681
O13   O     O_R   0.246940 0.293630 0.211250 -0.536441
O14   O     O_R   0.753060 0.706370 0.788750 -0.539866
O15   O     O_R   0.753060 0.706370 0.711250 -0.535253
O16   O     O_R   0.246940 0.293630 0.288750 -0.536832
C1    C     C_R   0.578195 0.197007 0.302794 0.712682
C2    C     C_R   0.421732 0.803213 0.697291 0.710114
C3    C     C_R   0.422037 0.803450 0.802634 0.719268
C4    C     C_R   0.578374 0.196892 0.197297 0.706474
C5    C     C_R   0.078658 0.303035 0.197290 0.701466
C6    C     C_R   0.921374 0.696641 0.802572 0.701031
C7    C     C_R   0.921777 0.696229 0.698065 0.689466
C8    C     C_R   0.078283 0.303065 0.302770 0.708880
O17   O     O_3   0.583760 0.276950 0.250000 -0.364494
O18   O     O_3   0.416240 0.723050 0.750000 -0.365923
O19   O     O_3   0.083760 0.223050 0.250000 -0.364968
O20   O     O_3   0.916240 0.776950 0.750000 -0.361830
V1    V     V_3+5 0.858600 0.245000 0.250000 1.466125
V2    V     V_3+5 0.141400 0.755000 0.750000 1.470253
V3    V     V_3+5 0.358600 0.255000 0.250000 1.466738
V4    V     V_3+5 0.641400 0.745000 0.750000 1.462487
C9    C     C_R   0.822218 0.571164 0.548977 0.591261
C10   C     C_R   0.186692 0.430671 0.450416 0.598728
C11   C     C_R   0.875574 0.424602 0.050572 0.607023
C12   C     C_R   0.133296 0.571573 0.946764 0.605390
C13   C     C_R   0.464243 0.913328 0.961527 0.584731
C14   C     C_R   0.491230 0.089123 0.037971 0.588199
C15   C     C_R   0.562655 0.087866 0.462616 0.585777
C16   C     C_R   0.470061 0.912458 0.537753 0.589588
N1    N     N_R   0.971055 0.574805 0.574796 -0.552241
N2    N     N_R   0.038924 0.427549 0.424345 -0.550524
N3    N     N_R   0.033562 0.425208 0.074342 -0.549929
N4    N     N_R   0.975568 0.570900 0.922887 -0.548094
N5    N     N_R   0.442791 0.927664 0.924726 -0.552626
N6    N     N_R   0.516147 0.074747 0.074667 -0.552839
N7    N     N_R   0.546401 0.074205 0.425467 -0.551385
N8    N     N_R   0.482026 0.926232 0.574942 -0.551839
C17   C     C_R   0.133296 0.549816 0.571318 0.605696
C18   C     C_R   0.879077 0.453315 0.427224 0.594429
C19   C     C_R   0.180500 0.454032 0.068676 0.585284
C20   C     C_R   0.830304 0.541544 0.928196 0.582665
C21   C     C_R   0.430539 0.970442 0.917017 0.583516
C22   C     C_R   0.523656 0.031935 0.082444 0.582024
C23   C     C_R   0.520954 0.031789 0.417235 0.581846
C24   C     C_R   0.509375 0.968606 0.583145 0.581392
C25   C     C_R   0.149194 0.519721 0.541513 -0.035866
C26   C     C_R   0.862798 0.483219 0.457144 -0.030805
C27   C     C_R   0.172332 0.483451 0.038300 -0.035384
C28   C     C_R   0.838695 0.512084 0.958531 -0.034371
C29   C     C_R   0.442510 0.000622 0.946795 -0.034872
C30   C     C_R   0.507049 0.001770 0.052774 -0.033676
C31   C     C_R   0.509706 0.001409 0.446829 -0.033981
C32   C     C_R   0.524940 0.998859 0.553522 -0.033840
C33   C     C_R   0.998862 0.516235 0.514614 -0.016898
C34   C     C_R   0.012838 0.486551 0.484133 -0.016617
C35   C     C_R   0.011042 0.483138 0.013802 -0.017869
C36   C     C_R   0.999671 0.512485 0.983093 -0.017738
C37   C     C_R   0.466977 0.986324 0.984622 -0.015859
C38   C     C_R   0.482383 0.016091 0.014962 -0.015735
C39   C     C_R   0.524235 0.015088 0.485052 -0.015322
C40   C     C_R   0.511065 0.985162 0.515297 -0.016003
C41   C     C_R   0.834461 0.542329 0.518145 -0.040824
C42   C     C_R   0.176548 0.460191 0.480774 -0.042260
C43   C     C_R   0.861014 0.453572 0.019954 -0.036835
C44   C     C_R   0.149113 0.542216 0.977070 -0.035628
C45   C     C_R   0.477031 0.942325 0.992162 -0.035384
C46   C     C_R   0.473870 0.060109 0.007405 -0.036914
C47   C     C_R   0.551311 0.058643 0.493106 -0.035347
C48   C     C_R   0.483530 0.941623 0.507249 -0.036894
C49   C     C_R   0.311904 0.493184 0.537896 -0.140565
C50   C     C_R   0.700218 0.509781 0.460731 -0.142346
C51   C     C_R   0.321110 0.513183 0.031913 -0.147149
C52   C     C_R   0.690028 0.482309 0.964881 -0.146750
C53   C     C_R   0.432820 0.044651 0.939639 -0.134765
C54   C     C_R   0.515547 0.957744 0.059967 -0.135446
C55   C     C_R   0.482871 0.957816 0.439147 -0.136032
C56   C     C_R   0.552775 0.042424 0.561198 -0.134834
C57   C     C_R   0.325087 0.463709 0.508000 -0.149407
C58   C     C_R   0.686162 0.538919 0.490857 -0.148114
C59   C     C_R   0.309619 0.542201 0.001703 -0.140032
C60   C     C_R   0.700866 0.453482 0.995241 -0.139887
C61   C     C_R   0.448398 0.074020 0.969559 -0.133487
C62   C     C_R   0.500780 0.928394 0.030041 -0.133703
C63   C     C_R   0.470101 0.928303 0.468967 -0.132125
C64   C     C_R   0.565943 0.071927 0.531378 -0.133549
O21   O     O_2   0.661579 0.595035 0.553253 -0.503828
O22   O     O_2   0.341909 0.404902 0.447376 -0.509260
O23   O     O_2   0.733924 0.395679 0.056148 -0.510291
O24   O     O_2   0.273242 0.601009 0.941702 -0.513521
O25   O     O_2   0.472766 0.871097 0.968507 -0.510756
O26   O     O_2   0.481937 0.131356 0.031070 -0.508138
O27   O     O_2   0.590876 0.129589 0.470085 -0.510194
O28   O     O_2   0.446734 0.870601 0.530229 -0.506881
O29   O     O_2   0.280208 0.554335 0.596312 -0.505512
O30   O     O_2   0.736525 0.450257 0.401087 -0.520208
O31   O     O_2   0.333481 0.454560 0.092547 -0.520091
O32   O     O_2   0.678505 0.540554 0.904041 -0.522303
O33   O     O_2   0.409656 0.983802 0.880638 -0.514313
O34   O     O_2   0.548953 0.018559 0.118712 -0.515881
O35   O     O_2   0.504151 0.019045 0.380574 -0.516935
O36   O     O_2   0.519289 0.981574 0.619843 -0.515927
H1    H     H_    0.429999 0.495132 0.558114 0.173797
H2    H     H_    0.582380 0.507931 0.440446 0.171111
H3    H     H_    0.447315 0.514089 0.050182 0.172447
H4    H     H_    0.564013 0.481340 0.946563 0.172730
H5    H     H_    0.413997 0.056594 0.910865 0.175574
H6    H     H_    0.534294 0.945795 0.088742 0.175260
H7    H     H_    0.471250 0.946338 0.410054 0.175250
H8    H     H_    0.564150 0.053910 0.590293 0.175717
H9    H     H_    0.452752 0.443861 0.506199 0.174181
H10   H     H_    0.558110 0.558634 0.492754 0.175768
H11   H     H_    0.427308 0.564545 0.997684 0.171526
H12   H     H_    0.582929 0.431215 0.999322 0.172174
H13   H     H_    0.440931 0.107670 0.962897 0.176498
H14   H     H_    0.508759 0.894748 0.036697 0.176220
H15   H     H_    0.449083 0.895020 0.461896 0.176940
H16   H     H_    0.587005 0.105209 0.538448 0.176398
C65   C     C_R   0.198087 0.397185 0.366905 -0.075560
C66   C     C_R   0.973254 0.592617 0.643961 -0.069181
C67   C     C_R   0.105922 0.606610 0.865028 -0.070432
C68   C     C_R   0.904619 0.392993 0.133798 -0.071831
C69   C     C_R   0.388311 0.109170 0.132888 -0.071583
C70   C     C_R   0.270977 0.890491 0.872386 -0.077474
C71   C     C_R   0.619521 0.888337 0.630629 -0.063719
C72   C     C_R   0.704757 0.104611 0.368153 -0.079903
H17   H     H_    0.305984 0.422173 0.368029 0.167421
H18   H     H_    0.994496 0.559305 0.650768 0.146913
H19   H     H_    0.230821 0.585859 0.865669 0.166613
H20   H     H_    0.785231 0.415271 0.133356 0.163722
H21   H     H_    0.261106 0.089113 0.131313 0.143104
H22   H     H_    0.142043 0.908785 0.878565 0.141369
H23   H     H_    0.753235 0.905891 0.627172 0.145749
H24   H     H_    0.817495 0.080827 0.370264 0.146178
C73   C     C_R   0.207495 0.366539 0.337833 -0.222823
C74   C     C_R   0.961569 0.622431 0.673672 -0.234967
C75   C     C_R   0.092243 0.637645 0.836459 -0.215398
C76   C     C_R   0.915763 0.362867 0.163170 -0.218957
C77   C     C_R   0.404414 0.139143 0.162296 -0.208962
C78   C     C_R   0.267301 0.859959 0.843188 -0.208164
C79   C     C_R   0.603670 0.858237 0.659951 -0.201766
C80   C     C_R   0.712164 0.134836 0.338779 -0.217936
H25   H     H_    0.322331 0.368862 0.316881 0.157738
H26   H     H_    0.975783 0.611633 0.702926 0.133618
H27   H     H_    0.207373 0.639864 0.815556 0.160745
H28   H     H_    0.804699 0.362806 0.185007 0.156830
H29   H     H_    0.289275 0.141097 0.183217 0.161029
H30   H     H_    0.134952 0.856037 0.827073 0.184008
H31   H     H_    0.725721 0.853868 0.678898 0.171049
H32   H     H_    0.829820 0.133203 0.318395 0.158890
C81   C     C_R   0.068556 0.333827 0.335246 -0.159965
C82   C     C_R   0.930866 0.665760 0.665870 -0.139932
C83   C     C_R   0.931201 0.664972 0.834328 -0.162238
C84   C     C_R   0.069635 0.333626 0.164844 -0.161857
C85   C     C_R   0.567204 0.165988 0.165021 -0.162634
C86   C     C_R   0.431562 0.835019 0.834734 -0.161326
C87   C     C_R   0.432949 0.834309 0.665023 -0.165965
C88   C     C_R   0.568614 0.166403 0.335337 -0.158435
C89   C     C_R   0.921026 0.331787 0.363636 0.328300
C90   C     C_R   0.911937 0.679159 0.627270 0.318624
C91   C     C_R   0.783180 0.660777 0.862476 0.323929
C92   C     C_R   0.211995 0.334591 0.135412 0.327738
C93   C     C_R   0.714225 0.162543 0.136631 0.328523
C94   C     C_R   0.601672 0.841581 0.857040 0.320719
C95   C     C_R   0.277439 0.840974 0.639020 0.327392
C96   C     C_R   0.417682 0.167578 0.363066 0.331034
C97   C     C_R   0.911115 0.363334 0.391999 -0.066791
C98   C     C_R   0.927848 0.648981 0.597803 -0.046605
C99   C     C_R   0.798657 0.629261 0.890696 -0.069440
C100  C     C_R   0.200404 0.365507 0.106571 -0.064694
C101  C     C_R   0.697728 0.131586 0.107856 -0.079554
C102  C     C_R   0.604351 0.873139 0.885366 -0.085764
C103  C     C_R   0.293503 0.872280 0.610588 -0.077639
C104  C     C_R   0.409612 0.136323 0.391651 -0.080120
C105  C     C_R   0.049112 0.396033 0.394107 0.276904
C106  C     C_R   0.957477 0.605575 0.605686 0.284927
C107  C     C_R   0.959583 0.602163 0.892527 0.270910
C108  C     C_R   0.046901 0.394654 0.105253 0.273815
C109  C     C_R   0.534773 0.105127 0.105499 0.291999
C110  C     C_R   0.439472 0.897240 0.893702 0.298114
C111  C     C_R   0.464487 0.895723 0.605773 0.287052
C112  C     C_R   0.553109 0.105008 0.394734 0.290431
O37   O     O_3   0.787253 0.299222 0.365519 -0.630873
H33   H     H_    0.845462 0.273130 0.354585 0.297291
O38   O     O_3   0.879176 0.720982 0.616818 -0.622013
H34   H     H_    0.859214 0.738729 0.639831 0.289386
O39   O     O_3   0.623871 0.687067 0.864337 -0.627719
H35   H     H_    0.657952 0.714986 0.853236 0.281448
O40   O     O_3   0.360775 0.305471 0.132879 -0.626566
H36   H     H_    0.320459 0.278678 0.145459 0.294501
O41   O     O_3   0.872477 0.189260 0.135054 -0.633351
H37   H     H_    0.836325 0.217158 0.146108 0.296013
O42   O     O_3   0.766929 0.817668 0.852738 -0.640266
H38   H     H_    0.727171 0.787629 0.849504 0.285292
O43   O     O_3   0.110457 0.817006 0.639464 -0.632954
H39   H     H_    0.144391 0.787678 0.647321 0.299891
O44   O     O_3   0.278775 0.199050 0.364095 -0.633954
H40   H     H_    0.335934 0.225714 0.354066 0.297979
H41   H     H_    0.797978 0.361633 0.413367 0.171870
H42   H     H_    0.916650 0.659462 0.568412 0.161886
H43   H     H_    0.686396 0.626701 0.912176 0.182484
H44   H     H_    0.308835 0.365952 0.084222 0.178659
H45   H     H_    0.810397 0.128875 0.086479 0.150726
H46   H     H_    0.734726 0.878062 0.901927 0.142645
H47   H     H_    0.173658 0.877478 0.591251 0.150610
H48   H     H_    0.293133 0.137110 0.412347 0.154329

loop_
_geom_bond_atom_site_label_1
_geom_bond_atom_site_label_2
_ccdc_geom_bond_type
O17   V3    S    
O42   H38   S    
C56   C64   A    
O18   V4    S    
C65   C105  A    
O12   V1    S    
O19   V1    S    
O41   H37   S    
C37   C45   A    
C8    C81   S    
C10   N2    A    
C91   C99   A    
C68   C108  A    
C80   H32   S    
C69   C109  A    
O15   V4    S    
O43   H39   S    
O16   V3    S    
C4    C85   S    
C74   C82   A    
C22   O34   S    
C52   H4    S    
C57   H9    S    
C20   C28   A    
C90   C98   A    
O8    V1    S    
C96   O44   S    
C93   O41   S    
C38   C46   A    
C27   C51   A    
C41   C58   A    
C26   C50   A    
C90   O38   S    
C72   H24   S    
C79   C87   A    
C66   C74   A    
C104  H48   S    
C99   C107  A    
C92   C100  A    
O39   H35   S    
C46   C61   A    
C21   O33   S    
C34   C42   A    
C99   H43   S    
C45   C62   A    
O1    V3    S    
C40   C48   A    
C97   C105  A    
C64   H16   S    
C92   O40   S    
O2    V4    S    
C97   H41   S    
N7    C112  S    
C100  H44   S    
C16   N8    A    
C94   O42   S    
N8    C111  S    
C54   C62   A    
C27   C35   A    
C101  C109  A    
C26   C34   A    
C68   H20   S    
O11   V2    S    
C76   H28   S    
C23   C31   A    
C16   C48   A    
C67   C75   A    
C3    C86   S    
C56   H8    S    
C11   N3    A    
C65   C73   A    
O37   H33   S    
O9    V1    S    
C7    C82   S    
C81   C89   A    
N4    C20   A    
O15   C7    A    
N7    C23   A    
C93   C101  A    
O40   H36   S    
O16   C8    A    
O7    V2    S    
C59   H11   S    
C12   C44   A    
C103  H47   S    
C58   H10   S    
C30   C38   A    
C94   C102  A    
O3    V4    S    
C21   C29   A    
C19   O31   S    
C11   O23   S    
N1    C17   A    
O3    C2    A    
C80   C88   A    
C98   H42   S    
C19   C27   A    
O5    V1    S    
C62   H14   S    
O17   V1    S    
C16   O28   S    
C86   C94   A    
C78   C86   A    
O12   C4    A    
O19   V3    S    
C35   C36   A    
C76   C84   A    
C51   H3    S    
O20   V4    S    
C77   C85   A    
C50   H2    S    
C54   H6    S    
C33   C41   A    
C25   C33   A    
C96   C104  A    
C17   O29   S    
C14   C46   A    
C15   N7    A    
C13   C45   A    
C39   C47   A    
O44   H40   S    
C55   C63   A    
C68   C76   A    
C44   C59   A    
C55   H7    S    
C70   H22   S    
C30   C54   A    
O10   V2    S    
C52   C60   A    
C53   C61   A    
C74   H26   S    
O11   C3    A    
N6    C22   A    
C104  C112  A    
O8    C5    A    
C18   C26   A    
C69   C77   A    
C12   O24   S    
O9    C1    A    
C48   C63   A    
C53   H5    S    
C71   C111  A    
C31   C39   A    
C100  C108  A    
C29   C53   A    
C43   C60   A    
N2    C18   A    
C88   C96   A    
O4    C1    A    
N2    C105  S    
C9    C41   A    
O6    V2    S    
C72   C112  A    
O18   V2    S    
C89   C97   A    
O14   C6    A    
C25   C49   A    
C12   N4    A    
C23   O35   S    
C35   C43   A    
C95   O43   S    
N6    C109  S    
C13   N5    A    
C66   H18   S    
C83   C91   A    
C42   C57   A    
C102  H46   S    
C29   C37   A    
N8    C24   A    
C84   C92   A    
O1    C4    A    
C78   H30   S    
C70   C78   A    
C31   C55   A    
O2    C3    A    
C95   C103  A    
O13   V3    S    
C11   C43   A    
O14   V4    S    
C1    C88   S    
C103  C111  A    
C17   C25   A    
C89   O37   S    
C2    C87   S    
C66   C106  A    
C15   O27   S    
C75   H27   S    
C36   C44   A    
O7    C6    A    
C51   C59   A    
C69   H21   S    
C50   C58   A    
C79   H31   S    
C101  H45   S    
C9    N1    A    
C39   C40   A    
C70   C110  A    
C60   H12   S    
C73   H25   S    
C82   C90   A    
C14   O26   S    
C75   C83   A    
O13   C5    A    
C13   O25   S    
C6    C83   S    
C28   C52   A    
N3    C19   A    
C24   C32   A    
O5    C8    A    
C73   C81   A    
N3    C108  S    
O10   C2    A    
C71   C79   A    
O6    C7    A    
O20   V2    S    
C71   H23   S    
C10   O22   S    
C24   O36   S    
N1    C106  S    
C87   C95   A    
C9    O21   S    
C32   C40   A    
C49   C57   A    
C37   C38   A    
C61   H13   S    
C14   N6    A    
O4    V3    S    
C67   H19   S    
N4    C107  S    
N5    C21   A    
O38   H34   S    
C98   C106  A    
C63   H15   S    
N5    C110  S    
C47   C64   A    
C65   H17   S    
C28   C36   A    
C91   O39   S    
C33   C34   A    
C49   H1    S    
C18   O30   S    
C22   C30   A    
C20   O32   S    
C10   C42   A    
C102  C110  A    
C77   H29   S    
C72   C80   A    
C85   C93   A    
C32   C56   A    
C15   C47   A    
C5    C84   S    
C67   C107  A    
