data_mof_unit_41022.cif
_audit_creation_date              2012-12-11T16:22:44-0500
_audit_creation_method            fapswitch 2.2
_symmetry_space_group_name_H-M    P1
_symmetry_Int_Tables_number       1
_space_group_crystal_system       triclinic
_cell_length_a                    16.968983
_cell_length_b                    16.805269
_cell_length_c                    19.554358
_cell_angle_alpha                 118.006562
_cell_angle_beta                  62.892276
_cell_angle_gamma                 100.431185
_cell_volume                      4378.60742822

loop_
_atom_site_label
_atom_site_type_symbol
_atom_type_description
_atom_site_fract_x
_atom_site_fract_y
_atom_site_fract_z
_atom_type_partial_charge
C1    C     C_R   0.040760 0.757713 0.009426 -0.099193
C2    C     C_R   0.237053 0.573104 0.831824 0.222548
C3    C     C_R   0.183687 0.489995 0.087349 -0.134776
C4    C     C_R   0.753718 0.446967 0.172441 -0.151078
C5    C     C_R   0.995860 0.335726 0.756900 -0.138535
C6    C     C_R   0.257290 0.539340 0.064638 0.070090
C7    C     C_R   0.953805 0.256170 0.754784 0.050890
C8    C     C_R   0.233638 0.546682 0.754359 0.085569
C9    C     C_R   0.035986 0.223573 0.996839 0.053637
C10   C     C_R   0.826011 0.921717 0.476799 -0.176568
C11   C     C_R   0.858340 0.843293 0.400577 -0.159473
C12   C     C_R   0.749358 0.489538 0.254186 0.121876
C13   C     C_R   0.933835 0.845377 0.329793 0.140597
C14   C     C_R   0.969495 0.928413 0.332869 -0.170965
C15   C     C_R   0.937176 0.006639 0.408936 -0.158821
C16   C     C_R   0.804566 0.557904 0.958668 -0.130579
C17   C     C_R   0.869497 0.002404 0.482804 0.128742
C18   C     C_R   0.871445 0.162098 0.584061 -0.175530
C19   C     C_R   0.898687 0.222559 0.646896 -0.200377
C20   C     C_R   0.921714 0.192145 0.691424 0.083206
C21   C     C_R   0.911581 0.100894 0.676377 0.181296
C22   C     C_R   0.882048 0.041513 0.614805 -0.254986
C23   C     C_R   0.723427 0.543113 0.015119 0.060817
C24   C     C_R   0.866203 0.070699 0.565611 0.099601
C25   C     C_R   0.585019 0.559189 0.482613 -0.272293
C26   C     C_R   0.662102 0.523728 0.408081 0.461351
C27   C     C_R   0.668856 0.521985 0.333017 -0.010553
C28   C     C_R   0.963986 0.675203 0.248721 -0.131455
C29   C     C_R   0.599410 0.558163 0.334358 -0.235216
C30   C     C_R   0.521835 0.591672 0.408746 -0.158972
C31   C     C_R   0.514262 0.590439 0.482200 0.124605
C32   C     C_R   0.389214 0.667160 0.625778 0.047835
C33   C     C_R   0.317995 0.655819 0.694465 0.417640
C34   C     C_R   0.976217 0.761295 0.253858 0.040933
C35   C     C_R   0.292402 0.567550 0.683782 -0.009850
C36   C     C_R   0.325215 0.494317 0.602923 -0.239788
C37   C     C_R   0.391531 0.506071 0.534631 -0.191445
C38   C     C_R   0.427374 0.590667 0.547187 0.019826
C39   C     C_R   0.637249 0.585850 0.049044 0.131872
C40   C     C_R   0.738566 0.478207 0.032856 -0.127424
C41   C     C_R   0.324485 0.566998 0.098160 0.126173
C42   C     C_R   0.405934 0.536250 0.158055 -0.221468
C43   C     C_R   0.329593 0.528582 0.146248 -0.168280
C44   C     C_R   0.390976 0.623633 0.072788 -0.275959
C45   C     C_R   0.249845 0.567417 0.011719 -0.142402
C46   C     C_R   0.469889 0.625637 0.078290 0.186233
C47   C     C_R   0.478607 0.578367 0.118113 0.187778
C48   C     C_R   0.562117 0.563377 0.107201 -0.279433
C49   C     C_R   0.627575 0.642059 0.018038 -0.167960
C50   C     C_R   0.543588 0.663649 0.034366 -0.218179
C51   C     C_R   0.847465 0.184286 0.137856 0.125244
C52   C     C_R   0.030857 0.752308 0.172176 -0.127857
C53   C     C_R   0.965061 0.861119 0.990511 0.136411
C54   C     C_R   0.885235 0.946125 0.967443 -0.214192
C55   C     C_R   0.923352 0.865159 0.944433 -0.151314
C56   C     C_R   0.928556 0.258862 0.833673 -0.101504
C57   C     C_R   0.971240 0.941137 0.058248 -0.231285
C58   C     C_R   0.932537 0.022840 0.082455 0.168928
C59   C     C_R   0.888045 0.025937 0.037310 0.082652
C60   C     C_R   0.845145 0.108164 0.065886 0.075734
C61   C     C_R   0.892070 0.180888 0.181169 -0.196592
C62   C     C_R   0.934787 0.100778 0.153566 -0.234626
C63   C     C_R   0.833146 0.516060 0.247710 -0.097740
C64   C     C_R   0.962584 0.688778 0.933627 -0.122149
C65   C     C_R   0.991203 0.772677 0.975858 0.084999
C66   C     C_3   0.382761 0.615608 0.826325 -0.899449
C67   C     C_R   0.157545 0.501020 0.757244 -0.190379
C68   C     C_3   0.029968 0.047315 0.682270 -0.910396
C69   C     C_3   0.488489 0.780028 0.670089 -0.842910
C70   C     C_3   0.705113 0.113888 0.063958 -0.908878
C71   C     C_R   0.056086 0.308517 0.047807 -0.108894
C72   C     C_R   0.978444 0.239861 0.971291 -0.110892
Cl1   Cl    Cl    0.743080 0.472783 0.409556 -0.707496
Cl2   Cl    Cl    0.260788 0.750903 0.791209 -0.701423
H1    H     H_    0.083270 0.805364 0.035415 0.098201
H2    H     H_    0.026609 0.932558 0.278935 0.109431
H3    H     H_    0.701586 0.410333 0.154799 0.100840
H4    H     H_    0.972118 0.068110 0.412183 0.119048
H5    H     H_    0.859697 0.185455 0.546302 0.128457
H6    H     H_    0.903652 0.292723 0.659174 0.128520
H7    H     H_    0.880605 0.970482 0.599426 0.129528
H8    H     H_    0.576835 0.554646 0.539001 0.169447
H9    H     H_    0.604545 0.558842 0.277322 0.140592
H10   H     H_    0.466025 0.613000 0.407663 0.131072
H11   H     H_    0.815953 0.600311 0.927988 0.089073
H12   H     H_    0.881511 0.216220 0.859411 0.103717
H13   H     H_    0.303317 0.426758 0.593724 0.151958
H14   H     H_    0.420906 0.447367 0.473592 0.151183
H15   H     H_    0.567994 0.525285 0.136531 0.113310
H16   H     H_    0.684247 0.664529 0.976676 0.117333
H17   H     H_    0.411438 0.501008 0.190127 0.128066
H18   H     H_    0.537353 0.701739 0.005020 0.130479
H19   H     H_    0.278007 0.487212 0.169398 0.118391
H20   H     H_    0.386924 0.657836 0.039489 0.120517
H21   H     H_    0.929829 0.658801 0.301799 0.096543
H22   H     H_    0.893269 0.240663 0.236429 0.168334
H23   H     H_    0.129021 0.481099 0.712326 0.120676
H24   H     H_    0.851115 0.944147 0.931642 0.129717
H25   H     H_    0.968427 0.099351 0.188649 0.139972
H26   H     H_    0.917598 0.805116 0.891731 0.115106
H27   H     H_    0.001924 0.939340 0.095465 0.111981
H28   H     H_    0.690066 0.444828 0.068243 0.089466
H29   H     H_    0.056050 0.806080 0.153861 0.085675
H30   H     H_    0.854113 0.544163 0.298505 0.142801
H31   H     H_    0.932352 0.672813 0.890983 0.084214
H32   H     H_    0.288156 0.617339 0.992324 0.100961
H33   H     H_    0.262081 0.680042 0.929331 0.168347
H34   H     H_    0.098017 0.321967 0.079911 0.102699
H35   H     H_    0.419141 0.674424 0.854037 0.250336
H36   H     H_    0.412931 0.592420 0.755986 0.258320
H37   H     H_    0.389841 0.560544 0.839666 0.238873
H38   H     H_    0.898693 0.014240 0.728444 0.162253
H39   H     H_    0.043420 0.025902 0.721854 0.250715
H40   H     H_    0.068198 0.108116 0.681172 0.261653
H41   H     H_    0.052514 0.991987 0.616002 0.253259
H42   H     H_    0.375521 0.803661 0.665920 0.219813
H43   H     H_    0.514508 0.846168 0.671763 0.240100
H44   H     H_    0.544971 0.729822 0.629503 0.245501
H45   H     H_    0.948726 0.189152 0.931541 0.103364
H46   H     H_    0.457817 0.786412 0.736321 0.273709
H47   H     H_    0.827777 0.080740 0.957743 0.155234
H48   H     H_    0.675766 0.126541 0.029320 0.243935
H49   H     H_    0.678081 0.166667 0.131447 0.261017
H50   H     H_    0.686127 0.046339 0.062248 0.251073
H51   H     H_    0.161188 0.468692 0.137309 0.090508
H52   H     H_    0.013127 0.361938 0.711036 0.095518
H53   H     H_    0.772938 0.917686 0.533167 0.122820
H54   H     H_    0.826932 0.780653 0.398634 0.120785
N1    N     N_R   0.034930 0.670790 0.995440 -0.048138
N2    N     N_R   0.867000 0.509260 0.948460 -0.040165
N3    N     N_R   0.003780 0.616410 0.165900 -0.039577
N4    N     N_R   0.825670 0.461520 0.995440 -0.040868
N5    N     N_R   0.045120 0.664150 0.118920 -0.041389
N6    N     N_R   0.884940 0.497570 0.165910 -0.049801
N7    N     N_R   0.985840 0.628110 0.948460 -0.039255
N8    N     N_R   0.174330 0.538480 0.004560 -0.045804
N9    N     N_2   0.290353 0.641914 0.863930 -0.081782
N10   N     N_2   0.935991 0.066907 0.718790 -0.127554
N11   N     N_2   0.423672 0.753624 0.635248 -0.103164
N12   N     N_R   0.954880 0.335850 0.881080 -0.045778
N13   N     N_2   0.800424 0.117224 0.023402 -0.116548
N14   N     N_R   0.115060 0.502430 0.834090 -0.052544
N15   N     N_R   0.014160 0.371890 0.051540 -0.043891
N16   N     N_R   0.965070 0.329210 0.004560 -0.042818
N17   N     N_R   0.164150 0.545120 0.881070 -0.083269
N18   N     N_R   0.133000 0.490740 0.051540 -0.039645
N19   N     N_R   0.996220 0.383590 0.834100 -0.038617
N20   N     N_R   0.835850 0.454880 0.118930 -0.040812
Ni1   Ni    Ni4+2 0.103690 0.603690 0.000000 0.212052
Ni2   Ni    Ni4+2 0.896310 0.396310 0.000000 0.220142
Ni3   Ni    Ni4+2 0.991110 0.505800 0.892250 0.214782
Ni4   Ni    Ni4+2 0.008890 0.494200 0.107750 0.222454

loop_
_geom_bond_atom_site_label_1
_geom_bond_atom_site_label_2
_ccdc_geom_bond_type
C25   C31   A    
C52   H29   S    
C58   C62   A    
C5    N19   A    
C6    C45   A    
C27   C29   A    
N4    Ni2   S    
C54   C55   A    
C37   H14   S    
C68   N10   S    
C35   C36   A    
C51   C61   A    
C9    C72   A    
C49   H16   S    
C3    C6    A    
N8    Ni1   S    
C61   H22   S    
C64   H31   S    
C2    N17   A    
C26   C27   A    
C29   C30   A    
C28   H21   S    
C18   C24   A    
C7    C56   A    
C36   C37   A    
N20   Ni2   S    
C29   H9    S    
C1    N1    A    
C30   C31   A    
C56   N12   A    
N7    Ni3   S    
C15   H4    S    
C10   C17   A    
C57   H27   S    
C23   C40   A    
C4    N20   A    
C69   H44   S    
C26   Cl1   S    
C15   C17   A    
C42   H17   S    
N16   Ni2   S    
C43   H19   S    
N1    N7    A    
C70   H49   S    
C19   C20   A    
C18   H5    S    
C70   N13   S    
C6    C41   S    
C55   H26   S    
C1    C65   A    
C71   H34   S    
C32   C38   A    
C66   H37   S    
C4    C12   A    
C53   C65   S    
C68   H39   S    
H42   N11   S    
C40   N4    A    
C64   N7    A    
C28   C34   A    
C59   C60   A    
C13   C14   A    
C52   N5    A    
C41   C43   A    
N14   N17   A    
N3    Ni4   S    
C61   C62   A    
C21   N10   S    
N12   N19   A    
C44   C46   A    
C54   C59   A    
C53   C55   A    
C36   H13   S    
C17   C24   S    
C12   C27   S    
C1    H1    S    
C22   H7    S    
H47   N13   S    
N5    Ni1   S    
C32   N11   S    
C5    C7    A    
C12   C63   A    
C53   C57   A    
C18   C19   A    
C25   C26   A    
C8    C35   S    
C14   H2    S    
N14   Ni3   S    
C5    H52   S    
N2    N4    A    
C63   N6    A    
N1    Ni1   S    
C37   C38   A    
H38   N10   S    
C60   N13   S    
C70   H48   S    
C56   H12   S    
C47   C48   A    
N6    Ni4   S    
C69   N11   S    
C66   H36   S    
C3    N18   A    
N18   Ni4   S    
C50   H18   S    
N15   Ni4   S    
C39   C49   A    
C49   C50   A    
C16   C23   A    
C48   H15   S    
C16   H11   S    
C41   C44   A    
C22   C24   A    
C42   C43   A    
C10   H53   S    
N12   Ni2   S    
C16   N2    A    
C45   H32   S    
C71   N15   A    
C72   N16   A    
C46   C47   A    
C45   N8    A    
C2    N9    S    
C2    C8    A    
C9    C71   A    
C63   H30   S    
N3    N5    A    
C3    H51   S    
N6    N20   A    
C46   C50   A    
C69   H46   S    
C34   C52   A    
C31   C38   S    
C28   N3    A    
C64   C65   A    
C11   H54   S    
C58   C59   A    
C13   C34   S    
C32   C33   A    
C11   C13   A    
C57   C58   A    
C25   H8    S    
C66   N9    S    
C23   C39   S    
N19   Ni3   S    
C72   H45   S    
C69   H43   S    
C33   C35   A    
C42   C47   A    
H33   N9    S    
C66   H35   S    
C30   H10   S    
C19   H6    S    
N8    N18   A    
C44   H20   S    
C10   C11   A    
C67   H23   S    
C68   H41   S    
C40   H28   S    
C62   H25   S    
C70   H50   S    
C33   Cl2   S    
C4    H3    S    
C20   C21   A    
C8    C67   A    
C7    C20   S    
N2    Ni3   S    
C14   C15   A    
C54   H24   S    
C51   C60   A    
C21   C22   A    
C67   N14   A    
N17   Ni1   S    
N15   N16   A    
C68   H40   S    
C39   C48   A    
