data_mof_unit_34877.cif
_audit_creation_date              2012-10-26T19:52:50-0400
_audit_creation_method            fapswitch 2.2
_symmetry_space_group_name_H-M    P1
_symmetry_Int_Tables_number       1
_space_group_crystal_system       triclinic
_cell_length_a                    15.086628
_cell_length_b                    10.821189
_cell_length_c                    9.540411
_cell_angle_alpha                 90.047616
_cell_angle_beta                  90.273817
_cell_angle_gamma                 90.160704
_cell_volume                      1557.49774335

loop_
_atom_site_label
_atom_site_type_symbol
_atom_type_description
_atom_site_fract_x
_atom_site_fract_y
_atom_site_fract_z
_atom_type_partial_charge
C1    C     C_R   0.498278 0.262318 0.499899 0.550640
C2    C     C_R   0.185547 0.469461 0.376282 -0.109813
C3    C     C_R   0.231944 0.501350 0.498536 -0.017283
C4    C     C_R   0.328683 0.500022 0.499651 0.548071
C5    C     C_R   0.186103 0.534523 0.619538 -0.124890
C6    C     C_R   0.489250 0.063737 0.625507 0.020239
C7    C     C_R   0.489424 0.129220 0.499574 0.009262
C8    C     C_R   0.477277 0.064253 0.373187 -0.155623
C9    C     C_R   0.477554 0.935408 0.373221 -0.154141
C10   C     C_R   0.489955 0.870809 0.499644 0.009537
C11   C     C_R   0.489655 0.936551 0.625525 0.029038
C12   C     C_R   0.907922 0.529721 0.625392 -0.000285
C13   C     C_3   0.552266 0.930882 0.747103 -0.269134
C14   C     C_3   0.551484 0.071164 0.747472 -0.262055
C15   C     C_R   0.541089 0.592859 0.074212 0.152573
C16   C     C_R   0.498578 0.737711 0.499954 0.549777
C17   C     C_R   0.452098 0.415610 0.074004 0.004977
C18   C     C_R   0.452096 0.415596 0.925074 0.002085
C19   C     C_R   0.541414 0.592488 0.926697 0.147899
C20   C     C_3   0.637685 0.623020 0.923005 -0.263410
C21   C     C_3   0.636898 0.625906 0.081680 -0.258310
C22   C     C_R   0.671404 0.499995 0.500181 0.545931
C23   C     C_R   0.951439 0.436322 0.255138 -0.122534
C24   C     C_R   0.815095 0.532966 0.621402 -0.113359
C25   C     C_R   0.768317 0.498973 0.500427 -0.018357
C26   C     C_R   0.814095 0.464568 0.379624 -0.129230
C27   C     C_R   0.906382 0.466021 0.378221 -0.016277
C28   C     C_R   0.953712 0.499245 0.500451 0.036367
C29   C     C_2   0.085657 0.419476 0.110252 0.566515
C30   C     C_2   0.914558 0.581444 0.887281 0.564526
C31   C     C_R   0.043968 0.441876 0.248882 0.064625
C32   C     C_R   0.092587 0.471991 0.372274 -0.001862
C33   C     C_R   0.046712 0.501904 0.497437 0.036321
C34   C     C_R   0.093926 0.534401 0.620107 -0.017626
C35   C     C_R   0.048872 0.564408 0.743048 -0.121523
C36   C     C_R   0.956419 0.559712 0.748804 0.067046
Cu1   Cu    Cu3+1 0.500000 0.499980 0.640670 0.951364
Cu2   Cu    Cu3+1 0.500000 0.500020 0.359330 0.950714
H1    H     H_    0.778385 0.565866 0.710211 0.153562
H2    H     H_    0.651220 0.714498 0.874984 0.119373
H3    H     H_    0.678341 0.552127 0.128907 0.169784
H4    H     H_    0.777906 0.437348 0.286103 0.133072
H5    H     H_    0.647710 0.719863 0.125848 0.127876
H6    H     H_    0.913857 0.412182 0.161904 0.189602
H7    H     H_    0.222983 0.439156 0.286504 0.174037
H8    H     H_    0.222235 0.559761 0.713933 0.149234
H9    H     H_    0.086336 0.588024 0.836588 0.189615
H10   H     H_    0.471876 0.112291 0.273963 0.131472
H11   H     H_    0.081338 0.326725 0.926701 0.339364
H12   H     H_    0.472310 0.887141 0.274001 0.139373
H13   H     H_    0.917238 0.675273 0.070111 0.337722
H14   H     H_    0.520982 0.889776 0.841547 0.141044
H15   H     H_    0.617671 0.891367 0.718332 0.135150
H16   H     H_    0.519352 0.111043 0.841820 0.136204
H17   H     H_    0.616487 0.113009 0.719698 0.151377
H18   H     H_    0.414679 0.345864 0.129517 0.116605
H19   H     H_    0.414683 0.345827 0.868894 0.121658
H20   H     H_    0.677256 0.545094 0.881582 0.188022
N1    N     N_R   0.500570 0.500930 0.147930 -0.232280
N2    N     N_R   0.500570 0.500890 0.852020 -0.233964
O1    O     O_R   0.500000 0.319640 0.618810 -0.504693
O2    O     O_R   0.048714 0.331810 0.019196 -0.687658
O3    O     O_2   0.852311 0.517507 0.925560 -0.566909
O4    O     O_R   0.949940 0.670865 0.977633 -0.687784
O5    O     O_R   0.500010 0.319680 0.381230 -0.514259
O6    O     O_R   0.370250 0.499950 0.618800 -0.502908
O7    O     O_R   0.370260 0.499990 0.381220 -0.499301
O8    O     O_R   0.499990 0.680320 0.618770 -0.497442
O9    O     O_R   0.500000 0.680360 0.381190 -0.504442
O10   O     O_R   0.629740 0.500010 0.618780 -0.507799
O11   O     O_R   0.629750 0.500050 0.381200 -0.509431
O12   O     O_2   0.149219 0.481149 0.072486 -0.547069

loop_
_geom_bond_atom_site_label_1
_geom_bond_atom_site_label_2
_ccdc_geom_bond_type
C30   O4    S    
C19   C20   S    
C35   H9    S    
C7    C8    A    
C15   C19   A    
C26   C27   A    
C12   C28   A    
C20   H2    S    
Cu1   O8    S    
C24   H1    S    
C2    C32   A    
C34   C35   A    
Cu2   O11   S    
C35   C36   A    
C8    C9    A    
C22   C25   S    
C1    O5    A    
C16   O8    A    
C23   C27   A    
C12   C36   A    
C9    C10   A    
C29   O12   D    
C14   H17   S    
Cu2   O9    S    
C21   H5    S    
C30   O3    D    
C5    C34   A    
C33   C34   A    
C13   H15   S    
C2    H7    S    
H13   O4    S    
C24   C25   A    
C6    C11   A    
C25   C26   A    
C23   H6    S    
C23   C31   A    
C8    H10   S    
Cu1   Cu2   S    
C6    C14   S    
C13   H14   S    
C18   H19   S    
C31   C32   A    
Cu2   O5    S    
Cu1   O6    S    
C17   C18   A    
Cu2   O7    S    
C17   H18   S    
C17   N1    A    
C21   H3    S    
C18   N2    A    
C14   H16   S    
C28   C33   A    
C20   H20   S    
C3    C4    S    
C22   O11   A    
C26   H4    S    
C16   O9    A    
C29   O2    S    
H11   O2    S    
C1    C7    S    
C15   N1    A    
C9    H12   S    
C3    C5    A    
C1    O1    A    
C4    O7    A    
Cu1   O1    S    
C6    C7    A    
C19   N2    A    
C5    H8    S    
C12   C24   A    
C30   C36   S    
Cu1   O10   S    
C32   C33   A    
C2    C3    A    
C29   C31   S    
C10   C16   S    
C4    O6    A    
C11   C13   S    
Cu1   N2    S    
C10   C11   A    
Cu2   N1    S    
C15   C21   S    
C20   C21   S    
C27   C28   A    
C13   C14   S    
C22   O10   A    
