data_mof_unit_20942.cif
_audit_creation_date              2013-03-05T15:41:02-0500
_audit_creation_method            fapswitch 2.2
_symmetry_space_group_name_H-M    P1
_symmetry_Int_Tables_number       1
_space_group_crystal_system       triclinic
_cell_length_a                    28.279566
_cell_length_b                    18.570735
_cell_length_c                    16.82564
_cell_angle_alpha                 89.584664
_cell_angle_beta                  60.977845
_cell_angle_gamma                 90.121213
_cell_volume                      7726.43463861

loop_
_atom_site_label
_atom_site_type_symbol
_atom_site_description
_atom_site_fract_x
_atom_site_fract_y
_atom_site_fract_z
_atom_type_partial_charge
O1    O     O_R   0.746490 0.236330 0.638080 -0.599137
O2    O     O_R   0.253510 0.763670 0.361920 -0.617918
O3    O     O_R   0.253510 0.236330 0.361920 -0.604243
O4    O     O_R   0.746490 0.763670 0.638080 -0.617374
O5    O     O_R   0.246490 0.736330 0.638080 -0.599140
O6    O     O_R   0.753510 0.263670 0.361920 -0.617836
O7    O     O_R   0.753510 0.736330 0.361920 -0.604252
O8    O     O_R   0.246490 0.263670 0.638080 -0.617367
O9    O     O_R   0.674170 0.186160 0.516270 -0.564184
O10   O     O_R   0.325830 0.813840 0.483730 -0.551508
O11   O     O_R   0.325830 0.186160 0.483730 -0.563598
O12   O     O_R   0.674170 0.813840 0.516270 -0.555841
O13   O     O_R   0.174170 0.686160 0.516270 -0.564190
O14   O     O_R   0.825830 0.313840 0.483730 -0.551515
O15   O     O_R   0.825830 0.686160 0.483730 -0.563607
O16   O     O_R   0.174170 0.313840 0.516270 -0.555839
O17   O     O_R   0.739960 0.127620 0.525000 -0.562466
O18   O     O_R   0.260040 0.872380 0.475000 -0.570552
O19   O     O_R   0.260040 0.127620 0.475000 -0.572237
O20   O     O_R   0.739960 0.872380 0.525000 -0.568188
O21   O     O_R   0.239960 0.627620 0.525000 -0.562467
O22   O     O_R   0.760040 0.372380 0.475000 -0.570559
O23   O     O_R   0.760040 0.627620 0.475000 -0.572244
O24   O     O_R   0.239960 0.372380 0.525000 -0.568194
O25   O     O_R   0.680700 0.294870 0.629350 -0.624025
O26   O     O_R   0.319300 0.705130 0.370650 -0.617622
O27   O     O_R   0.319300 0.294870 0.370650 -0.619910
O28   O     O_R   0.680700 0.705130 0.629350 -0.571920
O29   O     O_R   0.180700 0.794870 0.629350 -0.624019
O30   O     O_R   0.819300 0.205130 0.370650 -0.617633
O31   O     O_R   0.819300 0.794870 0.370650 -0.619890
O32   O     O_R   0.180700 0.205130 0.629350 -0.571915
C1    C     C_R   0.700117 0.264169 0.677748 0.804083
C2    C     C_R   0.298255 0.732575 0.323235 0.856228
C3    C     C_R   0.299915 0.263878 0.322423 0.810820
C4    C     C_R   0.699591 0.736623 0.677560 0.836665
C5    C     C_R   0.200117 0.764169 0.677748 0.804086
C6    C     C_R   0.798254 0.232573 0.323236 0.856211
C7    C     C_R   0.799915 0.763878 0.322423 0.810816
C8    C     C_R   0.199591 0.236623 0.677560 0.836674
C9    C     C_R   0.691201 0.129585 0.535485 0.932005
C10   C     C_R   0.305377 0.872220 0.476647 0.915249
C11   C     C_R   0.308770 0.129781 0.464784 0.902710
C12   C     C_R   0.694687 0.872179 0.523189 0.908379
C13   C     C_R   0.191201 0.629585 0.535484 0.932000
C14   C     C_R   0.805376 0.372220 0.476648 0.915235
C15   C     C_R   0.808770 0.629780 0.464786 0.902711
C16   C     C_R   0.194687 0.372179 0.523190 0.908378
Zn1   Zn    Zn3+2 0.792340 0.208750 0.507670 1.136839
Zn2   Zn    Zn3+2 0.207660 0.791250 0.492330 1.112474
Zn3   Zn    Zn3+2 0.207660 0.208750 0.492330 1.157001
Zn4   Zn    Zn3+2 0.792340 0.791250 0.507670 1.114836
Zn5   Zn    Zn3+2 0.292340 0.708750 0.507670 1.136821
Zn6   Zn    Zn3+2 0.707660 0.291250 0.492330 1.112583
Zn7   Zn    Zn3+2 0.707660 0.708750 0.492330 1.156980
Zn8   Zn    Zn3+2 0.292340 0.291250 0.507670 1.114799
C17   C     C_R   0.540475 0.134681 0.527599 -0.033664
C18   C     C_R   0.447432 0.874331 0.509760 -0.022921
C19   C     C_R   0.458804 0.135178 0.476015 -0.037012
C20   C     C_R   0.551996 0.874496 0.491453 -0.023131
C21   C     C_R   0.040481 0.634681 0.527582 -0.033668
C22   C     C_R   0.947431 0.374330 0.509762 -0.022926
C23   C     C_R   0.958808 0.635177 0.476001 -0.037005
C24   C     C_R   0.051996 0.374495 0.491455 -0.023132
C25   C     C_R   0.519665 0.201348 0.516140 -0.104041
C26   C     C_R   0.472823 0.807700 0.507112 -0.134384
C27   C     C_R   0.479314 0.201615 0.488743 -0.107063
C28   C     C_R   0.526230 0.807798 0.495008 -0.140142
C29   C     C_R   0.019675 0.701348 0.516112 -0.104047
C30   C     C_R   0.972821 0.307699 0.507117 -0.134390
C31   C     C_R   0.979323 0.701615 0.488718 -0.107150
C32   C     C_R   0.026228 0.307798 0.495012 -0.140143
C33   C     C_R   0.477839 0.070185 0.492623 -0.027325
C34   C     C_R   0.524271 0.939105 0.501331 -0.024108
C35   C     C_R   0.521628 0.070029 0.509957 -0.027319
C36   C     C_R   0.475320 0.939104 0.499879 -0.023994
C37   C     C_R   0.977842 0.570184 0.492614 -0.027319
C38   C     C_R   0.024272 0.439105 0.501330 -0.024106
C39   C     C_R   0.021631 0.570029 0.509946 -0.027347
C40   C     C_R   0.975321 0.439104 0.499878 -0.023995
C41   C     C_R   0.953537 0.504548 0.490669 -0.023176
C42   C     C_R   0.046132 0.504381 0.510814 -0.022564
C43   C     C_R   0.453536 0.004548 0.490673 -0.023175
C44   C     C_R   0.546130 0.004381 0.510819 -0.022553
C45   C     C_R   0.877695 0.439854 0.493803 -0.144353
C46   C     C_R   0.109081 0.566894 0.546215 -0.122288
C47   C     C_R   0.122217 0.439831 0.506498 -0.145377
C48   C     C_R   0.890760 0.567687 0.455170 -0.119005
C49   C     C_R   0.377695 0.939854 0.493802 -0.144354
C50   C     C_R   0.609080 0.066893 0.546220 -0.122250
C51   C     C_R   0.622217 0.939832 0.506499 -0.145377
C52   C     C_R   0.390759 0.067688 0.455172 -0.119005
C53   C     C_R   0.834796 0.438293 0.471591 -0.231087
C54   C     C_R   0.157240 0.565363 0.553395 -0.216731
C55   C     C_R   0.165291 0.438062 0.528347 -0.220322
C56   C     C_R   0.842786 0.566035 0.447208 -0.218260
C57   C     C_R   0.334797 0.938293 0.471589 -0.231102
C58   C     C_R   0.657240 0.065362 0.553397 -0.216725
C59   C     C_R   0.665291 0.938062 0.528346 -0.220321
C60   C     C_R   0.342787 0.066035 0.447206 -0.218260
C61   C     C_R   0.821404 0.500608 0.440319 0.431305
C62   C     C_R   0.178822 0.499954 0.559590 0.450859
C63   C     C_R   0.321405 0.000608 0.440316 0.431321
C64   C     C_R   0.678823 0.999954 0.559590 0.450857
C65   C     C_R   0.907543 0.503942 0.478935 -0.077492
C66   C     C_R   0.092289 0.503594 0.522048 -0.073763
C67   C     C_R   0.407543 0.003942 0.478936 -0.077487
C68   C     C_R   0.592288 0.003594 0.522052 -0.073758
C69   C     C_R   0.106258 0.380084 0.471759 0.586793
C70   C     C_R   0.922742 0.630739 0.440249 0.605288
C71   C     C_R   0.893288 0.379667 0.528921 0.593149
C72   C     C_R   0.076868 0.629477 0.562610 0.602768
C73   C     C_R   0.606259 0.880085 0.471759 0.586791
C74   C     C_R   0.422740 0.130741 0.440258 0.605287
C75   C     C_R   0.393289 0.879667 0.528919 0.593147
C76   C     C_R   0.576865 0.129475 0.562622 0.602757
C77   C     C_R   0.730866 0.280571 0.942588 -0.046327
C78   C     C_R   0.291976 0.750767 0.031740 -0.036699
C79   C     C_R   0.270256 0.277899 0.055129 -0.053279
C80   C     C_R   0.708168 0.750938 0.966441 -0.046403
C81   C     C_R   0.230847 0.780538 0.942619 -0.046023
C82   C     C_R   0.791976 0.250770 0.031736 -0.037096
C83   C     C_R   0.770255 0.777899 0.055129 -0.053279
C84   C     C_R   0.208170 0.250935 0.966440 -0.046408
C85   C     C_R   0.774395 0.231356 0.903177 0.013449
C86   C     C_R   0.253941 0.807194 0.064428 0.019612
C87   C     C_R   0.225207 0.230374 0.096114 0.016127
C88   C     C_R   0.748821 0.804972 0.931200 0.028986
C89   C     C_R   0.274391 0.731345 0.903189 0.013499
C90   C     C_R   0.753957 0.307218 0.064405 0.020166
C91   C     C_R   0.725205 0.730374 0.096114 0.016126
C92   C     C_R   0.248822 0.304972 0.931200 0.028977
C93   C     C_R   0.804105 0.214721 0.949609 -0.102162
C94   C     C_R   0.221136 0.819984 0.021660 -0.157646
C95   C     C_R   0.195096 0.214880 0.049758 -0.100851
C96   C     C_R   0.781976 0.815911 0.973511 -0.131654
C97   C     C_R   0.304106 0.714718 0.949614 -0.102222
C98   C     C_R   0.721176 0.320046 0.021599 -0.157058
C99   C     C_R   0.695094 0.714882 0.049759 -0.100901
C100  C     C_R   0.281976 0.315912 0.973512 -0.131663
C101  C     C_R   0.659665 0.348273 0.929667 -0.167794
C102  C     C_R   0.362977 0.683285 0.043104 -0.103229
C103  C     C_R   0.342086 0.345056 0.067198 -0.152932
C104  C     C_R   0.633773 0.688153 0.958872 -0.124685
C105  C     C_R   0.159646 0.848241 0.929704 -0.168034
C106  C     C_R   0.862970 0.183275 0.043108 -0.103184
C107  C     C_R   0.842086 0.845054 0.067197 -0.152905
C108  C     C_R   0.133777 0.188148 0.958869 -0.124678
C109  C     C_R   0.622673 0.353742 0.893802 -0.119584
C110  C     C_R   0.382452 0.651402 0.099540 -0.175680
C111  C     C_R   0.378048 0.351833 0.105013 -0.110999
C112  C     C_R   0.607838 0.665936 0.907741 -0.186308
C113  C     C_R   0.122666 0.853730 0.893816 -0.119582
C114  C     C_R   0.882447 0.151395 0.099543 -0.175691
C115  C     C_R   0.878048 0.851832 0.105012 -0.110987
C116  C     C_R   0.107840 0.165933 0.907739 -0.186271
C117  C     C_R   0.627926 0.307709 0.824546 -0.076185
C118  C     C_R   0.352942 0.659142 0.192736 -0.137018
C119  C     C_R   0.372413 0.305626 0.174801 -0.078650
C120  C     C_R   0.623589 0.696068 0.822425 -0.122534
C121  C     C_R   0.127925 0.807706 0.824548 -0.076159
C122  C     C_R   0.852937 0.159134 0.192738 -0.137023
C123  C     C_R   0.872412 0.805625 0.174801 -0.078752
C124  C     C_R   0.123590 0.196067 0.822425 -0.122527
C125  C     C_R   0.675854 0.270266 0.777784 -0.203384
C126  C     C_R   0.319373 0.718339 0.226570 -0.131325
C127  C     C_R   0.324005 0.268821 0.222395 -0.205038
C128  C     C_R   0.672183 0.733681 0.778292 -0.204611
C129  C     C_R   0.175854 0.770265 0.777785 -0.203375
C130  C     C_R   0.819368 0.218332 0.226572 -0.131264
C131  C     C_R   0.824005 0.768821 0.222395 -0.205035
C132  C     C_R   0.172184 0.233680 0.778291 -0.204612
C133  C     C_R   0.705808 0.252513 0.823933 0.059413
C134  C     C_R   0.302087 0.755618 0.169568 0.058895
C135  C     C_R   0.293569 0.251082 0.176737 0.057213
C136  C     C_R   0.696730 0.760062 0.829924 0.071886
C137  C     C_R   0.205806 0.752505 0.823938 0.059421
C138  C     C_R   0.802080 0.255610 0.169571 0.058842
C139  C     C_R   0.793568 0.751082 0.176737 0.057207
C140  C     C_R   0.196732 0.260060 0.829924 0.071886
C141  C     C_R   0.697788 0.292477 0.900346 -0.008953
C142  C     C_R   0.318194 0.728887 0.082220 -0.010575
C143  C     C_R   0.303041 0.289766 0.098035 -0.007644
C144  C     C_R   0.679974 0.732365 0.917863 -0.014437
C145  C     C_R   0.197773 0.792451 0.900371 -0.009050
C146  C     C_R   0.818187 0.228879 0.082222 -0.010610
C147  C     C_R   0.803041 0.789765 0.098035 -0.007653
C148  C     C_R   0.179976 0.232361 0.917861 -0.014410
C149  C     C_R   0.659445 0.394984 0.995853 0.461178
C150  C     C_R   0.382799 0.666484 0.950890 0.458237
C151  C     C_R   0.344214 0.390060 0.997474 0.424044
C152  C     C_R   0.614742 0.669002 0.051208 0.447189
C153  C     C_R   0.159406 0.894923 0.995935 0.462315
C154  C     C_R   0.882792 0.166475 0.950893 0.458238
C155  C     C_R   0.844215 0.890058 0.997472 0.424041
C156  C     C_R   0.114746 0.168997 0.051206 0.447123
C157  C     C_R   0.678408 0.370532 0.053800 0.399432
C158  C     C_R   0.345928 0.662939 0.917388 0.325634
C159  C     C_R   0.327215 0.362963 0.937983 0.405020
C160  C     C_R   0.652247 0.663901 0.083294 0.342396
C161  C     C_R   0.178329 0.870427 0.053911 0.399263
C162  C     C_R   0.845922 0.162935 0.917390 0.325699
C163  C     C_R   0.827216 0.862960 0.937982 0.405014
C164  C     C_R   0.152249 0.163899 0.083293 0.342298
C165  C     C_R   0.746574 0.200420 0.791722 -0.162520
C166  C     C_R   0.272396 0.820026 0.192547 -0.197818
C167  C     C_R   0.251223 0.200338 0.210905 -0.158065
C168  C     C_R   0.731009 0.820735 0.802994 -0.179501
C169  C     C_R   0.246578 0.700421 0.791719 -0.162552
C170  C     C_R   0.772399 0.320025 0.192542 -0.197703
C171  C     C_R   0.751221 0.700338 0.210906 -0.158017
C172  C     C_R   0.231009 0.320734 0.802995 -0.179503
C173  C     C_R   0.786283 0.201264 0.818024 0.014638
C174  C     C_R   0.253330 0.849670 0.135641 -0.011324
C175  C     C_R   0.212074 0.201257 0.183009 0.016245
C176  C     C_R   0.751564 0.848037 0.858285 0.003726
C177  C     C_R   0.286285 0.701266 0.818026 0.014582
C178  C     C_R   0.753355 0.349689 0.135614 -0.010137
C179  C     C_R   0.712073 0.701257 0.183010 0.016275
C180  C     C_R   0.251564 0.348036 0.858286 0.003729
H1    H     H_    0.751332 0.162950 0.739624 0.211307
H2    H     H_    0.269091 0.851527 0.248804 0.194355
H3    H     H_    0.245055 0.163419 0.264974 0.213402
H4    H     H_    0.735146 0.853252 0.746306 0.193060
H5    H     H_    0.251342 0.662956 0.739613 0.211329
H6    H     H_    0.769102 0.351528 0.248792 0.194266
H7    H     H_    0.745054 0.663419 0.264975 0.213397
H8    H     H_    0.235145 0.353251 0.746308 0.193059
O33   O     O_R   0.062020 0.072840 0.007170 -0.564252
O34   O     O_R   0.937980 0.927160 0.992830 -0.591146
O35   O     O_R   0.937980 0.072840 0.992830 -0.560272
O36   O     O_R   0.062020 0.927160 0.007170 -0.574691
O37   O     O_R   0.562020 0.572840 0.007170 -0.564201
O38   O     O_R   0.437980 0.427160 0.992830 -0.591124
O39   O     O_R   0.437980 0.572840 0.992830 -0.560271
O40   O     O_R   0.562020 0.427160 0.007170 -0.575039
O41   O     O_R   0.947860 0.073950 0.109290 -0.660740
O42   O     O_R   0.052140 0.926050 0.890710 -0.606788
O43   O     O_R   0.052140 0.073950 0.890710 -0.575825
O44   O     O_R   0.947860 0.926050 0.109290 -0.606718
O45   O     O_R   0.447860 0.573950 0.109290 -0.660730
O46   O     O_R   0.552140 0.426050 0.890710 -0.606747
O47   O     O_R   0.552140 0.573950 0.890710 -0.575815
O48   O     O_R   0.447860 0.426050 0.109290 -0.606807
C181  C     C_R   0.070134 0.104614 0.937683 0.944374
C182  C     C_R   0.922536 0.904046 0.069271 1.023992
C183  C     C_R   0.925842 0.099574 0.065518 0.910255
C184  C     C_R   0.077679 0.904636 0.930573 1.029701
C185  C     C_R   0.570133 0.604616 0.937684 0.944483
C186  C     C_R   0.422536 0.404047 0.069271 1.024084
C187  C     C_R   0.425844 0.599576 0.065517 0.910317
C188  C     C_R   0.577682 0.404641 0.930569 1.029859
Zn9   Zn    Zn3+2 0.505960 0.500000 0.080520 1.023757
Zn10  Zn    Zn3+2 0.494040 0.500000 0.919480 1.055665
Zn11  Zn    Zn3+2 0.005960 0.000000 0.080520 1.024345
Zn12  Zn    Zn3+2 0.994040 0.000000 0.919480 1.055667
C189  C     C_2   0.052826 0.238060 0.492400 0.469656
H9    H     H_    0.046565 0.191784 0.459578 0.062266
O49   O     O_2   0.080295 0.230863 0.529794 -0.509797
C190  C     C_2   0.957125 0.771652 0.478641 0.454815
H10   H     H_    0.983748 0.817722 0.448323 0.021063
O50   O     O_2   0.908664 0.779213 0.507292 -0.523027
C191  C     C_2   0.945791 0.237858 0.510943 0.464182
H11   H     H_    0.951859 0.191466 0.544408 0.060039
O51   O     O_2   0.918142 0.230716 0.473920 -0.523585
C192  C     C_2   0.041607 0.771206 0.527350 0.444458
H12   H     H_    0.014737 0.816234 0.559111 0.024653
O52   O     O_2   0.090094 0.779878 0.498021 -0.528722
C193  C     C_2   0.552828 0.738061 0.492395 0.469653
H13   H     H_    0.546568 0.691785 0.459571 0.062253
O53   O     O_2   0.580296 0.730863 0.529790 -0.509802
C194  C     C_2   0.457113 0.271652 0.478673 0.454769
H14   H     H_    0.483733 0.317726 0.448365 0.021017
O54   O     O_2   0.408651 0.279209 0.507320 -0.523054
C195  C     C_2   0.445794 0.737858 0.510934 0.464182
H15   H     H_    0.451862 0.691465 0.544396 0.060041
O55   O     O_2   0.418145 0.730718 0.473911 -0.523599
C196  C     C_2   0.541590 0.271206 0.527393 0.444713
H16   H     H_    0.514716 0.316228 0.559164 0.024541
O56   O     O_2   0.590076 0.279885 0.498067 -0.528576
O57   O     O_3   0.783125 0.498603 0.411439 -0.559159
C197  C     C_3   0.809946 0.506925 0.316076 -0.247371
H17   H     H_    0.832901 0.558625 0.293643 0.122093
H18   H     H_    0.779177 0.508250 0.293505 0.244073
H19   H     H_    0.837180 0.460621 0.282528 0.128230
O58   O     O_3   0.217140 0.497658 0.588379 -0.553482
C198  C     C_3   0.190153 0.502411 0.683979 -0.268481
H20   H     H_    0.220743 0.501546 0.707005 0.243057
H21   H     H_    0.162518 0.455541 0.715912 0.122969
H22   H     H_    0.167584 0.553835 0.707788 0.125951
O59   O     O_3   0.283129 0.998602 0.411429 -0.559133
C199  C     C_3   0.309956 0.006900 0.316064 -0.247461
H23   H     H_    0.332889 0.058617 0.293624 0.122164
H24   H     H_    0.279194 0.008173 0.293474 0.244007
H25   H     H_    0.337213 0.960611 0.282535 0.128194
O60   O     O_3   0.717141 0.997657 0.588378 -0.553475
C200  C     C_3   0.690155 0.002411 0.683978 -0.268472
H26   H     H_    0.720745 0.001545 0.707003 0.243059
H27   H     H_    0.662520 0.955541 0.715912 0.122967
H28   H     H_    0.667586 0.053835 0.707787 0.125948
O61   O     O_3   0.143636 0.335488 0.405077 -0.557659
C201  C     C_3   0.177047 0.376988 0.326830 -0.318347
H29   H     H_    0.206921 0.408963 0.336997 0.180415
H30   H     H_    0.153069 0.412795 0.306526 0.141745
H31   H     H_    0.200015 0.340182 0.269516 0.185900
O62   O     O_3   0.927452 0.680899 0.375553 -0.584059
C202  C     C_3   0.965765 0.655161 0.289125 -0.387074
H32   H     H_    0.946094 0.616822 0.263598 0.173251
H33   H     H_    0.001519 0.629364 0.288607 0.156655
H34   H     H_    0.982014 0.701156 0.241047 0.223994
O63   O     O_3   0.855498 0.334873 0.596364 -0.554437
C203  C     C_3   0.822838 0.376119 0.674098 -0.336448
H35   H     H_    0.792782 0.407809 0.664175 0.164325
H36   H     H_    0.847344 0.412154 0.692923 0.141273
H37   H     H_    0.800132 0.339196 0.732331 0.188765
O64   O     O_3   0.072739 0.678365 0.627339 -0.583619
C204  C     C_3   0.036013 0.649882 0.713907 -0.389843
H38   H     H_    0.056185 0.608579 0.735100 0.168588
H39   H     H_    0.998789 0.626791 0.716655 0.160219
H40   H     H_    0.022162 0.693752 0.764116 0.225161
O65   O     O_3   0.643636 0.835489 0.405075 -0.557665
C205  C     C_3   0.677048 0.876990 0.326830 -0.318333
H41   H     H_    0.706922 0.908964 0.336998 0.180421
H42   H     H_    0.653070 0.912797 0.306525 0.141759
H43   H     H_    0.700016 0.840185 0.269514 0.185893
O66   O     O_3   0.427451 0.180904 0.375564 -0.584076
C206  C     C_3   0.465764 0.155169 0.289135 -0.387032
H44   H     H_    0.446094 0.116834 0.263603 0.173252
H45   H     H_    0.501517 0.129368 0.288617 0.156685
H46   H     H_    0.482016 0.201167 0.241061 0.223981
O67   O     O_3   0.355499 0.834872 0.596363 -0.554435
C207  C     C_3   0.322837 0.876117 0.674096 -0.336421
H47   H     H_    0.292782 0.907809 0.664170 0.164323
H48   H     H_    0.347342 0.912151 0.692924 0.141281
H49   H     H_    0.300129 0.839195 0.732328 0.188764
O68   O     O_3   0.572737 0.178360 0.627355 -0.583649
C208  C     C_3   0.536012 0.149872 0.713921 -0.389881
H50   H     H_    0.556184 0.108564 0.735106 0.168596
H51   H     H_    0.498787 0.126787 0.716670 0.160225
H52   H     H_    0.522164 0.193739 0.764135 0.225168
C209  C     C_2   0.582309 0.292129 0.806368 0.379667
H53   H     H_    0.589360 0.279774 0.738894 0.135078
O69   O     O_2   0.535874 0.288406 0.868778 -0.573173
C210  C     C_2   0.349981 0.598891 0.254328 0.470623
H54   H     H_    0.382896 0.589462 0.268812 0.100622
O70   O     O_2   0.309591 0.560860 0.290934 -0.592743
C211  C     C_2   0.417732 0.289870 0.193644 0.380071
H55   H     H_    0.410154 0.275121 0.260998 0.134390
O71   O     O_2   0.464413 0.288431 0.131914 -0.569968
C212  C     C_2   0.585809 0.699535 0.784833 0.510883
H56   H     H_    0.566983 0.750594 0.786279 -0.005448
O72   O     O_2   0.579294 0.648441 0.745805 -0.504438
C213  C     C_2   0.082310 0.792130 0.806363 0.379671
H57   H     H_    0.089362 0.779778 0.738888 0.135076
O73   O     O_2   0.035874 0.788407 0.868770 -0.573178
C214  C     C_2   0.849978 0.098886 0.254331 0.470617
H58   H     H_    0.882895 0.089456 0.268810 0.100629
O74   O     O_2   0.809586 0.060858 0.290946 -0.592711
C215  C     C_2   0.917732 0.789869 0.193643 0.380236
H59   H     H_    0.910154 0.775120 0.260997 0.134400
O75   O     O_2   0.964412 0.788429 0.131912 -0.569837
C216  C     C_2   0.085809 0.199535 0.784835 0.510878
H60   H     H_    0.066980 0.250593 0.786288 -0.005457
O76   O     O_2   0.079294 0.148443 0.745804 -0.504430
O77   O     O_3   0.647438 0.467303 0.998666 -0.574003
C217  C     C_3   0.689504 0.501378 0.921184 -0.282167
H61   H     H_    0.687502 0.487150 0.858798 0.140897
H62   H     H_    0.730142 0.488440 0.912832 0.138592
H63   H     H_    0.684752 0.560282 0.929399 0.198605
O78   O     O_3   0.437688 0.668268 0.890180 -0.596319
C218  C     C_3   0.452078 0.737910 0.850895 -0.364054
H64   H     H_    0.420105 0.765343 0.841399 0.126172
H65   H     H_    0.487313 0.733181 0.781973 0.219857
H66   H     H_    0.463449 0.772248 0.892828 0.166313
O79   O     O_3   0.353722 0.463337 0.994419 -0.593780
C219  C     C_3   0.310456 0.494993 0.071426 -0.262567
H67   H     H_    0.313969 0.484223 0.133422 0.171308
H68   H     H_    0.270250 0.476630 0.081864 0.133076
H69   H     H_    0.312072 0.553906 0.061081 0.199872
O80   O     O_3   0.560024 0.663065 0.113369 -0.615140
C220  C     C_3   0.534875 0.730247 0.121972 -0.344680
H70   H     H_    0.532179 0.743972 0.059890 0.159580
H71   H     H_    0.556063 0.773921 0.137673 0.149010
H72   H     H_    0.492945 0.726670 0.179376 0.202291
O81   O     O_3   0.147414 0.967249 0.998770 -0.573997
C221  C     C_3   0.189481 0.001328 0.921292 -0.282532
H73   H     H_    0.187466 0.987129 0.858908 0.140931
H74   H     H_    0.230120 0.988364 0.912919 0.138594
H75   H     H_    0.184740 0.060232 0.929528 0.198689
O82   O     O_3   0.937682 0.168261 0.890182 -0.596313
C222  C     C_3   0.952070 0.237906 0.850906 -0.364087
H76   H     H_    0.920100 0.265337 0.841403 0.126163
H77   H     H_    0.987310 0.233182 0.781988 0.219866
H78   H     H_    0.963435 0.272242 0.892849 0.166304
O83   O     O_3   0.853720 0.963335 0.994420 -0.593798
C223  C     C_3   0.810453 0.994988 0.071429 -0.262543
H79   H     H_    0.813968 0.984222 0.133423 0.171303
H80   H     H_    0.770247 0.976619 0.081869 0.133084
H81   H     H_    0.812065 0.053901 0.061083 0.199889
O84   O     O_3   0.060027 0.163064 0.113368 -0.615136
C224  C     C_3   0.034881 0.230248 0.121969 -0.344661
H82   H     H_    0.032185 0.243972 0.059888 0.159571
H83   H     H_    0.056070 0.273920 0.137669 0.149008
H84   H     H_    0.992951 0.226673 0.179374 0.202283
O85   O     O_3   0.654284 0.397578 0.140769 -0.599872
C225  C     C_3   0.614881 0.347637 0.199269 -0.287707
H85   H     H_    0.633396 0.295139 0.200899 0.175756
H86   H     H_    0.582826 0.339581 0.179707 0.165540
H87   H     H_    0.595191 0.369404 0.269224 0.194737
O86   O     O_3   0.342292 0.602520 0.871532 -0.615947
C226  C     C_3   0.392577 0.568978 0.817080 -0.085281
H88   H     H_    0.408397 0.543175 0.858981 0.212450
H89   H     H_    0.422721 0.607521 0.767353 0.144649
H90   H     H_    0.386567 0.525968 0.777428 0.213396
O87   O     O_3   0.352639 0.385543 0.847985 -0.604434
C227  C     C_3   0.407934 0.367235 0.805572 -0.257968
H91   H     H_    0.413735 0.309361 0.816349 0.159862
H92   H     H_    0.430403 0.402173 0.829441 0.176885
H93   H     H_    0.425602 0.376328 0.731300 0.182599
O88   O     O_3   0.655939 0.602776 0.129067 -0.611982
C228  C     C_3   0.606063 0.567325 0.183298 -0.057396
H94   H     H_    0.590958 0.540776 0.141041 0.219588
H95   H     H_    0.575452 0.604569 0.233013 0.136038
H96   H     H_    0.612449 0.524548 0.223355 0.211335
O89   O     O_3   0.154131 0.897439 0.140909 -0.600152
C229  C     C_3   0.115441 0.846881 0.199633 -0.287084
H97   H     H_    0.134693 0.795090 0.201431 0.176379
H98   H     H_    0.083487 0.837442 0.180184 0.164934
H99   H     H_    0.095469 0.868825 0.269502 0.194847
O90   O     O_3   0.842283 0.102515 0.871537 -0.615958
C230  C     C_3   0.892567 0.068971 0.817084 -0.085309
H100  H     H_    0.908388 0.043168 0.858984 0.212452
H101  H     H_    0.922712 0.107513 0.767356 0.144648
H102  H     H_    0.886556 0.025962 0.777433 0.213418
O91   O     O_3   0.852640 0.885538 0.847983 -0.604445
C231  C     C_3   0.907936 0.867233 0.805572 -0.257963
H103  H     H_    0.913738 0.809361 0.816352 0.159865
H104  H     H_    0.930403 0.902175 0.829440 0.176884
H105  H     H_    0.925605 0.876323 0.731300 0.182608
O92   O     O_3   0.155943 0.102774 0.129065 -0.612187
C232  C     C_3   0.106067 0.067323 0.183298 -0.057091
H106  H     H_    0.090953 0.040788 0.141046 0.219690
H107  H     H_    0.075460 0.104565 0.233026 0.136000
H108  H     H_    0.112456 0.024532 0.223338 0.211450
C233  C     C_2   0.842455 0.188489 0.744894 0.541180
H109  H     H_    0.876175 0.213572 0.748054 0.005379
O93   O     O_2   0.851618 0.150793 0.679831 -0.556320
C234  C     C_2   0.244603 0.928595 0.139574 0.506538
H110  H     H_    0.249349 0.957607 0.079859 0.081322
O94   O     O_2   0.231526 0.961929 0.209366 -0.572975
C235  C     C_2   0.155436 0.188567 0.255307 0.524155
H111  H     H_    0.122305 0.213451 0.250239 0.016460
O95   O     O_2   0.145208 0.151205 0.321846 -0.560365
C236  C     C_2   0.763382 0.926520 0.851754 0.496491
H112  H     H_    0.760306 0.954942 0.910230 0.083695
O96   O     O_2   0.777065 0.960122 0.781224 -0.565096
C237  C     C_2   0.342459 0.688499 0.744898 0.541196
H113  H     H_    0.376177 0.713585 0.748063 0.005388
O97   O     O_2   0.351626 0.650807 0.679830 -0.556338
C238  C     C_2   0.744728 0.428633 0.139455 0.506515
H114  H     H_    0.749534 0.457633 0.079694 0.081054
O98   O     O_2   0.731660 0.461996 0.209224 -0.572978
C239  C     C_2   0.655435 0.688566 0.255308 0.524161
H115  H     H_    0.622303 0.713450 0.250241 0.016446
O99   O     O_2   0.645207 0.651203 0.321845 -0.560381
C240  C     C_2   0.263380 0.426521 0.851757 0.496493
H116  H     H_    0.260302 0.454942 0.910234 0.083681
O100  O     O_2   0.277062 0.460123 0.781227 -0.565103

loop_
_geom_bond_atom_site_label_1
_geom_bond_atom_site_label_2
_geom_bond_distance
_ccdc_geom_bond_type
C222  H78   1.110695 S    
C205  H42   1.114505 S    
C104  C144  1.403486 A    
O5    C5    1.261397 A    
C226  H89   1.111650 S    
C170  H6    1.081374 S    
C237  H113  1.084816 S    
O59   C199  1.410230 S    
O7    Zn7   1.994625 S    
O31   Zn4   2.047664 S    
O8    Zn8   1.994625 S    
O4    C4    1.260977 A    
C208  H50   1.111832 S    
O61   C201  1.412521 S    
C20   C34   1.400869 A    
C118  C126  1.386715 A    
C197  H17   1.113577 S    
C130  C138  1.443885 A    
O88   C228  1.412112 S    
C223  H80   1.115216 S    
C116  C181  1.467254 S    
C12   C59   1.459941 S    
C205  H43   1.105765 S    
C155  C163  1.399799 A    
C4    C128  1.483302 S    
C153  C161  1.394991 A    
O30   C6    1.306336 A    
C136  C144  1.409265 A    
O89   C229  1.410030 S    
C7    C131  1.479906 S    
C85   C173  1.422370 A    
C195  H15   1.084473 S    
C194  H14   1.085041 S    
C198  H21   1.113534 S    
O66   C206  1.414407 S    
C50   C76   1.421965 A    
O40   Zn9   2.000273 S    
C156  C164  1.407320 A    
C107  C115  1.443411 A    
C19   C33   1.403015 A    
O21   C13   1.303092 A    
O34   C182  1.214651 A    
C55   C62   1.394967 A    
O2    C2    1.252062 A    
C103  C111  1.443411 A    
C33   C35   1.403187 A    
O38   C186  1.214651 A    
C26   C195  1.489128 S    
O6    Zn6   2.004179 S    
C36   C43   1.404841 A    
C213  O73   1.221664 D    
O41   Zn11  2.016766 S    
C17   C76   1.415486 A    
C41   C65   1.407140 A    
C37   C39   1.403184 A    
C126  C134  1.443881 A    
C239  H115  1.085118 S    
C10   C57   1.459617 S    
C53   C61   1.394946 A    
C232  H108  1.108569 S    
C172  C180  1.410943 A    
O27   C3    1.314269 A    
C113  C121  1.399198 A    
O64   C204  1.413760 S    
C204  H40   1.105039 S    
C179  C239  1.484746 S    
C233  H109  1.084817 S    
C159  O87   1.385254 S    
C38   C42   1.404439 A    
C63   O59   1.385577 S    
C106  C114  1.433965 A    
C157  O85   1.379286 S    
O62   C202  1.414407 S    
O35   Zn12  2.000271 S    
C57   C63   1.394950 A    
C27   C194  1.489290 S    
O60   C200  1.410252 S    
C102  C142  1.399319 A    
O30   Zn1   2.048867 S    
C23   C31   1.423331 A    
O32   C8    1.308232 A    
C193  O53   1.220889 D    
C220  H70   1.111475 S    
C225  H86   1.114516 S    
C221  H75   1.103888 S    
C92   C100  1.440887 A    
C117  C125  1.384487 A    
C90   C98   1.442623 A    
C208  H52   1.105038 S    
C231  H103  1.114306 S    
C135  C143  1.408045 A    
O82   C222  1.414039 S    
C149  C157  1.395111 A    
C191  O51   1.220811 D    
C84   C95   1.425734 A    
C152  O80   1.388448 S    
O35   C183  1.209251 A    
O39   Zn10  2.000271 S    
C50   C58   1.424769 A    
O68   C208  1.413760 S    
O79   C219  1.413268 S    
O23   Zn7   2.036152 S    
C108  C148  1.403486 A    
C151  O79   1.382295 S    
O9    C9    1.260410 A    
C20   C28   1.421809 A    
C169  C177  1.392617 A    
C234  H110  1.085729 S    
C136  C168  1.405826 A    
C199  H24   1.105715 S    
O57   C197  1.410230 S    
O12   C12   1.260434 A    
O77   C217  1.412537 S    
C227  H91   1.114304 S    
O13   C13   1.260408 A    
C87   C175  1.424355 A    
C119  C127  1.380895 A    
C101  C141  1.405485 A    
C120  C128  1.387821 A    
C212  H56   1.083052 S    
C138  C146  1.405662 A    
C51   C73   1.428163 A    
C89   C97   1.430448 A    
C54   C62   1.386315 A    
C240  H116  1.085755 S    
C49   C57   1.432566 A    
C25   C196  1.489094 S    
C134  C166  1.407517 A    
C103  C151  1.412604 A    
O9    Zn6   2.116266 S    
O8    C8    1.260975 A    
C92   C180  1.429652 A    
O85   C225  1.410248 S    
C33   C43   1.406456 A    
O11   Zn8   2.125328 S    
O80   C220  1.410603 S    
O41   C183  1.263994 A    
C102  C150  1.408113 A    
C49   C75   1.427663 A    
C167  H3    1.079173 S    
C228  H94   1.109042 S    
O45   C187  1.263988 A    
O16   Zn3   2.125328 S    
C134  C142  1.405663 A    
C73   O65   1.388697 S    
C224  H82   1.111474 S    
C18   C36   1.400887 A    
C230  H101  1.111650 S    
C22   C30   1.422047 A    
C34   C36   1.396331 A    
C11   C60   1.465634 S    
C79   C100  1.427360 A    
C22   C40   1.400887 A    
C121  C213  1.491285 S    
O18   C10   1.295787 A    
C5    C129  1.482971 S    
C38   C40   1.396332 A    
C35   C44   1.407015 A    
C82   C146  1.429522 A    
C216  H60   1.083054 S    
C113  C184  1.464520 S    
C203  H35   1.111346 S    
C138  C170  1.407514 A    
C189  H9    1.084423 S    
C74   O66   1.383652 S    
C90   C178  1.432442 A    
O2    Zn2   2.004179 S    
C19   C27   1.423329 A    
C45   C53   1.432563 A    
C22   C71   1.407232 A    
C47   C55   1.433343 A    
C220  H72   1.109418 S    
O6    C6    1.252058 A    
C236  H112  1.085756 S    
C140  C148  1.409265 A    
O38   Zn10  1.983566 S    
C231  H105  1.109310 S    
C121  C129  1.384497 A    
C109  C188  1.464510 S    
C152  C160  1.407324 A    
C32   C189  1.489230 S    
C200  H27   1.113534 S    
C131  C139  1.443467 A    
C46   C66   1.401662 A    
O36   Zn11  2.000273 S    
O40   C188  1.219401 A    
C129  C137  1.436987 A    
O20   C12   1.295339 A    
C219  H68   1.115215 S    
C111  C186  1.461831 S    
C123  C215  1.491027 S    
C209  O69   1.221663 D    
C201  H30   1.114504 S    
O23   C15   1.303864 A    
C161  O89   1.379418 S    
O24   C16   1.295340 A    
C227  H93   1.109309 S    
C207  H47   1.111345 S    
O17   Zn1   2.028372 S    
C84   C148  1.434586 A    
C99   C160  1.416665 A    
C115  C123  1.394205 A    
C158  O86   1.397803 S    
C105  C145  1.405487 A    
O36   C184  1.219384 A    
C111  C119  1.394205 A    
C153  O81   1.381485 S    
C230  H100  1.108551 S    
O3    C3    1.253610 A    
C218  H66   1.110701 S    
C17   C25   1.423390 A    
C8    C132  1.483297 S    
C214  O74   1.220865 D    
C175  C235  1.484747 S    
C79   C143  1.442294 A    
C238  H114  1.085733 S    
C80   C144  1.434585 A    
C217  H63   1.103876 S    
C86   C94   1.442601 A    
O86   C226  1.413318 S    
C192  O52   1.221072 D    
C88   C176  1.429651 A    
O65   C205  1.412522 S    
C228  H96   1.108560 S    
C115  C182  1.461838 S    
C124  C132  1.387816 A    
C106  C154  1.408116 A    
C176  C236  1.485948 S    
O78   C218  1.414043 S    
C226  H88   1.108550 S    
C224  H84   1.109417 S    
C94   C161  1.418514 A    
C127  C135  1.443462 A    
C222  H77   1.107271 S    
O7    C7    1.253607 A    
C164  O92   1.399449 S    
C24   C38   1.400867 A    
C114  C122  1.382028 A    
C1    C125  1.482959 S    
C34   C44   1.404443 A    
C190  H10   1.085040 S    
C39   C42   1.407016 A    
C236  O96   1.220691 D    
C219  H69   1.103940 S    
C168  H4    1.082196 S    
C171  C179  1.396578 A    
C197  H18   1.105695 S    
C203  H37   1.104730 S    
C61   O57   1.385573 S    
C202  H34   1.105804 S    
O46   C188  1.263707 A    
C17   C35   1.403464 A    
C50   C68   1.401664 A    
C28   C193  1.489230 S    
C104  C112  1.436802 A    
C48   C65   1.402218 A    
C166  C174  1.416001 A    
C24   C69   1.407392 A    
C21   C39   1.403461 A    
C59   C64   1.394967 A    
C119  C211  1.491031 S    
C42   C66   1.406849 A    
O12   Zn7   2.125328 S    
C91   C99   1.436274 A    
C118  C210  1.493827 S    
C235  H111  1.085117 S    
C98   C157  1.418354 A    
O45   Zn9   2.016766 S    
C114  C183  1.446095 S    
C197  H19   1.113206 S    
C194  O54   1.221086 D    
O42   C184  1.263728 A    
C196  H16   1.085066 S    
C51   C59   1.433342 A    
C56   C61   1.386477 A    
C21   C72   1.415477 A    
C77   C85   1.418418 A    
C96   C163  1.415329 A    
O25   C1    1.310789 A    
C75   O67   1.388402 S    
C48   C56   1.426766 A    
O47   C185  1.266263 A    
O10   C10   1.261680 A    
C163  O91   1.385254 S    
C77   C98   1.428756 A    
C207  H49   1.104733 S    
C213  H57   1.079638 S    
O37   C185  1.223484 A    
C191  H11   1.084473 S    
O14   C14   1.261679 A    
C87   C95   1.436269 A    
O34   Zn12  1.983566 S    
C88   C96   1.440889 A    
C232  H107  1.111666 S    
C139  C147  1.408043 A    
C229  H97   1.113624 S    
C85   C93   1.430440 A    
C218  H64   1.115142 S    
C154  C162  1.407067 A    
C137  C145  1.409573 A    
O92   C232  1.412117 S    
C128  C136  1.437551 A    
C204  H39   1.115657 S    
O10   Zn5   2.116266 S    
C217  H61   1.111975 S    
C89   C177  1.422377 A    
C86   C174  1.432439 A    
O33   Zn11  1.983566 S    
C135  C167  1.404276 A    
O19   C11   1.303864 A    
C25   C27   1.423039 A    
C15   C56   1.465631 S    
O39   C187  1.209257 A    
C81   C94   1.428752 A    
C123  C131  1.380896 A    
C105  C153  1.414254 A    
C149  O77   1.381473 S    
C132  C140  1.437551 A    
C71   O63   1.388399 S    
C205  H41   1.111381 S    
C165  C173  1.392611 A    
C193  H13   1.084423 S    
C226  H90   1.108652 S    
O44   C182  1.266445 A    
C237  O97   1.221579 D    
C169  H5    1.079576 S    
C208  H51   1.115657 S    
C231  H104  1.111597 S    
C6    C130  1.461627 S    
C69   O61   1.388696 S    
C70   O62   1.383651 S    
C101  C109  1.442546 A    
C202  H32   1.111492 S    
C222  H76   1.115136 S    
C101  C149  1.414219 A    
C223  H79   1.111546 S    
O22   Zn6   2.028372 S    
C211  H55   1.079291 S    
O3    Zn3   1.994625 S    
O27   Zn8   2.047664 S    
O84   C224  1.410605 S    
C104  C152  1.417659 A    
C107  C147  1.405079 A    
C60   C63   1.386479 A    
C227  H92   1.111599 S    
C122  C214  1.493825 S    
O67   C207  1.412720 S    
O32   Zn3   2.047664 S    
C174  C234  1.483445 S    
C198  H20   1.106288 S    
C122  C130  1.386711 A    
C37   C41   1.406458 A    
C151  C159  1.399796 A    
C49   C67   1.406444 A    
C167  C175  1.396574 A    
C198  H22   1.113491 S    
O15   Zn4   2.125328 S    
O25   Zn6   2.048867 S    
C212  O72   1.221130 D    
O48   C186  1.266442 A    
O22   C14   1.295787 A    
C240  O100  1.220690 D    
O48   Zn9   2.007232 S    
C29   C192  1.489093 S    
C150  C158  1.407071 A    
O81   C221  1.412538 S    
O5    Zn5   2.004179 S    
C93   C162  1.416883 A    
C110  C118  1.382030 A    
C83   C91   1.418273 A    
C51   C68   1.407394 A    
C106  C146  1.399325 A    
C81   C89   1.418418 A    
C45   C71   1.427663 A    
O83   C223  1.413270 S    
C80   C88   1.416076 A    
C95   C164  1.416661 A    
C47   C69   1.428164 A    
C64   O60   1.385591 S    
C180  C240  1.485949 S    
O43   C181  1.266262 A    
C102  C110  1.433958 A    
C221  H73   1.111971 S    
C206  H44   1.111492 S    
C62   O58   1.385592 S    
C216  O76   1.221130 D    
C19   C74   1.415848 A    
C44   C68   1.406850 A    
C203  H36   1.114692 S    
C172  H8    1.082199 S    
C97   C158  1.416882 A    
O28   C4    1.308231 A    
O29   C5    1.310797 A    
O43   Zn12  2.007231 S    
C220  H71   1.114117 S    
C225  H85   1.114057 S    
C133  C165  1.401676 A    
C108  C116  1.436802 A    
C2    C126  1.461624 S    
C109  C117  1.399200 A    
C103  C143  1.405076 A    
C235  O95   1.221539 D    
C72   O64   1.384007 S    
C26   C28   1.422703 A    
O63   C203  1.412718 S    
C112  C120  1.392492 A    
C16   C55   1.459940 S    
C155  O83   1.382293 S    
C200  H26   1.106289 S    
C221  H74   1.114969 S    
C223  H81   1.103940 S    
O15   C15   1.257978 A    
O24   Zn8   2.036152 S    
O16   C16   1.260434 A    
O1    C1    1.261402 A    
C110  C187  1.446092 S    
C209  H53   1.079640 S    
C47   C66   1.407394 A    
C201  H31   1.105763 S    
C84   C92   1.416076 A    
O47   Zn10  2.007231 S    
C229  H98   1.114231 S    
O4    Zn4   1.994625 S    
O18   Zn2   2.028372 S    
C91   C179  1.424357 A    
C199  H23   1.113574 S    
C195  O55   1.220809 D    
C100  C159  1.415329 A    
C166  H2    1.081372 S    
C178  C238  1.483448 S    
O58   C198  1.410251 S    
C77   C141  1.439714 A    
O14   Zn1   2.116266 S    
C125  C133  1.436971 A    
C139  C171  1.404278 A    
C140  C172  1.405827 A    
C137  C169  1.401684 A    
C29   C31   1.423034 A    
O90   C230  1.413319 S    
C46   C54   1.424771 A    
C117  C209  1.491282 S    
C18   C26   1.422048 A    
O31   C7    1.314271 A    
C218  H65   1.107276 S    
C225  H87   1.109399 S    
O1    Zn1   2.004179 S    
C120  C212  1.483621 S    
O11   C11   1.257981 A    
C78   C97   1.424695 A    
C48   C70   1.422335 A    
O37   Zn9   1.983566 S    
C105  C113  1.442563 A    
C24   C32   1.421808 A    
C160  O88   1.399447 S    
C168  C176  1.410945 A    
C171  H7    1.079172 S    
C20   C73   1.407394 A    
C76   O68   1.384006 S    
C45   C65   1.406447 A    
C13   C54   1.464490 S    
C112  C185  1.467264 S    
C224  H83   1.114117 S    
O28   Zn7   2.047664 S    
O26   C2    1.306333 A    
C150  O78   1.383766 S    
C230  H102  1.108652 S    
O17   C9    1.303090 A    
O29   Zn2   2.048867 S    
C30   C191  1.489128 S    
C190  O50   1.221084 D    
C31   C190  1.489287 S    
C173  C233  1.484242 S    
O13   Zn2   2.116266 S    
O42   Zn12  2.016768 S    
C189  O49   1.220891 D    
C46   C72   1.421970 A    
C82   C93   1.424698 A    
C211  O71   1.221610 D    
C52   C67   1.402217 A    
C3    C127  1.479906 S    
O87   C227  1.411769 S    
C215  O75   1.221610 D    
C80   C99   1.425735 A    
C210  H54   1.084733 S    
C107  C155  1.412599 A    
C210  O70   1.220866 D    
C156  O84   1.388447 S    
C18   C75   1.407229 A    
O46   Zn10  2.016768 S    
C200  H28   1.113490 S    
C196  O56   1.221069 D    
C124  C216  1.483623 S    
O26   Zn5   2.048867 S    
C219  H67   1.111547 S    
C52   C60   1.426778 A    
C23   C37   1.403017 A    
C78   C142  1.429505 A    
C21   C29   1.423387 A    
C201  H29   1.111381 S    
O44   Zn11  2.007232 S    
C199  H25   1.113213 S    
C238  O98   1.220272 D    
C40   C41   1.404843 A    
C206  H46   1.105804 S    
C177  C237  1.484243 S    
C108  C156  1.417664 A    
C233  O93   1.221581 D    
C170  C178  1.416008 A    
C83   C96   1.427359 A    
C215  H59   1.079291 S    
C23   C70   1.415847 A    
C202  H33   1.116016 S    
O33   C181  1.223477 A    
O20   Zn4   2.036152 S    
O21   Zn5   2.028372 S    
C232  H106  1.109031 S    
C14   C53   1.459613 S    
C206  H45   1.116016 S    
C58   C64   1.386313 A    
C165  H1    1.079580 S    
C214  H58   1.084733 S    
C43   C67   1.407147 A    
C162  O90   1.397802 S    
C133  C141  1.409573 A    
C83   C147  1.442296 A    
C204  H38   1.111832 S    
C217  H62   1.114973 S    
C234  O94   1.220281 D    
C192  H12   1.085066 S    
C81   C145  1.439710 A    
O91   C231  1.411770 S    
O19   Zn3   2.036152 S    
C207  H48   1.114691 S    
C116  C124  1.392489 A    
C228  H95   1.111667 S    
C239  O99   1.221539 D    
C9    C58   1.464494 S    
C30   C32   1.422704 A    
C78   C86   1.413023 A    
C154  O82   1.383767 S    
C52   C74   1.422338 A    
C82   C90   1.413043 A    
C79   C87   1.418269 A    
C229  H99   1.109388 S    
