data_mof_unit_28583.cif
_audit_creation_date              2012-10-26T20:13:55-0400
_audit_creation_method            fapswitch 2.2
_symmetry_space_group_name_H-M    P1
_symmetry_Int_Tables_number       1
_space_group_crystal_system       triclinic
_cell_length_a                    8.716362
_cell_length_b                    10.820738
_cell_length_c                    9.603261
_cell_angle_alpha                 89.833428
_cell_angle_beta                  96.943373
_cell_angle_gamma                 90.200355
_cell_volume                      899.10425707

loop_
_atom_site_label
_atom_site_type_symbol
_atom_type_description
_atom_site_fract_x
_atom_site_fract_y
_atom_site_fract_z
_atom_type_partial_charge
C1    C     C_R   0.501830 0.262827 0.500276 0.548153
C2    C     C_R   0.633026 0.480776 0.940652 0.141179
C3    C     C_3   0.781393 0.549688 0.943561 -0.244108
C4    C     C_R   0.204499 0.497322 0.465526 0.539600
C5    C     C_3   0.777380 0.564722 0.100566 -0.125276
C6    C     C_R   0.495134 0.737531 0.499254 0.546238
C7    C     C_R   0.794861 0.490850 0.534780 0.560085
C8    C     C_2   0.039621 0.505868 0.452423 -0.144650
C9    C     C_2   0.956088 0.457391 0.548274 -0.029526
C10   C     C_R   0.408338 0.065507 0.584644 0.059110
C11   C     C_R   0.497673 0.129896 0.498150 -0.021656
C12   C     C_R   0.566114 0.935873 0.398654 -0.171252
C13   C     C_R   0.568943 0.064617 0.397931 -0.177589
C14   C     C_3   0.761282 0.700636 0.146461 -0.257748
C15   C     C_3   0.619471 0.770153 0.074590 -0.416948
C16   C     C_3   0.015274 0.358919 0.655772 -0.257216
C17   C     C_3   0.911106 0.244441 0.648012 -0.433507
C18   C     C_3   0.209013 0.893341 0.755495 -0.256412
C19   C     C_3   0.169771 0.761579 0.709405 -0.432681
C20   C     C_3   0.308055 0.172045 0.918622 -0.135590
C21   C     C_R   0.486374 0.871288 0.494961 -0.011178
C22   C     C_R   0.395027 0.938533 0.578520 -0.019286
C23   C     C_3   0.375403 0.930098 0.731397 -0.089892
C24   C     C_3   0.406981 0.069819 0.739633 0.168132
C25   C     C_R   0.633632 0.486167 0.087100 0.171576
C26   C     C_R   0.365415 0.502563 0.059243 -0.038745
C27   C     C_R   0.365548 0.502125 0.911345 -0.039496
Cu1   Cu    Cu3+1 0.499990 0.499980 0.640670 0.911394
Cu2   Cu    Cu3+1 0.500010 0.500020 0.359330 0.913287
H1    H     H_    0.987802 0.568318 0.371885 0.080323
H2    H     H_    0.255790 0.506517 0.100538 0.120809
H3    H     H_    0.599859 0.752727 0.960628 0.146379
H4    H     H_    0.513629 0.743497 0.120669 0.187766
H5    H     H_    0.637002 0.871166 0.088931 0.105941
H6    H     H_    0.759610 0.703347 0.261625 0.175344
H7    H     H_    0.866962 0.751156 0.124404 0.120829
H8    H     H_    0.799029 0.265825 0.685866 0.168416
H9    H     H_    0.890693 0.209369 0.538699 0.143948
H10   H     H_    0.967129 0.170437 0.716322 0.160978
H11   H     H_    0.131294 0.325011 0.639209 0.221430
H12   H     H_    0.256216 0.503819 0.845846 0.110950
H13   H     H_    0.022880 0.398367 0.762647 0.125201
H14   H     H_    0.164741 0.753450 0.593718 0.161722
H15   H     H_    0.259128 0.698976 0.760397 0.188633
H16   H     H_    0.055751 0.734493 0.740697 0.119418
H17   H     H_    0.197770 0.901367 0.869106 0.141912
H18   H     H_    0.122613 0.955682 0.696893 0.188493
H19   H     H_    0.410812 0.233212 0.941155 0.134539
H20   H     H_    0.321969 0.087670 0.985429 0.108144
H21   H     H_    0.206181 0.223284 0.946685 0.127994
H22   H     H_    0.876270 0.488033 0.919972 0.093088
H23   H     H_    0.773152 0.635762 0.880002 0.154395
H24   H     H_    0.876089 0.516322 0.160599 0.112321
H25   H     H_    0.634389 0.112518 0.325194 0.126519
H26   H     H_    0.634048 0.887176 0.330133 0.125575
H27   H     H_    0.466913 0.874845 0.792730 0.107045
H28   H     H_    0.523558 0.095087 0.793823 0.083648
N1    N     N_R   0.500980 0.500930 0.148050 -0.231400
N2    N     N_R   0.500990 0.500890 0.852140 -0.235013
O1    O     O_R   0.500000 0.319640 0.618810 -0.487289
O2    O     O_R   0.500020 0.319680 0.381230 -0.501035
O3    O     O_R   0.274830 0.499980 0.591380 -0.516664
O4    O     O_R   0.274850 0.500020 0.353800 -0.508830
O5    O     O_R   0.499980 0.680320 0.618770 -0.508162
O6    O     O_R   0.500000 0.680360 0.381190 -0.509689
O7    O     O_R   0.725150 0.499980 0.646200 -0.507548
O8    O     O_R   0.725170 0.500020 0.408620 -0.513295
O9    O     O_3   0.282592 0.141934 0.774984 -0.578830

loop_
_geom_bond_atom_site_label_1
_geom_bond_atom_site_label_2
_ccdc_geom_bond_type
C5    C25   S    
Cu1   O7    S    
C23   C24   S    
C19   H16   S    
Cu1   O3    S    
C20   H20   S    
C16   H13   S    
C11   C13   A    
C27   H12   S    
C15   H5    S    
C1    C11   S    
C4    C8    S    
C19   H15   S    
C3    H23   S    
C8    H1    S    
C18   H18   S    
Cu2   O4    S    
C2    C3    S    
C26   C27   A    
C26   H2    S    
C27   N2    A    
C21   C22   A    
C10   C22   A    
C7    O7    A    
C26   N1    A    
C4    O4    A    
C23   H27   S    
C5    C14   S    
C20   H19   S    
C16   H11   S    
Cu2   O6    S    
C18   H17   S    
C5    H24   S    
Cu1   Cu2   S    
C6    O6    A    
C9    C16   S    
C19   H14   S    
C18   C19   S    
C2    C25   A    
C17   H9    S    
Cu1   O1    S    
C14   H7    S    
Cu2   O2    S    
Cu1   N2    S    
C12   H26   S    
C10   C11   A    
C24   O9    S    
C7    O8    A    
C18   C23   S    
Cu2   O8    S    
C4    O3    A    
C15   H3    S    
C12   C13   A    
Cu1   O5    S    
C8    C9    D    
C20   H21   S    
C13   H25   S    
C25   N1    A    
C1    O1    A    
C6    O5    A    
C14   H6    S    
C7    C9    S    
C3    H22   S    
C17   H10   S    
C2    N2    A    
C24   H28   S    
C17   H8    S    
C10   C24   S    
C14   C15   S    
C6    C21   S    
C12   C21   A    
C20   O9    S    
C22   C23   S    
Cu2   N1    S    
C15   H4    S    
C16   C17   S    
C3    C5    S    
C1    O2    A    
