data_mof_unit_53952.cif
_audit_creation_date              2012-12-10T20:55:45-0500
_audit_creation_method            fapswitch 2.2
_symmetry_space_group_name_H-M    P1
_symmetry_Int_Tables_number       1
_space_group_crystal_system       triclinic
_cell_length_a                    15.853666
_cell_length_b                    15.018174
_cell_length_c                    10.603456
_cell_angle_alpha                 89.996069
_cell_angle_beta                  89.876897
_cell_angle_gamma                 89.96749
_cell_volume                      2524.6036245

loop_
_atom_site_label
_atom_site_type_symbol
_atom_type_description
_atom_site_fract_x
_atom_site_fract_y
_atom_site_fract_z
_atom_type_partial_charge
C1    C     C_1   0.250768 0.500006 0.499443 -0.045379
C2    C     C_1   0.749233 0.499908 0.500039 -0.043978
C3    C     C_R   0.472876 0.500257 0.876020 -0.193249
C4    C     C_R   0.526850 0.500002 0.123890 -0.194684
C5    C     C_R   0.499804 0.905273 0.500961 -0.335005
C6    C     C_R   0.499927 0.094807 0.500858 -0.341143
C7    C     C_R   0.424492 0.952884 0.474367 0.247807
C8    C     C_R   0.571866 0.047200 0.543519 0.224845
C9    C     C_R   0.575068 0.952690 0.528238 0.299300
C10   C     C_R   0.427742 0.047376 0.458947 0.290644
C11   C     C_R   0.956101 0.581649 0.507918 0.289032
C12   C     C_R   0.043952 0.417705 0.508945 0.283471
C13   C     C_R   0.043827 0.581547 0.488832 0.274021
C14   C     C_R   0.956129 0.417640 0.490705 0.277472
C15   C     C_R   0.338893 0.500017 0.499775 0.885209
C16   C     C_R   0.661107 0.499977 0.500207 0.884823
C17   C     C_R   0.513892 0.499990 0.260028 0.878756
C18   C     C_R   0.485984 0.500048 0.739911 0.878108
C19   C     C_R   0.913134 0.499671 0.499507 -0.246495
C20   C     C_R   0.086868 0.499660 0.498859 -0.246509
C21   C     C_1   0.499876 0.807169 0.500406 0.364488
C22   C     C_1   0.500030 0.192846 0.500365 0.353046
C23   C     C_1   0.824000 0.499783 0.499828 0.266748
C24   C     C_1   0.176003 0.499835 0.499124 0.263890
C25   C     C_R   0.547712 0.663672 0.110034 -0.179127
C26   C     C_R   0.451631 0.336799 0.890343 -0.137628
C27   C     C_R   0.453748 0.664197 0.889552 -0.180634
C28   C     C_R   0.546873 0.336212 0.109393 -0.150908
C29   C     C_R   0.526629 0.745227 0.053671 0.156442
C30   C     C_R   0.473375 0.255202 0.945169 0.184999
C31   C     C_R   0.476868 0.745534 0.944553 0.170183
C32   C     C_R   0.524515 0.254705 0.053809 0.150229
C33   C     C_R   0.481188 0.582105 0.940758 0.062163
C34   C     C_R   0.518715 0.418227 0.058949 0.059384
C35   C     C_R   0.519292 0.581913 0.059076 0.062961
C36   C     C_R   0.480339 0.418453 0.940963 0.046034
H1    H     H_    0.587602 0.664443 0.192760 0.172378
H2    H     H_    0.411341 0.335770 0.807988 0.169159
H3    H     H_    0.413588 0.665426 0.807130 0.173210
H4    H     H_    0.587201 0.335246 0.191649 0.159399
N1    N     N_1   0.500000 0.270550 0.500000 -0.071617
N2    N     N_1   0.500000 0.729450 0.500000 -0.073459
O1    O     O_R   0.378020 0.573650 0.500040 -0.590803
O2    O     O_R   0.621980 0.426350 0.499960 -0.594272
O3    O     O_R   0.621980 0.573650 0.499960 -0.590198
O4    O     O_R   0.378020 0.426350 0.500040 -0.592389
O5    O     O_R   0.499990 0.573670 0.316780 -0.613348
O6    O     O_R   0.500010 0.426330 0.683220 -0.610053
O7    O     O_R   0.500010 0.573670 0.683220 -0.617547
O8    O     O_R   0.499990 0.426330 0.316780 -0.609973
Zn1   Zn    Zn3+2 0.500000 0.598370 0.500000 1.046386
Zn2   Zn    Zn3+2 0.500000 0.401630 0.500000 1.049249
S1    S     S_3+6 0.100342 0.680838 0.448796 0.144138
O9    O     O_2   0.044187 0.747260 0.384234 -0.146764
O10   O     O_2   0.135391 0.721158 0.567374 -0.206385
O11   O     O_3   0.180426 0.657035 0.349974 -0.547848
H5    H     H_    0.217578 0.710052 0.352459 0.425685
S2    S     S_3+6 0.899386 0.317815 0.454308 0.136791
O12   O     O_2   0.955139 0.250916 0.389608 -0.154858
O13   O     O_2   0.865715 0.278674 0.574781 -0.185414
O14   O     O_3   0.818127 0.339975 0.357360 -0.571422
H6    H     H_    0.783348 0.285197 0.357635 0.400161
S3    S     S_3+6 0.899524 0.681345 0.546055 0.119552
O15   O     O_2   0.955684 0.748399 0.609135 -0.166388
O16   O     O_2   0.864281 0.720490 0.426789 -0.228356
O17   O     O_3   0.819563 0.658558 0.645512 -0.549922
H7    H     H_    0.784215 0.712919 0.645849 0.421418
S4    S     S_3+6 0.100779 0.318163 0.546971 0.133094
O18   O     O_2   0.045052 0.251713 0.612528 -0.152920
O19   O     O_2   0.134642 0.278154 0.427176 -0.203927
O20   O     O_3   0.181891 0.341062 0.643796 -0.569112
H8    H     H_    0.216419 0.286083 0.645131 0.403193
N3    N     N_3   0.552489 0.172162 0.108253 -0.435775
H9    H     H_    0.595545 0.183952 0.180932 0.203734
H10   H     H_    0.500135 0.141750 0.150006 0.229412
N4    N     N_3   0.451147 0.828636 0.889432 -0.403685
H11   H     H_    0.410598 0.817537 0.813386 0.210198
H12   H     H_    0.505021 0.859057 0.852152 0.190692
N5    N     N_3   0.443449 0.174651 0.887071 -0.421406
H13   H     H_    0.469400 0.171236 0.796501 0.205123
H14   H     H_    0.464374 0.118113 0.934918 0.216208
N6    N     N_3   0.552815 0.828043 0.108947 -0.406143
H15   H     H_    0.582939 0.816877 0.195165 0.215455
H16   H     H_    0.597741 0.856341 0.048810 0.209962
S5    S     S_3+6 0.343219 0.107545 0.386250 0.086350
O21   O     O_2   0.283834 0.139278 0.487388 -0.247862
O22   O     O_2   0.376172 0.187076 0.315582 -0.323575
O23   O     O_3   0.290504 0.043800 0.282663 -0.426116
H17   H     H_    0.240729 0.079683 0.258133 0.415631
S6    S     S_3+6 0.672006 0.892106 0.541468 0.077756
O24   O     O_2   0.679982 0.858436 0.674399 -0.311941
O25   O     O_2   0.672457 0.813909 0.452934 -0.307505
O26   O     O_3   0.756077 0.955478 0.505641 -0.398520
H18   H     H_    0.805684 0.918004 0.525871 0.424141
S7    S     S_3+6 0.655798 0.106847 0.618351 0.112122
O27   O     O_2   0.717758 0.136194 0.519339 -0.168617
O28   O     O_2   0.623477 0.188151 0.685615 -0.328831
O29   O     O_3   0.705833 0.043449 0.725365 -0.402448
H19   H     H_    0.662841 0.030925 0.790951 0.351957
S8    S     S_3+6 0.327163 0.892900 0.463558 0.108078
O30   O     O_2   0.316095 0.861564 0.330060 -0.203491
O31   O     O_2   0.327599 0.812866 0.548779 -0.325348
O32   O     O_3   0.244025 0.956146 0.504664 -0.384275
H20   H     H_    0.251957 0.968453 0.595651 0.372562

loop_
_geom_bond_atom_site_label_1
_geom_bond_atom_site_label_2
_ccdc_geom_bond_type
C8    C9    A    
C7    C10   A    
S3    O16   D    
C10   S5    S    
O26   H18   S    
N3    H9    S    
S7    O27   D    
C31   N4    S    
S7    O29   S    
S5    O21   D    
C27   C33   A    
C12   S4    S    
C11   C19   A    
N4    H12   S    
C11   S3    S    
O29   H19   S    
S1    O11   S    
C22   N1    T    
C3    C33   A    
S2    O13   D    
C6    C22   S    
O4    Zn2   S    
O11   H5    S    
C3    C18   S    
C25   H1    S    
C20   C24   S    
C27   H3    S    
S4    O18   D    
O7    Zn1   S    
O8    Zn2   S    
C1    C15   S    
C2    C16   S    
C16   O2    A    
N1    Zn2   S    
N2    Zn1   S    
O2    Zn2   S    
S2    O14   S    
S1    O10   D    
O17   H7    S    
S3    O17   S    
C28   C34   A    
N3    H10   S    
C8    S7    S    
C13   S1    S    
S5    O22   D    
C25   C29   A    
C14   S2    S    
C4    C34   A    
C7    S8    S    
C27   C31   A    
C28   C32   A    
N4    H11   S    
C32   N3    S    
C5    C7    A    
C26   H2    S    
C6    C8    A    
S2    O12   D    
S1    O9    D    
S8    O32   S    
C21   N2    T    
C17   O8    A    
C19   C23   S    
C28   H4    S    
C5    C9    A    
S6    O25   D    
C12   C20   A    
S8    O31   D    
C25   C35   A    
C4    C17   S    
C26   C36   A    
C12   C14   A    
C26   C30   A    
N6    H16   S    
N5    H13   S    
C30   N5    S    
C2    C23   T    
S6    O26   S    
N5    H14   S    
S5    O23   S    
C13   C20   A    
C14   C19   A    
C17   O5    A    
C18   O6    A    
C9    S6    S    
C6    C10   A    
O5    Zn1   S    
S7    O28   D    
C15   O1    A    
O20   H8    S    
C29   C31   A    
C30   C32   A    
C11   C13   A    
O1    Zn1   S    
S6    O24   D    
C3    C36   A    
S4    O20   S    
S8    O30   D    
C33   C35   A    
C34   C36   A    
O14   H6    S    
C29   N6    S    
C4    C35   A    
C16   O3    A    
S3    O15   D    
O6    Zn2   S    
C5    C21   S    
O23   H17   S    
C1    C24   T    
S4    O19   D    
N6    H15   S    
O32   H20   S    
O3    Zn1   S    
C15   O4    A    
C18   O7    A    
