data_mof_unit_20148.cif
_audit_creation_date              2012-12-11T14:50:43-0500
_audit_creation_method            fapswitch 2.2
_symmetry_space_group_name_H-M    P1
_symmetry_Int_Tables_number       1
_space_group_crystal_system       triclinic
_cell_length_a                    20.649657
_cell_length_b                    7.158062
_cell_length_c                    20.380359
_cell_angle_alpha                 89.871035
_cell_angle_beta                  101.622215
_cell_angle_gamma                 90.107859
_cell_volume                      2950.67767014

loop_
_atom_site_label
_atom_site_type_symbol
_atom_type_description
_atom_site_fract_x
_atom_site_fract_y
_atom_site_fract_z
_atom_type_partial_charge
O1    O     O_R   0.423690 0.494470 0.435930 -0.524244
O2    O     O_R   0.576310 0.994470 0.564070 -0.523389
O3    O     O_R   0.556070 0.822310 0.435760 -0.527321
O4    O     O_R   0.443930 0.322310 0.564240 -0.526992
C1    C     C_R   0.576317 0.656838 0.421515 0.790651
C2    C     C_R   0.423656 0.156328 0.578422 0.791840
O5    O     O_R   0.422940 0.824080 0.428040 -0.536931
O6    O     O_R   0.577060 0.324080 0.571960 -0.536674
O7    O     O_R   0.442240 0.995960 0.556300 -0.521564
O8    O     O_R   0.557760 0.495960 0.443700 -0.520762
C3    C     C_R   0.399247 0.654718 0.410204 0.896839
C4    C     C_R   0.600785 0.154702 0.589756 0.898699
O9    O     O_3   0.506490 0.661310 0.542090 -0.376524
O10   O     O_3   0.493510 0.161310 0.457910 -0.376715
V1    V     V_3+5 0.498800 0.935560 0.492190 1.780076
V2    V     V_3+5 0.501200 0.435560 0.507810 1.779756
C5    C     C_R   0.835211 0.095901 0.861315 -0.197448
C6    C     C_R   0.165025 0.595989 0.138419 -0.193598
C7    C     C_R   0.662380 0.139659 0.642357 -0.391256
C8    C     C_R   0.337756 0.639733 0.357476 -0.392827
C9    C     C_R   0.777573 0.035570 0.675405 0.337228
C10   C     C_R   0.222330 0.537105 0.324484 0.335712
C11   C     C_R   0.721219 0.071888 0.625074 0.307809
C12   C     C_R   0.278643 0.573612 0.374831 0.307992
C13   C     C_R   0.661450 0.176561 0.710585 0.409000
C14   C     C_R   0.339028 0.675076 0.289148 0.403034
C15   C     C_R   0.721475 0.166867 0.759637 -0.096020
C16   C     C_R   0.279055 0.665652 0.239972 -0.095277
C17   C     C_R   0.777632 0.079124 0.743317 -0.118136
C18   C     C_R   0.222572 0.579357 0.256459 -0.118482
C19   C     C_R   0.832953 0.039046 0.795083 -0.231843
C20   C     C_R   0.167190 0.539513 0.204759 -0.233310
C21   C     C_R   0.781250 0.196942 0.876347 0.326871
C22   C     C_R   0.219224 0.696496 0.123184 0.318646
C23   C     C_R   0.727421 0.246089 0.824196 0.407905
C24   C     C_R   0.273392 0.744249 0.175215 0.407420
H1    H     H_    0.875514 0.965789 0.784645 0.155938
H2    H     H_    0.124451 0.466897 0.215355 0.155695
C25   C     C_3   0.258666 0.256281 0.813961 0.296767
C26   C     C_3   0.738632 0.749759 0.182683 0.288671
C27   C     C_3   0.251333 0.900551 0.793410 0.497397
C28   C     C_3   0.749765 0.397932 0.208491 0.447262
C29   C     C_3   0.294411 0.911021 0.734973 0.636496
C30   C     C_3   0.705470 0.410711 0.265915 0.634109
H3    H     H_    0.361509 0.234067 0.799298 0.261670
H4    H     H_    0.636439 0.736140 0.200929 0.285957
C31   C     C_1   0.378165 0.151954 0.624220 0.066623
C32   C     C_1   0.621616 0.653841 0.375483 0.079005
C33   C     C_3   0.209593 0.087842 0.793872 -0.253468
C34   C     C_3   0.789479 0.586875 0.205450 -0.163907
C35   C     C_3   0.311608 0.256847 0.769862 -0.390299
C36   C     C_3   0.687350 0.755747 0.228708 -0.376782
C37   C     C_3   0.293436 0.121210 0.709507 -0.226470
C38   C     C_3   0.706003 0.622199 0.289885 -0.203784
C39   C     C_3   0.221258 0.178251 0.675077 -0.381138
C40   C     C_3   0.777969 0.681668 0.323853 -0.401608
C41   C     C_3   0.171693 0.119435 0.719444 0.217542
C42   C     C_3   0.827479 0.625366 0.279361 0.191483
C43   C     C_1   0.340025 0.145752 0.662552 0.179348
C44   C     C_1   0.659562 0.647973 0.336929 0.213671
C45   C     C_1   0.161142 0.080205 0.839333 0.136134
C46   C     C_1   0.837891 0.578412 0.159885 0.187111
C47   C     C_1   0.121645 0.081785 0.876174 0.032675
C48   C     C_1   0.877694 0.580336 0.123313 0.020401
H5    H     H_    0.149652 0.984057 0.700033 0.206124
H6    H     H_    0.850948 0.492735 0.300029 0.210520
H7    H     H_    0.218998 0.331723 0.667808 0.258928
H8    H     H_    0.779882 0.835050 0.331157 0.262408
H9    H     H_    0.229295 0.385499 0.801892 0.190727
H10   H     H_    0.767043 0.882200 0.190473 0.161487
H11   H     H_    0.313333 0.399014 0.750836 0.258001
H12   H     H_    0.687989 0.898816 0.247495 0.246874
H13   H     H_    0.204758 0.121709 0.624025 0.256976
H14   H     H_    0.794549 0.623528 0.374802 0.256762
O11   O     O_R   0.942280 0.741210 0.056360 -0.528168
O12   O     O_R   0.057720 0.241210 0.943640 -0.527587
O13   O     O_R   0.077070 0.409690 0.071960 -0.536863
O14   O     O_R   0.922930 0.909690 0.928040 -0.536452
C49   C     C_R   0.101911 0.579108 0.088283 0.782953
C50   C     C_R   0.898212 0.079083 0.911578 0.781910
O15   O     O_R   0.943940 0.411580 0.064250 -0.526425
O16   O     O_R   0.056060 0.911580 0.935750 -0.527636
O17   O     O_R   0.923670 0.239840 0.935920 -0.526383
O18   O     O_R   0.076330 0.739840 0.064080 -0.526694
C51   C     C_R   0.924416 0.578843 0.078903 0.751590
C52   C     C_R   0.075408 0.079281 0.920989 0.752391
O19   O     O_3   0.993540 0.572620 0.957940 -0.378565
O20   O     O_3   0.006460 0.072620 0.042060 -0.378820
V3    V     V_3+5 0.001200 0.298330 0.007800 1.640649
V4    V     V_3+5 0.998800 0.798330 0.992200 1.638562
O21   O     O_3   0.294212 0.878059 0.856121 -0.530115
H15   H     H_    0.267309 0.869104 0.891214 0.358982
O22   O     O_3   0.709063 0.370465 0.145174 -0.573898
H16   H     H_    0.702113 0.235023 0.138126 0.384049
S1    S     S_3+6 0.380008 0.830921 0.767469 0.167697
O23   O     O_2   0.378746 0.646326 0.802004 -0.240001
O24   O     O_2   0.415939 0.804842 0.710833 -0.282965
O25   O     O_3   0.425115 0.974689 0.823959 -0.430671
H17   H     H_    0.454843 0.041916 0.799423 0.376947
S2    S     S_3+6 0.619529 0.330529 0.234040 0.110809
O26   O     O_2   0.619288 0.142279 0.202016 -0.307392
O27   O     O_2   0.583600 0.313087 0.291016 -0.268327
O28   O     O_3   0.575129 0.472413 0.176445 -0.465430
H18   H     H_    0.531925 0.408952 0.162245 0.406077
S3    S     S_3+6 0.262452 0.759885 0.660813 0.078394
O29   O     O_2   0.193901 0.687312 0.659509 -0.272394
O30   O     O_2   0.260645 0.862997 0.596189 -0.315169
O31   O     O_3   0.312627 0.577600 0.657752 -0.472190
H19   H     H_    0.292835 0.510434 0.616130 0.398278
S4    S     S_3+6 0.737056 0.262583 0.340935 0.080315
O32   O     O_2   0.806725 0.196596 0.344671 -0.266401
O33   O     O_2   0.735895 0.365783 0.404794 -0.317157
O34   O     O_3   0.688390 0.075501 0.342442 -0.471202
H20   H     H_    0.707601 0.009426 0.384539 0.397272
S5    S     S_3+6 0.101153 0.274653 0.707528 0.078740
O35   O     O_2   0.114872 0.445221 0.750841 -0.307779
O36   O     O_2   0.083498 0.333533 0.635278 -0.231760
O37   O     O_3   0.036644 0.158616 0.727012 -0.507146
H21   H     H_    0.000115 0.250587 0.720607 0.363831
S6    S     S_3+6 0.896777 0.785062 0.289080 0.073208
O38   O     O_2   0.882943 0.945586 0.240868 -0.318699
O39   O     O_2   0.912157 0.858907 0.359521 -0.226844
O40   O     O_3   0.962957 0.667452 0.274678 -0.506130
H22   H     H_    0.998708 0.761816 0.278983 0.364711
S7    S     S_3+6 0.778085 0.255382 0.960433 0.055037
O41   O     O_2   0.816966 0.119364 0.009288 -0.312279
O42   O     O_2   0.806293 0.448071 0.974348 -0.353226
O43   O     O_3   0.699019 0.253784 0.969934 -0.430838
H23   H     H_    0.699000 0.327854 0.010875 0.417449
S8    S     S_3+6 0.222500 0.755314 0.038997 0.043237
O44   O     O_2   0.182160 0.622522 0.990036 -0.301684
O45   O     O_2   0.195875 0.949705 0.025065 -0.369246
O46   O     O_3   0.301455 0.747595 0.028963 -0.422011
H24   H     H_    0.311705 0.874966 0.014895 0.388637
O47   O     O_3   0.832177 0.958606 0.656404 -0.568056
H25   H     H_    0.871957 0.025293 0.680460 0.313937
O48   O     O_3   0.167439 0.461409 0.343565 -0.568511
H26   H     H_    0.127903 0.528607 0.319288 0.314196
O49   O     O_3   0.683601 0.385128 0.833001 -0.567401
H27   H     H_    0.705262 0.471060 0.868741 0.357029
O50   O     O_3   0.317860 0.881633 0.166043 -0.567482
H28   H     H_    0.296107 0.969552 0.130960 0.340098
S9    S     S_3+6 0.725499 0.026006 0.540099 0.076864
O51   O     O_2   0.710485 0.822922 0.525941 -0.319157
O52   O     O_2   0.676495 0.141993 0.492522 -0.337580
O53   O     O_3   0.801640 0.071849 0.526520 -0.397927
H29   H     H_    0.808072 0.207482 0.535030 0.382742
S10   S     S_3+6 0.274035 0.530164 0.459963 0.078060
O54   O     O_2   0.289568 0.327908 0.475374 -0.319133
O55   O     O_2   0.322563 0.648787 0.507018 -0.336995
O56   O     O_3   0.197662 0.574585 0.472973 -0.397201
H30   H     H_    0.190975 0.709922 0.463874 0.382201
S11   S     S_3+6 0.583534 0.195323 0.735756 0.069574
O57   O     O_2   0.559983 0.394143 0.726687 -0.292437
O58   O     O_2   0.533361 0.070003 0.693800 -0.354726
O59   O     O_3   0.589691 0.129520 0.816194 -0.430149
H31   H     H_    0.560249 0.215026 0.834692 0.402517
S12   S     S_3+6 0.417218 0.692629 0.264356 0.083542
O60   O     O_2   0.441330 0.891051 0.273286 -0.287810
O61   O     O_2   0.466735 0.566344 0.306715 -0.345340
O62   O     O_3   0.411545 0.627354 0.184083 -0.435253
H32   H     H_    0.450668 0.683401 0.170364 0.403151
S13   S     S_3+6 0.297104 0.286569 0.901702 0.114767
O63   O     O_2   0.318499 0.486958 0.911571 -0.226461
O64   O     O_2   0.249727 0.245184 0.946894 -0.296725
O65   O     O_3   0.364426 0.151177 0.924051 -0.431695
H33   H     H_    0.382008 0.181179 0.971741 0.394631
S14   S     S_3+6 0.697744 0.759735 0.094504 0.121302
O66   O     O_2   0.672170 0.953857 0.078537 -0.279876
O67   O     O_2   0.745074 0.715367 0.049674 -0.280886
O68   O     O_3   0.632599 0.614375 0.076469 -0.420625
H34   H     H_    0.615806 0.628508 0.027648 0.401364
O69   O     O_3   0.208890 0.744512 0.782787 -0.592653
H35   H     H_    0.187083 0.729606 0.821627 0.331599
O70   O     O_3   0.794825 0.248178 0.221647 -0.605376
H36   H     H_    0.814187 0.228240 0.181394 0.339228

loop_
_geom_bond_atom_site_label_1
_geom_bond_atom_site_label_2
_ccdc_geom_bond_type
S9    O53   S    
C25   C35   S    
O68   H34   S    
O22   H16   S    
C15   C17   A    
C28   O22   S    
S8    O45   D    
S1    O23   D    
O1    C3    A    
S10   O56   S    
O2    C4    A    
O43   H23   S    
C2    O7    A    
O62   H32   S    
C37   C43   S    
S1    O25   S    
O40   H22   S    
C41   S5    S    
C38   C44   S    
O69   H35   S    
O14   V4    S    
O5    C3    A    
S3    O30   D    
C10   O48   S    
O13   V3    S    
C26   H10   S    
O59   H31   S    
S13   O64   D    
S10   O55   D    
O34   H20   S    
C28   O70   S    
C49   O18   A    
O14   C50   A    
H3    C35   S    
S5    O35   D    
H4    C36   S    
C33   C41   S    
O31   H19   S    
C29   S3    S    
C45   C47   T    
O37   H21   S    
C46   C48   T    
O11   V4    S    
C23   O49   S    
C21   S7    S    
S4    O32   D    
C29   C37   S    
S14   O68   S    
S13   O63   D    
S6    O39   D    
C6    C49   S    
S5    O36   D    
S7    O43   S    
C29   S1    S    
O56   H30   S    
C20   H2    S    
S11   O58   D    
S12   O62   S    
S6    O40   S    
O12   V3    S    
O15   V3    S    
S14   O67   D    
O6    V2    S    
S12   O61   D    
C27   C29   S    
C11   S9    S    
C28   C30   S    
C50   O17   A    
C27   C33   S    
S3    O31   S    
C35   H11   S    
C36   C38   S    
C32   C44   T    
C37   C39   S    
O17   V3    S    
C1    C32   S    
C38   C40   S    
C3    C8    S    
C40   H14   S    
C2    C31   S    
C13   S11   S    
C34   C42   S    
C8    C12   A    
O47   H25   S    
S13   O65   S    
C33   C45   S    
S10   O54   D    
O4    C2    A    
C12   S10   S    
O21   H15   S    
O5    V1    S    
C15   C23   A    
C26   C36   S    
C9    C17   A    
C5    C50   S    
C19   H1    S    
C35   C37   S    
S12   O60   D    
O4    V2    S    
C7    C11   A    
C24   O50   S    
C36   H12   S    
O46   H24   S    
O70   H36   S    
O6    C4    A    
S5    O37   S    
C42   S6    S    
C25   H9    S    
O13   C49   A    
C5    C21   A    
O1    V2    S    
S11   O59   S    
O2    V1    S    
C6    C22   A    
S4    O34   S    
C16   C24   A    
C28   C34   S    
S14   O66   D    
C27   O21   S    
S2    O27   D    
O20   V4    S    
C9    C11   A    
C47   C52   S    
O65   H33   S    
C5    C19   A    
C10   C12   A    
O19   V4    S    
S8    O46   S    
C6    C20   A    
C25   S13   S    
O12   C52   A    
C48   C51   S    
O3    V1    S    
S6    O38   D    
C42   H6    S    
O53   H29   S    
O48   H26   S    
O18   V4    S    
S9    O52   D    
C27   O69   S    
C10   C18   A    
C25   C33   S    
C41   H5    S    
O3    C1    A    
C39   H7    S    
O49   H27   S    
S1    O24   D    
C13   C15   A    
S3    O29   D    
C14   C16   A    
O16   V4    S    
C40   H8    S    
C39   C41   S    
S8    O44   D    
O7    V1    S    
C1    O8    A    
C17   C19   A    
O16   C52   A    
O50   H28   S    
O11   C51   A    
C18   C20   A    
C30   S2    S    
S7    O41   D    
C8    C14   A    
C34   C46   S    
C4    C7    S    
C16   C18   A    
S2    O26   D    
C21   C23   A    
C40   C42   S    
C14   S12   S    
C22   C24   A    
S2    O28   S    
C7    C13   A    
S4    O33   D    
C26   S14   S    
C31   C43   T    
C39   H13   S    
C30   C38   S    
C26   C34   S    
O20   V3    S    
C22   S8    S    
O25   H17   S    
O9    V2    S    
O28   H18   S    
S7    O42   D    
O19   V3    S    
O10   V1    S    
O8    V2    S    
S11   O57   D    
C9    O47   S    
O15   C51   A    
S9    O51   D    
C30   S4    S    
