data_mof_unit_19924.cif
_audit_creation_date              2013-03-05T15:57:37-0500
_audit_creation_method            fapswitch 2.2
_symmetry_space_group_name_H-M    P1
_symmetry_Int_Tables_number       1
_space_group_crystal_system       triclinic
_cell_length_a                    15.089875
_cell_length_b                    15.099643
_cell_length_c                    15.002649
_cell_angle_alpha                 108.94753
_cell_angle_beta                  109.448226
_cell_angle_gamma                 110.465803
_cell_volume                      2616.46492828

loop_
_atom_site_label
_atom_site_type_symbol
_atom_site_description
_atom_site_fract_x
_atom_site_fract_y
_atom_site_fract_z
_atom_type_partial_charge
C1    C     C_R   0.908133 0.915607 0.714146 -0.148707
H1    H     H_    0.824480 0.859036 0.687186 0.092110
N1    N     N_R   0.941940 0.944580 0.650780 -0.037976
C2    C     C_R   0.093017 0.299252 0.497518 -0.164998
H2    H     H_    0.177406 0.353751 0.524364 0.097440
N2    N     N_R   0.056800 0.208900 0.502740 -0.035411
C3    C     C_R   0.247025 0.221375 0.812314 -0.154848
H3    H     H_    0.257252 0.201992 0.876900 0.124759
N3    N     N_R   0.204460 0.150250 0.707090 -0.042891
C4    C     C_R   0.746317 0.059514 0.469297 -0.147662
H4    H     H_    0.725953 0.104116 0.430452 0.100276
N4    N     N_R   0.794270 0.003240 0.446420 -0.044670
C5    C     C_R   0.247245 0.312403 0.720372 -0.128669
H5    H     H_    0.256252 0.375103 0.698597 0.088584
N5    N     N_R   0.204920 0.207570 0.650770 -0.041377
C6    C     C_R   0.754589 0.973896 0.566786 -0.114686
N6    N     N_R   0.793810 0.945920 0.502740 -0.041507
C7    C     C_R   0.910597 0.210529 0.408691 -0.115295
H6    H     H_    0.826563 0.184014 0.355608 0.098764
N7    N     N_R   0.943620 0.152590 0.446420 -0.039007
C8    C     C_R   0.090246 0.004293 0.802041 -0.128005
H7    H     H_    0.172823 0.024979 0.852151 0.107666
N8    N     N_R   0.055110 0.000900 0.707100 -0.039695
C9    C     C_R   0.000473 0.956306 0.811541 0.056619
C10   C     C_R   0.003435 0.302145 0.439821 0.057075
C11   C     C_R   0.272159 0.322887 0.822031 0.131585
C12   C     C_R   0.719345 0.040140 0.543400 0.076590
C13   C     C_R   0.701771 0.695842 0.287176 -0.157720
H8    H     H_    0.672346 0.639997 0.314904 0.094882
N9    N     N_R   0.795080 0.792430 0.349230 -0.039636
C14   C     C_R   0.300108 0.088307 0.497028 -0.138991
N10   N     N_R   0.206190 0.054080 0.497260 -0.041129
C15   C     C_R   0.091456 0.779146 0.530265 -0.104944
H9    H     H_    0.176038 0.800759 0.563562 0.103189
N11   N     N_R   0.056380 0.847410 0.553580 -0.041173
C16   C     C_R   0.910741 0.936874 0.187702 -0.114243
H10   H     H_    0.826588 0.889573 0.122878 0.113645
N12   N     N_R   0.944890 0.999100 0.292900 -0.043971
C17   C     C_R   0.093128 0.022956 0.282346 -0.125390
H11   H     H_    0.177573 0.050892 0.306795 0.094137
N13   N     N_R   0.058060 0.055420 0.349220 -0.041588
C18   C     C_R   0.907529 0.684805 0.444720 -0.145277
H12   H     H_    0.823314 0.619360 0.401135 0.098895
N14   N     N_R   0.943200 0.791100 0.497260 -0.039313
C19   C     C_R   0.701458 0.788616 0.197769 -0.109103
N15   N     N_R   0.795540 0.849750 0.292910 -0.047357
C20   C     C_R   0.299036 0.997990 0.589028 -0.166024
N16   N     N_R   0.205730 0.996760 0.553580 -0.037903
Ni1   Ni    Ni4+2 0.869690 0.869690 0.500000 0.217303
Ni2   Ni    Ni4+2 0.130310 0.130310 0.500000 0.214561
Ni3   Ni    Ni4+2 0.129250 0.998840 0.629170 0.216840
Ni4   Ni    Ni4+2 0.870750 0.001160 0.370830 0.211251
C21   C     C_R   0.641667 0.691810 0.192292 0.147017
C22   C     C_R   0.358009 0.052932 0.552889 0.077558
C23   C     C_R   0.000052 0.676510 0.465885 0.045970
C24   C     C_R   0.003218 0.948914 0.179257 0.051422
H13   H     H_    0.483024 0.551669 0.382028 0.114713
C25   C     C_R   0.473782 0.672327 0.339417 -0.155072
C26   C     C_R   0.488794 0.777202 0.376140 0.071769
C27   C     C_R   0.525517 0.843410 0.487315 0.085020
C28   C     C_R   0.542391 0.801300 0.558227 -0.263432
C29   C     C_R   0.528554 0.696819 0.520935 0.113351
C30   C     C_R   0.494402 0.632681 0.411504 -0.156018
C31   C     C_R   0.456550 0.962780 0.537211 -0.256450
H14   H     H_    0.384653 0.889336 0.513774 0.140092
C32   C     C_R   0.458165 0.060504 0.563896 0.052532
C33   C     C_R   0.548342 0.156222 0.590538 -0.031274
C34   C     C_R   0.639467 0.150942 0.591300 -0.032525
C35   C     C_R   0.633985 0.049759 0.558714 0.035153
C36   C     C_R   0.541293 0.954681 0.530259 0.001241
C37   C     C_R   0.547412 0.300850 0.543424 -0.189651
H15   H     H_    0.560969 0.265572 0.477530 0.107479
C38   C     C_R   0.525405 0.385093 0.553451 -0.104627
H16   H     H_    0.526321 0.416920 0.498469 0.112417
C39   C     C_R   0.497257 0.424718 0.631089 -0.087825
H17   H     H_    0.476139 0.486934 0.636351 0.099400
C40   C     C_R   0.493837 0.382189 0.700511 -0.099827
H18   H     H_    0.467799 0.409831 0.757462 0.106187
C41   C     C_R   0.520628 0.301615 0.694296 -0.132869
H19   H     H_    0.515635 0.268264 0.747584 0.110322
C42   C     C_R   0.544802 0.258016 0.613610 0.117300
H20   H     H_    0.681302 0.018272 0.956788 0.101554
C43   C     C_R   0.847741 0.146192 0.078288 -0.110144
H21   H     H_    0.881888 0.110006 0.035061 0.115407
C44   C     C_R   0.917140 0.244537 0.177873 0.047607
C45   C     C_R   0.871599 0.290917 0.234048 0.085796
C46   C     C_R   0.757243 0.238809 0.187150 -0.193297
H22   H     H_    0.720967 0.273225 0.228688 0.112495
C47   C     C_R   0.689105 0.140838 0.087727 -0.114097
H23   H     H_    0.601125 0.100684 0.052732 0.104821
C48   C     C_R   0.734294 0.094314 0.033689 -0.131237
C49   C     C_R   0.938894 0.486202 0.353080 -0.254381
H24   H     H_    0.886082 0.485569 0.282746 0.133511
C50   C     C_R   0.004700 0.581231 0.455365 0.064130
C51   C     C_R   0.075500 0.585039 0.548023 0.035309
C52   C     C_R   0.078363 0.492736 0.536119 -0.223388
H25   H     H_    0.128681 0.493859 0.608301 0.132015
C53   C     C_R   0.009857 0.396778 0.435858 0.051295
C54   C     C_R   0.941545 0.392301 0.342004 0.017174
C55   C     C_R   0.256226 0.736862 0.716257 0.031453
C56   C     C_R   0.315897 0.823987 0.823853 -0.170879
H26   H     H_    0.404574 0.868676 0.866900 0.104334
C57   C     C_R   0.261380 0.853315 0.876252 -0.112835
H27   H     H_    0.307807 0.919963 0.959432 0.101218
C58   C     C_R   0.147105 0.796193 0.821715 -0.112390
H28   H     H_    0.105238 0.818083 0.863062 0.128959
C59   C     C_R   0.086789 0.710115 0.714276 -0.150755
H29   H     H_    0.998170 0.666337 0.673111 0.118488
C60   C     C_R   0.140633 0.679758 0.660691 0.094241
C61   C     C_2   0.367894 0.521058 0.932269 -0.132338
C62   C     C_2   0.322456 0.422850 0.923711 -0.195665
H30   H     H_    0.337058 0.415604 0.995770 0.140238
C63   C     C_2   0.463487 0.616399 0.034800 -0.107787
C64   C     C_2   0.531246 0.604002 0.107881 -0.239226
H31   H     H_    0.487455 0.695701 0.040919 0.122293
H32   H     H_    0.423416 0.418595 0.174790 0.090389
C65   C     C_R   0.382490 0.253375 0.131089 -0.105782
H33   H     H_    0.466892 0.273386 0.166114 0.100961
C66   C     C_R   0.298283 0.146216 0.083812 -0.192609
H34   H     H_    0.318488 0.084269 0.084507 0.104779
C67   C     C_R   0.188558 0.119913 0.039053 0.116978
C68   C     C_R   0.164387 0.202260 0.042147 -0.116607
H35   H     H_    0.080556 0.184050 0.010736 0.111429
C69   C     C_R   0.248987 0.309635 0.090972 -0.128763
H36   H     H_    0.230205 0.373307 0.095196 0.116047
C70   C     C_R   0.357953 0.335241 0.135913 -0.127068
C71   C     C_R   0.106087 0.991389 0.090070 -0.230903
H37   H     H_    0.180108 0.049120 0.168054 0.127982
C72   C     C_R   0.010944 0.918156 0.080320 0.054136
C73   C     C_R   0.918586 0.839454 0.976241 0.027949
C74   C     C_R   0.917335 0.850275 0.886850 -0.257560
H38   H     H_    0.846831 0.790725 0.806173 0.126301
C75   C     C_R   0.005585 0.939826 0.902672 0.049590
C76   C     C_R   0.101120 0.011361 0.006237 0.007956
C77   C     C_R   0.843342 0.688186 0.013180 -0.140445
H39   H     H_    0.925521 0.705111 0.059165 0.110888
C78   C     C_R   0.756486 0.608063 0.007893 -0.102631
H40   H     H_    0.771492 0.563181 0.048773 0.107392
C79   C     C_R   0.650488 0.586872 0.951115 -0.069958
H41   H     H_    0.583685 0.525213 0.947956 0.112406
C80   C     C_R   0.630652 0.644659 0.898199 -0.117490
H42   H     H_    0.548258 0.628109 0.854464 0.094428
C81   C     C_R   0.717162 0.724136 0.902185 -0.180283
H43   H     H_    0.701026 0.770019 0.862974 0.101471
C82   C     C_R   0.824585 0.747638 0.961210 0.122493
H44   H     H_    0.328474 0.143185 0.468164 0.113669
H45   H     H_    0.673322 0.817617 0.143425 0.086005
H46   H     H_    0.327149 0.971436 0.645988 0.101389
H47   H     H_    0.445328 0.620973 0.254458 0.132208
N17   N     N_3   0.463493 0.813350 0.298837 -0.217897
H48   H     H_    0.404673 0.834269 0.300347 0.106948
H49   H     H_    0.534137 0.883210 0.322970 0.110244
H50   H     H_    0.568482 0.850640 0.643049 0.118115
N18   N     N_3   0.549331 0.655380 0.593918 -0.226265
H51   H     H_    0.499951 0.657640 0.628684 0.089612
H52   H     H_    0.630946 0.708258 0.656706 0.087666
N19   N     N_3   0.738616 0.246755 0.627221 -0.208726
H53   H     H_    0.723748 0.275535 0.572565 0.101995
H54   H     H_    0.762946 0.306850 0.704068 0.122337
N20   N     N_3   0.032633 0.297152 0.218044 -0.221967
H55   H     H_    0.060857 0.376934 0.232160 0.109784
H56   H     H_    0.071830 0.300430 0.291944 0.115165
N21   N     N_3   0.312579 0.707308 0.662820 -0.219688
H57   H     H_    0.363790 0.776035 0.663917 0.096332
H58   H     H_    0.362050 0.686157 0.708280 0.087295
H59   H     H_    0.348417 0.529940 0.860458 0.115255
H60   H     H_    0.510792 0.525061 0.101367 0.128297
H61   H     H_    0.744950 0.943235 0.620461 0.108454

loop_
_geom_bond_atom_site_label_1
_geom_bond_atom_site_label_2
_geom_bond_distance
_ccdc_geom_bond_type
C9    C75   1.449568 S    
C15   C23   1.372255 A    
C46   H22   1.083446 S    
C56   H26   1.083089 S    
C38   C39   1.396309 A    
C38   H16   1.082568 S    
N1    N8    1.382166 A    
C51   C52   1.364510 A    
N3    Ni3   1.856863 S    
C71   C76   1.370319 A    
C2    C10   1.365700 A    
N1    Ni1   1.849013 S    
C3    H3    1.079138 S    
C17   N13   1.320028 A    
C40   H18   1.079467 S    
C78   C79   1.394325 A    
N19   H53   1.043377 S    
C3    C11   1.387848 A    
C43   H21   1.083471 S    
C16   H10   1.077395 S    
N21   H58   1.045733 S    
C7    H6    1.080721 S    
C35   C36   1.414171 A    
C65   C66   1.397345 A    
C44   C45   1.418416 A    
C34   N19   1.437030 S    
N12   Ni4   1.868491 S    
C81   H43   1.082854 S    
N15   Ni4   1.856863 S    
C81   C82   1.405539 A    
C1    H1    1.080887 S    
N5    Ni2   1.848507 S    
C61   C62   1.338792 D    
C55   C56   1.404219 A    
C63   C64   1.342841 D    
C14   H44   1.079727 S    
N16   Ni3   1.868874 S    
C20   N16   1.319950 A    
C34   C35   1.407032 A    
C77   C82   1.406805 A    
C52   C53   1.390093 A    
N4    N6    1.392020 A    
C59   H29   1.083243 S    
C44   N20   1.432864 S    
C31   C36   1.360490 A    
C67   C76   1.483555 S    
C47   C48   1.396069 A    
C64   H60   1.082875 S    
C65   C70   1.396492 A    
N18   H52   1.045468 S    
C24   C72   1.462158 S    
C12   C35   1.428015 S    
C4    C12   1.384358 A    
C79   C80   1.398370 A    
C6    C12   1.371901 A    
C40   C41   1.395625 A    
C32   C33   1.409848 A    
C19   C21   1.381242 A    
C26   C27   1.415180 A    
N19   H54   1.045551 S    
H32   C70   1.081797 S    
C5    H5    1.077961 S    
C73   C82   1.481125 S    
C59   C60   1.404502 A    
C50   C51   1.411837 A    
C7    C10   1.372557 A    
C18   N14   1.333746 A    
C23   C50   1.424816 S    
N4    Ni4   1.868874 S    
H13   C30   1.082894 S    
C66   C67   1.405945 A    
C33   C34   1.401452 A    
C77   H39   1.083170 S    
N12   N13   1.382168 A    
C2    N2    1.320089 A    
C51   C60   1.486419 S    
N6    Ni1   1.886778 S    
C17   H11   1.071731 S    
C41   C42   1.405779 A    
C45   C46   1.405124 A    
C6    N6    1.319817 A    
C25   C26   1.400726 A    
C19   N15   1.335470 A    
N14   Ni1   1.886675 S    
H20   C48   1.082677 S    
C29   N18   1.429059 S    
C27   C28   1.404677 A    
C1    N1    1.338787 A    
C31   C32   1.386715 A    
C39   H17   1.080857 S    
C71   C72   1.396531 A    
C29   C30   1.397817 A    
C16   C24   1.397035 A    
C18   C23   1.385160 A    
C58   C59   1.396838 A    
N8    Ni3   1.868491 S    
C14   N10   1.329616 A    
C5    N5    1.333972 A    
C27   C36   1.486557 S    
C13   C21   1.377701 A    
C52   H25   1.086763 S    
C49   C50   1.399563 A    
C15   H9    1.078596 S    
N18   H51   1.045685 S    
C57   C58   1.396067 A    
C17   C24   1.379032 A    
N2    Ni2   1.886676 S    
C66   H34   1.082423 S    
C45   C54   1.484027 S    
C39   C40   1.395269 A    
C61   C63   1.466835 S    
N10   Ni2   1.886779 S    
C67   C68   1.404344 A    
C4    N4    1.330185 A    
C20   C22   1.367936 A    
C43   C44   1.401373 A    
N9    Ni1   1.848509 S    
N20   H56   1.043407 S    
C33   C42   1.486409 S    
C8    N8    1.320325 A    
N11   Ni3   1.857660 S    
C75   C76   1.410231 A    
C77   C78   1.395493 A    
N17   H49   1.043461 S    
C5    C11   1.382834 A    
C18   H12   1.080689 S    
C68   C69   1.397724 A    
C71   H37   1.078383 S    
C47   H23   1.082604 S    
N13   Ni2   1.849015 S    
C43   C48   1.396796 A    
C21   C64   1.448301 S    
C69   C70   1.398434 A    
C72   C73   1.407255 A    
C58   H28   1.080286 S    
C26   N17   1.432010 S    
C25   C30   1.396933 A    
C3    N3    1.341434 A    
C20   H46   1.082135 S    
C13   H8    1.081765 S    
C62   H30   1.079017 S    
C19   H45   1.080787 S    
N9    N15   1.392020 A    
C2    H2    1.082335 S    
C74   C75   1.407122 A    
C28   H50   1.083973 S    
C79   H41   1.080956 S    
C25   H47   1.082194 S    
C22   C32   1.423097 S    
N2    N7    1.382292 A    
C78   H40   1.082344 S    
C65   H33   1.082422 S    
C31   H14   1.087160 S    
C80   C81   1.397789 A    
C73   C74   1.397578 A    
N3    N5    1.392021 A    
C37   H15   1.082508 S    
N7    Ni4   1.857660 S    
C80   H42   1.082502 S    
N20   H55   1.045451 S    
C16   N12   1.340182 A    
C61   H59   1.084253 S    
N10   N16   1.392020 A    
C6    H61   1.075624 S    
C13   N9    1.336277 A    
C49   H24   1.084782 S    
C15   N11   1.317434 A    
C55   N21   1.432473 S    
C7    N7    1.331428 A    
C14   C22   1.371306 A    
C28   C29   1.401483 A    
N21   H57   1.045954 S    
C4    H4    1.080729 S    
C41   H19   1.083257 S    
C10   C53   1.420175 S    
C55   C60   1.412140 A    
C1    C9    1.384379 A    
C56   C57   1.396500 A    
C53   C54   1.404539 A    
C8    C9    1.374655 A    
C37   C38   1.398363 A    
C57   H27   1.081718 S    
C46   C47   1.397351 A    
N17   H48   1.045419 S    
C37   C42   1.407378 A    
C68   H35   1.083315 S    
C8    H7    1.080271 S    
C11   C62   1.453963 S    
C74   H38   1.082655 S    
C49   C54   1.389483 A    
N11   N14   1.382293 A    
C69   H36   1.082417 S    
C63   H31   1.084774 S    
