data_mof_unit_37172.cif
_audit_creation_date              2012-12-10T17:03:42-0500
_audit_creation_method            fapswitch 2.2
_symmetry_space_group_name_H-M    P1
_symmetry_Int_Tables_number       1
_space_group_crystal_system       triclinic
_cell_length_a                    10.020233
_cell_length_b                    10.714552
_cell_length_c                    13.123409
_cell_angle_alpha                 90.112623
_cell_angle_beta                  69.923838
_cell_angle_gamma                 89.954437
_cell_volume                      1323.3429039

loop_
_atom_site_label
_atom_site_type_symbol
_atom_type_description
_atom_site_fract_x
_atom_site_fract_y
_atom_site_fract_z
_atom_type_partial_charge
C1    C     C_R   0.500251 0.737440 0.499772 0.945365
C2    C     C_R   0.429995 0.536760 0.985288 0.107398
C3    C     C_R   0.461126 0.566492 0.875193 0.086924
C4    C     C_R   0.539463 0.549448 0.029720 0.084443
C5    C     C_R   0.668278 0.610346 0.970697 0.124287
C6    C     C_R   0.686836 0.658093 0.868121 -0.227501
C7    C     C_R   0.584294 0.636947 0.820926 -0.205233
C8    C     C_R   0.526266 0.497820 0.129529 -0.335090
C9    C     C_R   0.755600 0.580327 0.121025 0.470381
C10   C     C_R   0.369414 0.522399 0.822007 -0.120580
C11   C     C_2   0.631075 0.064870 0.456867 0.489890
C12   C     C_R   0.421116 0.507838 0.704101 0.856551
C13   C     C_2   0.512149 0.131487 0.472040 -0.386818
C14   C     C_2   0.623432 0.929534 0.451058 -0.293090
C15   C     C_2   0.501470 0.869585 0.500269 -0.369643
C16   C     C_2   0.108642 0.446749 0.424892 -0.126636
C17   C     C_2   0.960164 0.453639 0.421532 -0.112706
C18   C     C_R   0.503254 0.262594 0.493352 0.960265
C19   C     C_R   0.579134 0.500927 0.295450 0.889530
C20   C     C_R   0.776928 0.622099 0.014925 -0.333614
C21   C     C_R   0.626976 0.520122 0.178445 -0.135289
C22   C     C_R   0.233798 0.477987 0.882838 -0.208014
C23   C     C_R   0.193530 0.468473 0.994850 -0.133245
C24   C     C_R   0.291432 0.494171 0.045861 -0.198082
H1    H     H_    0.416663 0.089416 0.466041 0.115562
H2    H     H_    0.721015 0.878164 0.410818 0.169685
H3    H     H_    0.402073 0.915747 0.544506 0.144856
H4    H     H_    0.187346 0.396603 0.359738 0.156932
H5    H     H_    0.076361 0.552209 0.557134 0.156749
H6    H     H_    0.942666 0.416510 0.350196 0.184538
H7    H     H_    0.866794 0.527673 0.568955 0.165667
H8    H     H_    0.782155 0.709178 0.823204 0.144277
H9    H     H_    0.876953 0.664402 0.967289 0.139451
H10   H     H_    0.435466 0.441205 0.172602 0.167866
H11   H     H_    0.160484 0.447188 0.843590 0.163663
H12   H     H_    0.255110 0.482641 0.132785 0.126931
H13   H     H_    0.088329 0.435391 0.041781 0.180827
H14   H     H_    0.602235 0.677049 0.741764 0.168450
N1    N     N_2   0.148270 0.498670 0.498870 -0.185825
N2    N     N_2   0.852610 0.498640 0.498840 -0.193035
O1    O     O_R   0.386950 0.680940 0.500020 -0.612985
O2    O     O_R   0.613110 0.680900 0.499980 -0.625592
O3    O     O_R   0.330780 0.500000 0.653640 -0.614057
O4    O     O_R   0.556930 0.499960 0.653610 -0.612529
O5    O     O_R   0.386890 0.319100 0.500020 -0.624001
O6    O     O_R   0.613050 0.319060 0.499980 -0.525937
O7    O     O_R   0.443070 0.500040 0.346390 -0.624854
O8    O     O_R   0.669220 0.500000 0.346360 -0.570925
Zn1   Zn    Zn3+2 0.349000 0.500030 0.500020 0.934265
Zn2   Zn    Zn3+2 0.651000 0.499970 0.499980 0.972705
O9    O     O_3   0.860767 0.589102 0.167363 -0.646949
C25   C     C_3   0.912439 0.712389 0.162422 0.071426
H15   H     H_    0.824806 0.782507 0.180560 0.131738
H16   H     H_    0.992130 0.730362 0.080762 0.151413
C26   C     C_3   0.985415 0.726799 0.246663 -0.307359
H17   H     H_    0.907006 0.709585 0.328913 0.234661
H18   H     H_    0.071929 0.656585 0.230894 0.225586
C27   C     C_3   0.048123 0.857056 0.243406 -0.981540
H19   H     H_    0.130643 0.874302 0.162964 0.273389
H20   H     H_    0.097908 0.864928 0.306805 0.269817
H21   H     H_    0.963596 0.929052 0.259010 0.262949
O10   O     O_3   0.758226 0.122227 0.448338 -0.740682
H22   H     H_    0.831358 0.056961 0.440392 0.323375

loop_
_geom_bond_atom_site_label_1
_geom_bond_atom_site_label_2
_ccdc_geom_bond_type
C16   H4    S    
C2    C4    A    
C23   C24   A    
C6    C7    A    
C1    C15   S    
C23   H13   S    
O6    Zn2   S    
C9    C20   A    
C15   H3    S    
C9    O9    S    
C25   C26   S    
O5    Zn1   S    
C26   H17   S    
C11   O10   S    
C9    C21   A    
H5    N1    S    
C27   H21   S    
O8    Zn2   S    
C2    C3    A    
C27   H19   S    
O7    Zn1   S    
C3    C10   A    
C8    H10   S    
C10   C22   A    
C17   H6    S    
C11   C13   D    
C13   H1    S    
C24   H12   S    
C10   C12   S    
C13   C18   S    
O2    Zn2   S    
N2    Zn2   S    
C20   H9    S    
C18   O6    A    
O1    Zn1   S    
N1    Zn1   S    
C7    H14   S    
C25   H16   S    
C8    C21   A    
C12   O3    A    
C3    C7    A    
C26   H18   S    
C2    C24   A    
C5    C6    A    
C11   C14   S    
C19   O7    A    
C22   H11   S    
C16   N1    D    
C27   H20   S    
O9    C25   S    
C18   O5    A    
C1    O2    A    
C25   H15   S    
C12   O4    A    
C6    H8    S    
C26   C27   S    
O4    Zn2   S    
C4    C8    A    
C5    C20   A    
C14   C15   D    
O3    Zn1   S    
C19   C21   S    
H7    N2    S    
C19   O8    A    
C22   C23   A    
C14   H2    S    
O10   H22   S    
C1    O1    A    
C16   C17   S    
C4    C5    A    
C17   N2    D    
