data_mof_unit_33972.cif
_audit_creation_date              2012-12-10T17:33:03-0500
_audit_creation_method            fapswitch 2.2
_symmetry_space_group_name_H-M    P1
_symmetry_Int_Tables_number       1
_space_group_crystal_system       triclinic
_cell_length_a                    12.351025
_cell_length_b                    13.218119
_cell_length_c                    14.263267
_cell_angle_alpha                 93.135352
_cell_angle_beta                  107.812189
_cell_angle_gamma                 117.006676
_cell_volume                      1923.07434478

loop_
_atom_site_label
_atom_site_type_symbol
_atom_type_description
_atom_site_fract_x
_atom_site_fract_y
_atom_site_fract_z
_atom_type_partial_charge
C1    C     C_R   0.654012 0.715714 0.513342 0.769138
C2    C     C_R   0.830240 0.469142 0.911793 0.090439
C3    C     C_R   0.765147 0.461817 0.979714 0.172487
C4    C     C_R   0.939978 0.451324 0.939113 0.065302
C5    C     C_R   0.993984 0.442588 0.039619 0.070677
C6    C     C_R   0.923621 0.430977 0.103951 -0.236403
C7    C     C_R   0.810021 0.438694 0.073569 -0.245721
C8    C     C_R   0.996370 0.440351 0.869080 -0.227084
C9    C     C_R   0.109218 0.431668 0.899177 -0.235948
C10   C     C_R   0.172077 0.437610 0.000314 0.168166
C11   C     C_R   0.116085 0.444781 0.071950 0.088884
C12   C     C_R   0.617129 0.514659 0.686492 0.788251
C13   C     C_R   0.291768 0.438429 0.030932 -0.201542
C14   C     C_R   0.359493 0.451251 0.132703 -0.204395
C15   C     C_R   0.187719 0.460347 0.174424 -0.255206
C16   C     C_R   0.125561 0.971089 0.348101 -0.196588
C17   C     C_R   0.246803 0.162017 0.459690 -0.047549
C18   C     C_R   0.752593 0.927804 0.598080 0.148290
C19   C     C_R   0.843596 0.045151 0.611106 -0.125412
C20   C     C_R   0.933494 0.076937 0.564584 -0.238710
C21   C     C_R   0.934571 0.992866 0.500278 0.079105
C22   C     C_R   0.829713 0.877298 0.471570 0.026215
C23   C     C_R   0.344836 0.285098 0.484272 0.800706
C24   C     C_R   0.035854 0.021424 0.462305 0.050133
C25   C     C_R   0.023452 0.939284 0.385286 0.129294
C26   C     C_R   0.908656 0.828943 0.346519 0.121188
C27   C     C_R   0.813074 0.800511 0.388882 -0.220069
C28   C     C_R   0.151353 0.129629 0.501396 -0.233069
C29   C     C_R   0.235517 0.081870 0.384397 -0.199800
C30   C     C_R   0.743596 0.841912 0.525655 -0.157442
C31   C     C_R   0.253405 0.681584 0.664864 -0.296011
C32   C     C_R   0.654818 0.343684 0.362212 0.071058
C33   C     C_R   0.732540 0.309872 0.331343 -0.263202
C34   C     C_R   0.380115 0.481300 0.313069 0.795134
C35   C     C_R   0.867762 0.368051 0.383465 -0.197984
C36   C     C_R   0.927660 0.461784 0.467626 -0.018046
C37   C     C_R   0.843674 0.493762 0.496265 0.281718
C38   C     C_R   0.067286 0.525933 0.523495 -0.038152
C39   C     C_R   0.118736 0.618723 0.607376 0.176468
C40   C     C_R   0.035822 0.648718 0.633646 -0.288655
C41   C     C_R   0.901990 0.588521 0.578980 -0.196037
C42   C     C_R   0.159360 0.502957 0.500320 0.021015
C43   C     C_R   0.337808 0.653547 0.639097 0.051764
C44   C     C_R   0.672771 0.507550 0.790988 -0.050355
C45   C     C_R   0.308749 0.464362 0.205097 -0.049767
C46   C     C_R   0.655391 0.477383 0.952749 -0.205840
C47   C     C_R   0.608655 0.499094 0.858428 -0.197473
C48   C     C_R   0.785101 0.496820 0.819530 -0.254103
Cu1   Cu    Cu3+1 0.416420 0.526630 0.522910 0.923551
Cu2   Cu    Cu3+1 0.583580 0.473370 0.477090 0.921402
H1    H     H_    0.758902 0.429465 0.125051 0.151670
H2    H     H_    0.334201 0.431387 0.976353 0.128050
H3    H     H_    0.308832 0.106355 0.350656 0.145865
H4    H     H_    0.120771 0.912707 0.289015 0.150778
H5    H     H_    0.170022 0.191807 0.564645 0.143689
H6    H     H_    0.999460 0.169256 0.578803 0.139248
H7    H     H_    0.849631 0.114457 0.659982 0.157284
H8    H     H_    0.724077 0.717580 0.354824 0.168679
H9    H     H_    0.441250 0.700506 0.684538 0.121249
H10   H     H_    0.153373 0.473963 0.232294 0.148600
H11   H     H_    0.075002 0.720385 0.697276 0.154669
H12   H     H_    0.293204 0.751863 0.729789 0.139337
H13   H     H_    0.128771 0.434361 0.437522 0.119838
H14   H     H_    0.550065 0.297787 0.321112 0.121994
H15   H     H_    0.922978 0.338117 0.356254 0.133759
H16   H     H_    0.687711 0.238180 0.266619 0.145571
H17   H     H_    0.847987 0.620016 0.604457 0.205169
H18   H     H_    0.452697 0.453332 0.154860 0.146394
H19   H     H_    0.149673 0.423830 0.843346 0.144599
H20   H     H_    0.604697 0.471146 0.004092 0.126092
H21   H     H_    0.521070 0.506649 0.837526 0.150992
H22   H     H_    0.836558 0.511460 0.768436 0.151146
H23   H     H_    0.952233 0.412735 0.177558 0.143096
H24   H     H_    0.953476 0.434909 0.789519 0.152156
N1    N     N_R   0.290690 0.566960 0.557640 -0.176610
N2    N     N_R   0.709100 0.433710 0.442970 -0.200679
O1    O     O_R   0.545970 0.684450 0.528810 -0.584978
O2    O     O_R   0.687130 0.639470 0.490120 -0.591772
O3    O     O_R   0.519670 0.535100 0.660030 -0.588005
O4    O     O_R   0.660830 0.490120 0.621340 -0.596686
O5    O     O_R   0.312870 0.360530 0.509880 -0.584821
O6    O     O_R   0.454030 0.315550 0.471190 -0.581501
O7    O     O_R   0.339170 0.509880 0.378660 -0.582065
O8    O     O_R   0.480330 0.464900 0.339970 -0.595429
C49   C     C_3   0.886842 0.737468 0.263153 -0.415984
C50   C     C_3   0.964319 0.676422 0.305319 -0.804342
H25   H     H_    0.069015 0.739709 0.349528 0.252031
H26   H     H_    0.922124 0.622807 0.355119 0.262190
H27   H     H_    0.958733 0.618973 0.242566 0.247072
H28   H     H_    0.781540 0.670052 0.227550 0.196616
H29   H     H_    0.913383 0.776886 0.201204 0.196875
C51   C     C_3   0.666957 0.894301 0.661505 -0.378293
C52   C     C_3   0.700803 0.990757 0.747860 -0.883042
H30   H     H_    0.804682 0.029884 0.799565 0.259955
H31   H     H_    0.681524 0.059080 0.717593 0.256624
H32   H     H_    0.637968 0.952879 0.792154 0.243486
H33   H     H_    0.563866 0.861566 0.610826 0.225694
H34   H     H_    0.674656 0.823821 0.696989 0.203921

loop_
_geom_bond_atom_site_label_1
_geom_bond_atom_site_label_2
_ccdc_geom_bond_type
C52   H30   S    
C23   O6    A    
C17   C29   A    
C15   H10   S    
C35   C36   A    
C4    C8    A    
C49   H29   S    
Cu2   O8    S    
C41   H17   S    
C49   C50   S    
C19   H7    S    
C42   N1    A    
C17   C23   S    
C31   C43   A    
C36   C37   A    
C9    H19   S    
C38   C42   A    
C3    C7    A    
C38   C39   A    
C50   H26   S    
C35   H15   S    
C12   O3    A    
C1    O1    A    
C18   C19   A    
Cu1   O5    S    
C51   C52   S    
C11   C15   A    
C19   C20   A    
Cu1   O1    S    
C8    C9    A    
C33   H16   S    
Cu1   N1    S    
C18   C30   A    
C23   O5    A    
C9    C10   A    
C44   C47   A    
C43   H9    S    
C52   H31   S    
C10   C13   A    
C21   C22   A    
C1    O2    A    
C31   H12   S    
C34   O8    A    
C48   H22   S    
Cu2   O2    S    
C28   H5    S    
C51   H33   S    
C14   C45   A    
C43   N1    A    
C51   H34   S    
C24   C25   A    
C32   H14   S    
C39   C40   A    
C50   H25   S    
C2    C48   A    
C16   C29   A    
C50   H27   S    
C40   H11   S    
Cu1   O3    S    
C2    C4    A    
Cu2   N2    S    
C13   H2    S    
C8    H24   S    
C26   C27   A    
C34   C45   S    
C47   H21   S    
C40   C41   A    
C37   N2    A    
C52   H32   S    
C22   C27   A    
C34   O7    A    
C15   C45   A    
Cu2   O6    S    
C6    H23   S    
C16   C25   A    
C46   C47   A    
C22   C30   A    
C17   C28   A    
C24   C28   A    
C4    C5    A    
C27   H8    S    
Cu2   O4    S    
C32   N2    A    
C49   H28   S    
C5    C11   A    
C6    C7    A    
C3    C46   A    
C18   C51   S    
C32   C33   A    
Cu1   O7    S    
C36   C38   A    
C2    C3    A    
C25   C26   A    
C7    H1    S    
C12   C44   S    
C5    C6    A    
C29   H3    S    
C26   C49   S    
C12   O4    A    
C1    C30   S    
C33   C35   A    
C31   C39   A    
C20   H6    S    
C37   C41   A    
C16   H4    S    
C46   H20   S    
C10   C11   A    
C20   C21   A    
Cu1   Cu2   S    
C21   C24   A    
C14   H18   S    
C13   C14   A    
C42   H13   S    
C44   C48   A    
