data_mof_unit_11286.cif
_audit_creation_date              2012-12-11T20:10:11-0500
_audit_creation_method            fapswitch 2.2
_symmetry_space_group_name_H-M    P1
_symmetry_Int_Tables_number       1
_space_group_crystal_system       triclinic
_cell_length_a                    8.389862
_cell_length_b                    16.304694
_cell_length_c                    18.938033
_cell_angle_alpha                 112.589169
_cell_angle_beta                  92.636368
_cell_angle_gamma                 82.771504
_cell_volume                      2372.8497424

loop_
_atom_site_label
_atom_site_type_symbol
_atom_type_description
_atom_site_fract_x
_atom_site_fract_y
_atom_site_fract_z
_atom_type_partial_charge
Ba1   Ba    Ba6+2 0.333520 0.539550 0.472180 1.574329
Ba2   Ba    Ba6+2 0.856270 0.460520 0.527840 1.811848
C1    C     C_3   0.031834 0.849674 0.338922 0.230888
C2    C     C_3   0.045418 0.761609 0.350902 0.315825
C3    C     C_3   0.037716 0.312903 0.283500 0.338223
C4    C     C_3   0.020276 0.279883 0.197461 -0.243226
C5    C     C_3   0.671025 0.237942 0.676333 0.755462
C6    C     C_3   0.706755 0.185532 0.728615 0.407461
C7    C     C_3   0.175665 0.238923 0.682997 1.035105
C8    C     C_3   0.281624 0.224097 0.745685 -0.381420
C9    C     C_R   0.509355 0.461568 0.041157 -0.090979
C10   C     C_R   0.430164 0.417573 0.078393 0.171114
C11   C     C_R   0.291189 0.377232 0.044379 0.376469
C12   C     C_3   0.538905 0.725079 0.308469 0.423124
C13   C     C_R   0.223805 0.390778 0.979323 -0.114923
C14   C     C_R   0.303675 0.432503 0.941586 -0.072799
C15   C     C_R   0.448415 0.466491 0.971289 0.102994
C16   C     C_R   0.243809 0.436341 0.872412 -0.021150
C17   C     C_R   0.333274 0.466681 0.827803 -0.030081
C18   C     C_R   0.475931 0.504560 0.858315 0.067195
C19   C     C_R   0.532332 0.504709 0.930759 0.031933
C20   C     C_R   0.287918 0.456497 0.752330 -0.023949
C21   C     C_R   0.380751 0.486785 0.709269 -0.385019
C22   C     C_R   0.514629 0.532362 0.739854 0.152105
C23   C     C_3   0.493931 0.741719 0.236007 -0.311495
C24   C     C_R   0.564278 0.540155 0.815990 -0.119004
C25   C     C_R   0.652445 0.497748 0.072098 0.064906
C26   C     C_R   0.711257 0.495954 0.143471 0.079401
C27   C     C_R   0.626482 0.457193 0.184428 0.021812
C28   C     C_R   0.492167 0.413631 0.148177 -0.104487
C29   C     C_R   0.701692 0.579611 0.850764 -0.051309
C30   C     C_R   0.761316 0.576614 0.920641 -0.046555
C31   C     C_R   0.676479 0.539279 0.961061 0.099232
C32   C     C_R   0.736878 0.535853 0.031376 -0.159853
C33   C     C_R   0.907905 0.608347 0.949498 -0.107684
C34   C     C_3   0.493620 0.745454 0.780471 0.953413
C35   C     C_R   0.970636 0.604497 0.018593 0.401065
C36   C     C_R   0.883743 0.568920 0.060059 0.174965
C37   C     C_R   0.855897 0.532497 0.173124 -0.075183
C38   C     C_R   0.942351 0.565611 0.129629 -0.035014
C39   C     C_R   0.910459 0.535590 0.245682 0.104617
C40   C     C_R   0.821439 0.502544 0.288213 0.118250
C41   C     C_R   0.680244 0.463142 0.259576 0.006998
C42   C     C_2   0.386504 0.232560 0.488371 -0.325265
C43   C     C_R   0.776323 0.772260 0.541545 0.131914
C44   C     C_2   0.252010 0.111861 0.394008 -0.081826
C45   C     C_3   0.573099 0.804847 0.854312 -0.034896
C46   C     C_2   0.257826 0.199682 0.431905 0.088885
C47   C     C_2   0.520726 0.178204 0.489300 0.092749
C48   C     C_3   0.538792 0.081816 0.431815 0.068570
C49   C     C_3   0.375949 0.044856 0.407166 0.082723
C50   C     C_2   0.660304 0.020225 0.455335 -0.108744
C51   C     C_2   0.618950 0.953025 0.472273 0.053308
C52   C     C_R   0.881556 0.919723 0.529990 0.059338
C53   C     C_R   0.734808 0.892272 0.495762 -0.181389
C54   C     C_R   0.983033 0.867736 0.562061 0.326904
C55   C     C_R   0.935660 0.787638 0.561552 0.038468
C56   C     C_3   0.514113 0.252354 0.299357 0.782306
C57   C     C_R   0.687696 0.812944 0.496495 -0.002063
C58   C     C_3   0.507371 0.159979 0.233985 1.161349
C59   C     C_3   0.125191 0.665662 0.712510 0.573244
C60   C     C_3   0.089058 0.691791 0.797574 0.772829
H1    H     H_    0.130796 0.765814 0.398370 0.096970
H2    H     H_    0.479089 0.837923 0.899100 0.093596
H3    H     H_    0.661047 0.763437 0.875936 0.102122
H4    H     H_    0.391261 0.288738 0.308758 -0.096458
H5    H     H_    0.254151 0.643323 0.700255 -0.207527
H6    H     H_    0.057439 0.608549 0.680281 0.007660
H7    H     H_    0.146675 0.856989 0.315870 0.112429
H8    H     H_    0.130893 0.632392 0.811758 -0.080554
H9    H     H_    0.925602 0.751921 0.366961 0.018682
H10   H     H_    0.009563 0.906342 0.394634 0.041459
H11   H     H_    0.916411 0.333754 0.309555 0.094940
H12   H     H_    0.109440 0.370510 0.302475 0.069231
H13   H     H_    0.946310 0.223368 0.176688 0.125293
H14   H     H_    0.963236 0.334419 0.180151 0.069279
H15   H     H_    0.141506 0.256576 0.171764 0.187184
H16   H     H_    0.575087 0.696798 0.188550 0.106966
H17   H     H_    0.542382 0.235792 0.659025 -0.191117
H18   H     H_    0.837124 0.181029 0.742611 0.036474
H19   H     H_    0.640338 0.221040 0.783396 -0.007063
H20   H     H_    0.253642 0.251498 0.642611 -0.296651
H21   H     H_    0.362244 0.276978 0.768991 0.026662
H22   H     H_    0.356272 0.158389 0.722101 0.159345
H23   H     H_    0.523974 0.654382 0.297388 0.073154
H24   H     H_    0.206514 0.224658 0.792729 0.140591
H25   H     H_    0.111585 0.365228 0.956121 0.082967
H26   H     H_    0.342387 0.479130 0.651963 0.078010
H27   H     H_    0.130853 0.410550 0.852056 0.086874
H28   H     H_    0.432661 0.377799 0.174707 0.173659
H29   H     H_    0.767091 0.609989 0.822348 0.153783
H30   H     H_    0.975300 0.634696 0.917469 0.095706
H31   H     H_    0.057025 0.589097 0.149323 0.166209
H32   H     H_    0.666501 0.736468 0.321432 0.029380
H33   H     H_    0.158860 0.087948 0.351953 0.098146
H34   H     H_    0.379145 0.303588 0.523228 0.080160
H35   H     H_    0.785978 0.029982 0.456248 0.147016
H36   H     H_    0.493252 0.943916 0.471647 0.112386
H37   H     H_    0.368226 0.728202 0.219706 0.170358
H38   H     H_    0.505704 0.812233 0.245354 0.170914
H39   H     H_    0.438667 0.697398 0.796867 -0.157348
O1    O     O_2   0.402610 0.439360 0.314250 -0.455425
O2    O     O_3   0.079648 0.740005 0.692839 -0.597171
O3    O     O_3   0.438525 0.783960 0.368669 -0.627618
O4    O     O_2   0.787080 0.560670 0.685800 -0.403182
O5    O     O_3   0.541120 0.553770 0.595290 -0.419928
O6    O     O_3   0.080800 0.396070 0.612520 -0.442009
O7    O     O_3   0.605577 0.703182 0.719403 -0.602447
O8    O     O_3   0.164600 0.390590 0.443970 -0.461331
O9    O     O_3   0.682580 0.347920 0.567870 -0.420958
O10   O     O_2   0.839452 0.191029 0.481174 -0.422159
O11   O     O_3   0.773178 0.197976 0.612675 -0.547839
O12   O     O_3   0.648560 0.446300 0.404730 -0.403630
O13   O     O_3   0.025080 0.609480 0.556050 -0.418556
O14   O     O_2   0.948320 0.280590 0.426090 -0.372726
O15   O     O_3   0.116458 0.242962 0.301961 -0.593343
O16   O     O_2   0.959677 0.477448 0.750251 -0.455089
O17   O     O_3   0.057092 0.311546 0.717481 -0.549093
O18   O     O_3   0.108870 0.604000 0.387500 -0.416195
O19   O     O_2   0.245536 0.531343 0.250304 -0.410993
O20   O     O_3   0.622213 0.297175 0.278113 -0.690680
O21   O     O_3   0.103238 0.691702 0.283346 -0.598573
O22   O     O_2   0.241370 0.719440 0.573960 -0.377646
O23   O     O_3   0.507090 0.652150 0.432150 -0.430527
O24   O     O_2   0.355803 0.811985 0.507273 -0.401519
P1    P     P_3+3 0.582960 0.413890 0.320860 1.150877
P2    P     P_3+3 0.071690 0.707860 0.593450 1.146645
P3    P     P_3+3 0.498440 0.766632 0.452131 1.108609
P4    P     P_3+3 0.606720 0.586180 0.679160 1.145675
P5    P     P_3+3 0.699177 0.230628 0.538529 1.058884
P6    P     P_3+3 0.091989 0.589084 0.291285 1.087470
P7    P     P_3+3 0.126002 0.278123 0.401320 1.134914
P8    P     P_3+3 0.101399 0.409292 0.708063 1.024214
O25   O     O_3   0.647410 0.870675 0.842214 -0.743888
H40   H     H_    0.695707 0.905597 0.891898 0.349995
O26   O     O_3   0.571017 0.240254 0.365616 -0.730341
H41   H     H_    0.557972 0.300175 0.407609 0.283312
O27   O     O_3   0.441269 0.173582 0.167675 -0.689311
C61   C     C_3   0.557416 0.171649 0.115028 -0.104247
H42   H     H_    0.660488 0.208308 0.142848 0.132154
H43   H     H_    0.499827 0.204333 0.077207 0.160157
H44   H     H_    0.600248 0.101500 0.078045 0.116076
O28   O     O_3   0.402074 0.114485 0.258620 -0.707229
C62   C     C_3   0.384066 0.028159 0.203680 0.269527
H45   H     H_    0.484711 0.979175 0.208143 0.068559
H46   H     H_    0.373500 0.025525 0.144129 0.053021
H47   H     H_    0.271836 0.007128 0.216531 0.097670
O29   O     O_3   0.664687 0.113410 0.222994 -0.726969
H48   H     H_    0.664633 0.056517 0.177910 0.292876
O30   O     O_3   0.165333 0.767202 0.843427 -0.591754
C63   C     C_3   0.173689 0.774004 0.919972 -0.073229
H49   H     H_    0.255183 0.717253 0.925088 0.097922
H50   H     H_    0.052518 0.778392 0.943505 0.126814
H51   H     H_    0.224569 0.836566 0.955260 0.161674
O31   O     O_3   0.923364 0.712010 0.808860 -0.788721
H52   H     H_    0.892356 0.767724 0.799672 0.367572
O32   O     O_3   0.903956 0.854237 0.289725 -0.709250
H53   H     H_    0.941490 0.815702 0.237087 0.391107
O33   O     O_3   0.702345 0.326532 0.715695 -0.711981
H54   H     H_    0.620327 0.353691 0.756576 0.242175
O34   O     O_3   0.658304 0.099740 0.694033 -0.771927
H55   H     H_    0.735817 0.064851 0.652217 0.318931
O35   O     O_3   0.096069 0.161673 0.647027 -0.629776
C64   C     C_3   0.163016 0.108491 0.574652 -0.128892
H56   H     H_    0.295154 0.091442 0.577957 0.157115
H57   H     H_    0.133819 0.143201 0.534850 0.135921
H58   H     H_    0.107936 0.045136 0.551587 0.167320
O36   O     O_3   0.221588 0.326589 0.076521 -0.646379
C65   C     C_3   0.181587 0.245577 0.019346 -0.043589
H59   H     H_    0.268936 0.217323 0.970869 0.121057
H60   H     H_    0.057872 0.255401 0.998151 0.159585
H61   H     H_    0.183707 0.194230 0.044366 0.135233
O37   O     O_3   0.116489 0.634787 0.046355 -0.708938
H62   H     H_    0.164404 0.654039 0.009260 0.298001
O38   O     O_3   0.877387 0.506532 0.358947 -0.641969
C66   C     C_3   0.812378 0.588721 0.414239 0.463985
H63   H     H_    0.733812 0.579860 0.454688 0.159424
H64   H     H_    0.769114 0.640741 0.391146 -5.201844
H65   H     H_    0.901487 0.618685 0.454349 0.091524
O39   O     O_3   0.122606 0.898747 0.597901 -0.585290
C67   C     C_3   0.087105 0.955121 0.674542 0.101952
H66   H     H_    0.030671 0.920083 0.705332 0.117413
H67   H     H_    0.008944 0.016848 0.678013 0.130995
H68   H     H_    0.201180 0.975746 0.704188 0.110365
O40   O     O_3   0.694721 0.735800 0.581131 -0.647848
C68   C     C_3   0.602075 0.807900 0.637778 0.411831
H69   H     H_    0.569789 0.870469 0.626815 0.028471
H70   H     H_    0.667952 0.827852 0.692783 0.069991
H71   H     H_    0.485749 0.785423 0.641416 0.158828
O41   O     O_3   0.368503 0.796520 0.758383 -0.735441
H72   H     H_    0.403103 0.854988 0.765031 0.317713

loop_
_geom_bond_atom_site_label_1
_geom_bond_atom_site_label_2
_ccdc_geom_bond_type
C42   C47   D    
O5    P4    S    
Ba2   O8    S    
O41   H72   S    
C53   C57   A    
C34   O7    S    
O19   P6    D    
C61   H43   S    
C65   H59   S    
C50   H35   S    
C17   C18   A    
C38   H31   S    
C28   H28   S    
O16   P8    D    
O34   H55   S    
C5    C6    S    
C37   C39   A    
C67   H66   S    
C5    O11   S    
C10   C11   A    
C2    H1    S    
C43   C55   A    
O32   H53   S    
C34   O41   S    
C5    H17   S    
C26   C27   A    
C1    H7    S    
C35   C36   A    
C22   C24   A    
Ba1   Ba2   S    
C6    O34   S    
C58   O28   S    
C54   O39   S    
C3    C4    S    
C61   H44   S    
C5    O33   S    
C56   C58   S    
O28   C62   S    
C8    H21   S    
Ba2   P4    S    
C60   O31   S    
C60   H8    S    
C34   C45   S    
C16   C17   A    
Ba1   O18   S    
C63   H51   S    
C3    H12   S    
C7    O35   S    
O10   P5    D    
Ba1   O8    S    
C12   O3    S    
C22   P4    S    
C23   H37   S    
C66   H65   S    
C8    H24   S    
C44   H33   S    
O35   C64   S    
C14   C15   A    
O15   P7    S    
O24   P3    D    
C48   C50   S    
C21   C22   A    
C66   H63   S    
O2    P2    S    
C7    C8    S    
C7    H20   S    
O23   P3    S    
C10   C28   A    
C33   H30   S    
C66   H64   S    
C39   C40   A    
C24   C29   A    
C27   C41   A    
C63   H50   S    
C7    O17   S    
C65   H60   S    
Ba1   O12   S    
C62   H47   S    
C41   P1    S    
C56   H4    S    
C48   C49   S    
C44   C46   D    
O14   P7    D    
C51   C53   S    
C25   C32   A    
C52   C54   A    
C20   P8    S    
C23   H16   S    
C30   C33   A    
C4    H13   S    
C17   C20   A    
O29   H48   S    
C62   H46   S    
C45   O25   S    
C67   H67   S    
C37   C38   A    
C39   P6    S    
O26   H41   S    
C4    H15   S    
O4    P4    D    
O12   P1    S    
C26   C37   A    
C56   O26   S    
C57   P3    S    
O37   H62   S    
C44   C49   S    
Ba2   O5    S    
C15   C19   A    
C6    H19   S    
C34   H39   S    
Ba1   O22   S    
O1    P1    D    
C27   C28   A    
C42   H34   S    
Ba2   O14   S    
C59   H5    S    
C23   H38   S    
O22   P2    D    
O33   H54   S    
O3    P3    S    
C9    C25   A    
C63   H49   S    
O8    P7    S    
C31   C32   A    
C2    O21   S    
Ba1   P1    S    
O7    P4    S    
O17   P8    S    
C14   C16   A    
O36   C65   S    
C29   H29   S    
C21   H26   S    
C11   C13   A    
C3    O15   S    
Ba2   O6    S    
C65   H61   S    
C40   C41   A    
C68   H70   S    
C1    C2    S    
O21   P6    S    
C45   H2    S    
C50   C51   D    
C33   C35   A    
C13   H25   S    
O18   P6    S    
C67   H68   S    
C54   C55   A    
C52   C53   A    
C64   H56   S    
C56   O20   S    
C60   O30   S    
C59   O2    S    
C32   C36   A    
C16   H27   S    
C29   C30   A    
Ba1   P2    S    
C12   H23   S    
C62   H45   S    
C11   O36   S    
C9    C15   A    
C55   P2    S    
C1    O32   S    
C61   H42   S    
C4    H14   S    
O25   H40   S    
C51   H36   S    
C47   P5    S    
Ba1   O5    S    
Ba2   O4    S    
O30   C63   S    
C40   O38   S    
C30   C31   A    
C68   H71   S    
C64   H57   S    
C1    H10   S    
Ba1   O23   S    
O20   P1    S    
O6    P8    S    
O38   C66   S    
C36   C38   A    
O13   P2    S    
Ba2   O13   S    
C59   H6    S    
C43   O40   S    
O40   C68   S    
C18   C24   A    
C8    H22   S    
Ba2   O12   S    
C45   H3    S    
O9    P5    S    
C64   H58   S    
C12   C23   S    
C3    H11   S    
C59   C60   S    
O27   C61   S    
C35   O37   S    
C42   C46   S    
C19   C31   A    
C18   C19   A    
C43   C57   A    
C47   C48   S    
Ba1   O13   S    
O31   H52   S    
C6    H18   S    
C20   C21   A    
C46   P7    S    
C58   O29   S    
O11   P5    S    
C68   H69   S    
Ba1   O1    S    
C12   H32   S    
C2    H9    S    
O39   C67   S    
C13   C14   A    
C9    C10   A    
C58   O27   S    
C25   C26   A    
Ba2   O9    S    
