data_mof_unit_17077.cif
_audit_creation_date              2012-12-10T17:03:40-0500
_audit_creation_method            fapswitch 2.2
_symmetry_space_group_name_H-M    P1
_symmetry_Int_Tables_number       1
_space_group_crystal_system       triclinic
_cell_length_a                    10.02178
_cell_length_b                    10.544081
_cell_length_c                    13.029476
_cell_angle_alpha                 89.857659
_cell_angle_beta                  70.759297
_cell_angle_gamma                 88.311658
_cell_volume                      1299.32200224

loop_
_atom_site_label
_atom_site_type_symbol
_atom_type_description
_atom_site_fract_x
_atom_site_fract_y
_atom_site_fract_z
_atom_type_partial_charge
C1    C     C_R   0.491691 0.737443 0.515576 0.844732
C2    C     C_R   0.439715 0.423618 0.984540 0.065783
C3    C     C_R   0.475341 0.414033 0.870525 0.090443
C4    C     C_R   0.547588 0.401331 0.030907 0.053523
C5    C     C_R   0.690355 0.392580 0.962816 0.145154
C6    C     C_R   0.720436 0.362539 0.853533 -0.244833
C7    C     C_R   0.611191 0.363392 0.809855 -0.211652
C8    C     C_R   0.520536 0.395681 0.143066 0.024289
C9    C     C_R   0.763176 0.453014 0.114572 -0.184146
C10   C     C_R   0.377728 0.462241 0.820709 -0.105257
C11   C     C_2   0.556709 0.072284 0.577520 -0.084955
C12   C     C_R   0.423268 0.488541 0.703804 0.854386
C13   C     C_2   0.508919 0.126984 0.503118 -0.294053
C14   C     C_2   0.567624 0.933722 0.582233 0.122052
C15   C     C_2   0.465530 0.866235 0.560697 -0.235660
C16   C     C_2   0.086052 0.400134 0.481061 -0.236253
C17   C     C_2   0.945821 0.406435 0.462444 -0.002774
C18   C     C_R   0.502821 0.261439 0.498545 0.916591
C19   C     C_R   0.577578 0.488448 0.296474 0.886399
C20   C     C_R   0.798692 0.415278 0.005903 -0.203503
C21   C     C_R   0.622273 0.446891 0.183076 -0.102173
C22   C     C_R   0.240127 0.499281 0.885109 -0.191362
C23   C     C_R   0.202950 0.501538 0.997568 -0.140999
C24   C     C_R   0.302997 0.469367 0.046772 -0.174626
H1    H     H_    0.844998 0.483363 0.145535 0.176856
H2    H     H_    0.473252 0.073369 0.446505 0.113514
H3    H     H_    0.142875 0.309292 0.470185 0.173947
H4    H     H_    0.099362 0.585715 0.498514 0.161919
H5    H     H_    0.874881 0.565830 0.547467 0.151410
H6    H     H_    0.827833 0.340592 0.801750 0.157029
H7    H     H_    0.908462 0.412993 0.954285 0.148717
H8    H     H_    0.163672 0.534016 0.848426 0.155985
H9    H     H_    0.274151 0.488433 0.132584 0.144397
H10   H     H_    0.098809 0.536393 0.046516 0.140760
H11   H     H_    0.637195 0.330879 0.726861 0.172342
H12   H     H_    0.592099 0.130150 0.631887 0.125329
N1    N     N_2   0.148270 0.498670 0.498870 -0.184005
N2    N     N_2   0.852610 0.498640 0.498840 -0.197082
O1    O     O_R   0.386950 0.680940 0.500020 -0.619858
O2    O     O_R   0.613110 0.680900 0.499980 -0.613810
O3    O     O_R   0.330780 0.500000 0.653640 -0.597330
O4    O     O_R   0.556930 0.499960 0.653610 -0.627319
O5    O     O_R   0.386890 0.319100 0.500020 -0.611843
O6    O     O_R   0.613050 0.319060 0.499980 -0.592708
O7    O     O_R   0.443070 0.500040 0.346390 -0.617942
O8    O     O_R   0.669220 0.500000 0.346360 -0.544789
Zn1   Zn    Zn3+2 0.349000 0.500030 0.500020 0.933292
Zn2   Zn    Zn3+2 0.651000 0.499970 0.499980 0.958455
C25   C     C_3   0.702405 0.872928 0.593679 -0.382885
C26   C     C_3   0.783761 0.958279 0.646527 -0.397115
C27   C     C_3   0.909544 0.885974 0.662614 -0.853427
H13   H     H_    0.872875 0.804406 0.717865 0.258141
H14   H     H_    0.982888 0.850445 0.583282 0.244599
H15   H     H_    0.967564 0.950187 0.699281 0.282141
H16   H     H_    0.824340 0.041165 0.593690 0.221132
H17   H     H_    0.712446 0.992819 0.727048 0.233941
H18   H     H_    0.673020 0.787395 0.645526 0.224811
H19   H     H_    0.774873 0.844319 0.511741 0.216862
C28   C     C_2   0.316282 0.917338 0.589770 0.377253
H20   H     H_    0.247046 0.882879 0.547883 0.074203
O9    O     O_2   0.268335 0.995056 0.663069 -0.562333
C29   C     C_2   0.918215 0.299084 0.400644 0.470480
H21   H     H_    0.958168 0.204662 0.410473 -0.000752
O10   O     O_2   0.859525 0.315553 0.333131 -0.550836
C30   C     C_3   0.409126 0.306916 0.214360 -0.380550
C31   C     C_3   0.396443 0.183355 0.156164 -0.351188
C32   C     C_3   0.298868 0.091624 0.234763 -0.884198
H22   H     H_    0.341056 0.065635 0.301110 0.249900
H23   H     H_    0.191410 0.135585 0.270468 0.260597
H24   H     H_    0.291102 0.003811 0.190475 0.259358
H25   H     H_    0.352752 0.203786 0.089708 0.240250
H26   H     H_    0.502730 0.136716 0.120480 0.232666
H27   H     H_    0.440650 0.277345 0.285195 0.213333
H28   H     H_    0.304282 0.355633 0.248156 0.205244

loop_
_geom_bond_atom_site_label_1
_geom_bond_atom_site_label_2
_ccdc_geom_bond_type
H5    N2    S    
C2    C4    A    
C23   C24   A    
C19   O7    A    
C6    C7    A    
C1    C15   S    
C24   H9    S    
C18   O6    A    
C17   C29   S    
N1    Zn1   S    
C32   H24   S    
C22   H8    S    
C9    C20   A    
N2    Zn2   S    
C26   H16   S    
C29   O10   D    
C16   N1    D    
C4    C8    A    
C27   H15   S    
C23   H10   S    
C16   H3    S    
C2    C3    A    
O3    Zn1   S    
C19   O8    A    
C9    H1    S    
C28   H20   S    
C30   C31   S    
C3    C10   A    
O4    Zn2   S    
C18   O5    A    
C10   C22   A    
C31   H26   S    
C11   C13   D    
C9    C21   A    
C27   H13   S    
C29   H21   S    
O5    Zn1   S    
C13   C18   S    
C10   C12   S    
C7    H11   S    
C11   H12   S    
C19   C21   S    
C26   C27   S    
C3    C7    A    
C17   N2    D    
O7    Zn1   S    
C2    C24   A    
C5    C6    A    
C11   C14   S    
O8    Zn2   S    
C13   H2    S    
C28   O9    D    
C14   C25   S    
C25   H19   S    
C1    O1    A    
C27   H14   S    
C32   H22   S    
O6    Zn2   S    
C8    C30   S    
C25   H18   S    
C12   O3    A    
O1    Zn1   S    
C25   C26   S    
C30   H27   S    
C31   C32   S    
C5    C20   A    
O2    Zn2   S    
C14   C15   D    
C16   C17   S    
C12   O4    A    
C1    O2    A    
C6    H6    S    
C22   C23   A    
C15   C28   S    
C26   H17   S    
C30   H28   S    
C31   H25   S    
H4    N1    S    
C4    C5    A    
C32   H23   S    
C20   H7    S    
C8    C21   A    
