data_mof_unit_16422.cif
_audit_creation_date              2012-12-11T15:15:42-0500
_audit_creation_method            fapswitch 2.2
_symmetry_space_group_name_H-M    P1
_symmetry_Int_Tables_number       1
_space_group_crystal_system       triclinic
_cell_length_a                    20.858319
_cell_length_b                    22.709785
_cell_length_c                    6.956903
_cell_angle_alpha                 89.931174
_cell_angle_beta                  87.4656
_cell_angle_gamma                 90.014655
_cell_volume                      3292.17513034

loop_
_atom_site_label
_atom_site_type_symbol
_atom_type_description
_atom_site_fract_x
_atom_site_fract_y
_atom_site_fract_z
_atom_type_partial_charge
O1    O     O_R   0.387100 0.552640 0.378490 -0.553612
O2    O     O_R   0.612900 0.052640 0.621510 -0.545829
O3    O     O_R   0.249610 0.559600 0.072250 -0.523602
O4    O     O_R   0.750390 0.059600 0.927750 -0.526887
O5    O     O_R   0.249120 0.447360 0.902040 -0.534997
O6    O     O_R   0.750880 0.947360 0.097960 -0.524192
C1    C     C_R   0.227292 0.573635 0.242734 0.749487
C2    C     C_R   0.774058 0.072302 0.757693 0.776537
O7    O     O_R   0.386610 0.559560 0.048860 -0.538265
O8    O     O_R   0.613390 0.059560 0.951140 -0.545246
O9    O     O_R   0.387100 0.447320 0.878470 -0.544905
O10   O     O_R   0.612900 0.947320 0.121530 -0.553324
C3    C     C_R   0.407245 0.575043 0.215407 0.706011
C4    C     C_R   0.592850 0.075118 0.783912 0.703673
O11   O     O_R   0.249120 0.552680 0.402050 -0.512412
O12   O     O_R   0.750880 0.052680 0.597950 -0.518326
O13   O     O_3   0.318110 0.463180 0.223790 -0.375105
O14   O     O_3   0.681890 0.963180 0.776210 -0.365584
V1    V     V_3+5 0.318110 0.506830 0.948930 1.534886
V2    V     V_3+5 0.681890 0.006830 0.051070 1.530194
O15   O     O_R   0.386610 0.440400 0.548840 -0.551222
O16   O     O_R   0.613390 0.940400 0.451160 -0.545714
C5    C     C_R   0.407731 0.425496 0.715248 0.796124
C6    C     C_R   0.591735 0.925883 0.285506 0.815093
O17   O     O_R   0.249610 0.440440 0.572240 -0.514003
O18   O     O_R   0.750390 0.940440 0.427760 -0.508750
C7    C     C_R   0.227172 0.426615 0.743336 0.796990
C8    C     C_R   0.773520 0.927353 0.256475 0.779322
V3    V     V_3+5 0.318110 0.493170 0.448930 1.531112
V4    V     V_3+5 0.681890 0.993170 0.551070 1.553471
O19   O     O_3   0.318110 0.536820 0.723940 -0.370612
O20   O     O_3   0.681890 0.036820 0.276060 -0.376416
C9    C     C_R   0.172059 0.385018 0.756609 -0.250715
C10   C     C_R   0.830694 0.888167 0.241758 -0.251406
C11   C     C_R   0.168690 0.336908 0.627450 -0.000115
C12   C     C_R   0.837271 0.840369 0.370785 -0.005722
C13   C     C_R   0.115523 0.299621 0.635653 -0.236134
C14   C     C_R   0.893114 0.806601 0.363767 -0.248968
C15   C     C_R   0.065044 0.308084 0.771727 0.039314
C16   C     C_R   0.943197 0.817783 0.228129 0.039477
C17   C     C_R   0.069519 0.353262 0.909210 0.407185
C18   C     C_R   0.936876 0.864072 0.095660 0.416056
C19   C     C_R   0.121533 0.393019 0.897782 -0.115999
C20   C     C_R   0.881718 0.900022 0.104674 -0.116796
C21   C     C_R   0.900516 0.187930 0.869668 -0.159325
C22   C     C_R   0.110443 0.697232 0.131548 -0.166683
C23   C     C_R   0.846048 0.152357 0.892210 -0.101111
C24   C     C_R   0.163090 0.659277 0.112952 -0.099345
C25   C     C_R   0.879485 0.100449 0.596328 0.463863
C26   C     C_R   0.123894 0.606983 0.402932 0.470853
C27   C     C_R   0.932915 0.138202 0.575621 -0.226032
C28   C     C_R   0.072247 0.646726 0.419653 -0.230074
C29   C     C_R   0.943314 0.182135 0.710620 0.081921
C30   C     C_R   0.065115 0.691460 0.284568 0.081889
C31   C     C_2   0.005437 0.272598 0.767449 -0.164491
C32   C     C_2   0.003299 0.782654 0.225525 -0.155883
C33   C     C_2   0.002495 0.217966 0.693607 -0.189501
C34   C     C_2   0.006239 0.727599 0.296411 -0.187235
C35   C     C_R   0.832742 0.109927 0.747462 -0.242514
C36   C     C_R   0.171787 0.614755 0.254413 -0.249158
H1    H     H_    0.044409 0.197762 0.623669 0.140381
H2    H     H_    0.964015 0.706941 0.363061 0.141392
H3    H     H_    0.911018 0.218576 0.983329 0.142989
H4    H     H_    0.103407 0.729532 0.019717 0.137178
H5    H     H_    0.962242 0.292113 0.832473 0.174388
H6    H     H_    0.046221 0.802517 0.159814 0.172429
H7    H     H_    0.113097 0.265158 0.529012 0.125667
H8    H     H_    0.897619 0.772501 0.470997 0.134990
H9    H     H_    0.967051 0.132632 0.455154 0.123910
H10   H     H_    0.036713 0.642065 0.536980 0.120943
C37   C     C_R   0.573311 0.362865 0.757494 -0.212867
C38   C     C_R   0.425357 0.861302 0.304030 -0.232587
H11   H     H_    0.620933 0.379897 0.779912 0.186093
H12   H     H_    0.376543 0.877104 0.321282 0.176886
C39   C     C_R   0.460985 0.382593 0.720820 -0.257168
C40   C     C_R   0.538643 0.882418 0.283867 -0.243600
C41   C     C_R   0.477130 0.091883 0.782702 -0.327710
C42   C     C_R   0.522490 0.592810 0.173044 -0.345442
C43   C     C_R   0.422700 0.127021 0.774218 0.395320
C44   C     C_R   0.577132 0.628079 0.169410 0.410108
C45   C     C_R   0.428241 0.188619 0.769493 0.436146
C46   C     C_R   0.571706 0.689170 0.197069 0.429397
C47   C     C_R   0.489923 0.216319 0.743863 -0.093202
C48   C     C_R   0.511039 0.715817 0.250823 -0.090164
C49   C     C_R   0.545241 0.178650 0.750563 -0.060213
C50   C     C_R   0.456006 0.677534 0.261253 -0.059674
C51   C     C_R   0.499667 0.279421 0.723714 -0.061712
C52   C     C_R   0.501377 0.778604 0.282953 -0.059091
C53   C     C_R   0.563033 0.301988 0.736104 -0.070646
C54   C     C_R   0.437444 0.800254 0.305344 -0.066382
C55   C     C_R   0.616215 0.264210 0.726134 0.472893
C56   C     C_R   0.385647 0.761240 0.333985 0.478872
C57   C     C_R   0.606860 0.203179 0.730037 -0.217346
C58   C     C_R   0.395451 0.700690 0.313890 -0.205729
C59   C     C_R   0.450540 0.322012 0.687642 0.382494
C60   C     C_R   0.551396 0.821576 0.302252 0.376525
C61   C     C_R   0.522476 0.402679 0.758609 0.370663
C62   C     C_R   0.475356 0.902445 0.279044 0.372229
C63   C     C_R   0.538115 0.116650 0.776350 -0.102384
C64   C     C_R   0.462246 0.616380 0.218151 -0.113269
H13   H     H_    0.471628 0.044569 0.795861 0.147072
H14   H     H_    0.527028 0.546433 0.138358 0.175222
H15   H     H_    0.648417 0.174751 0.717588 0.092422
H16   H     H_    0.354844 0.671632 0.339552 0.100680
C65   C     C_2   0.219713 0.323035 0.481210 0.778267
O21   O     O_2   0.254011 0.280219 0.504047 -0.537644
O22   O     O_R   0.225438 0.356084 0.311710 -0.639752
H17   H     H_    0.260818 0.341181 0.219809 0.267462
C66   C     C_2   0.787050 0.822632 0.515019 0.778981
O23   O     O_2   0.760165 0.775255 0.497504 -0.546389
O24   O     O_R   0.774845 0.856990 0.679023 -0.629109
H18   H     H_    0.741390 0.838993 0.771283 0.269971
O25   O     O_3   0.532800 0.461430 0.799592 -0.550467
C67   C     C_3   0.556395 0.489858 0.630660 -0.237248
H19   H     H_    0.522448 0.485690 0.512250 0.124326
H20   H     H_    0.604524 0.472693 0.583806 0.136082
H21   H     H_    0.561709 0.537480 0.661638 0.169511
O26   O     O_3   0.464346 0.962883 0.281176 -0.559770
C68   C     C_3   0.415743 0.978662 0.155985 -0.247989
H22   H     H_    0.367479 0.971450 0.225752 0.140364
H23   H     H_    0.420593 0.955170 0.015546 0.139888
H24   H     H_    0.419846 0.026500 0.125802 0.179905
O27   O     O_3   0.676671 0.288273 0.687788 -0.561649
C69   C     C_3   0.719943 0.269010 0.823893 -0.172410
H25   H     H_    0.698076 0.269147 0.973041 0.159365
H26   H     H_    0.761348 0.299707 0.821407 0.182128
H27   H     H_    0.738897 0.224847 0.784042 0.135240
O28   O     O_3   0.327125 0.782607 0.406259 -0.556563
C70   C     C_3   0.279523 0.772777 0.272821 -0.188032
H28   H     H_    0.295190 0.787979 0.125837 0.167375
H29   H     H_    0.236301 0.798584 0.317918 0.170936
H30   H     H_    0.265253 0.725726 0.272533 0.140907
O29   O     O_3   0.394627 0.307086 0.601551 -0.511771
C71   C     C_3   0.408767 0.299556 0.403496 -0.114661
H31   H     H_    0.435968 0.258069 0.376035 0.113162
H32   H     H_    0.435311 0.337824 0.338424 0.091738
H33   H     H_    0.362884 0.296438 0.330925 0.156833
O30   O     O_3   0.610309 0.806929 0.370319 -0.518113
C72   C     C_3   0.601886 0.795312 0.568435 -0.124089
H34   H     H_    0.575335 0.753368 0.594431 0.117782
H35   H     H_    0.577385 0.832268 0.647304 0.090835
H36   H     H_    0.649619 0.790511 0.628205 0.165755
O31   O     O_3   0.371796 0.219771 0.794068 -0.490609
C73   C     C_3   0.363890 0.235927 0.988639 -0.090370
H37   H     H_    0.403093 0.265887 0.029287 0.065365
H38   H     H_    0.361511 0.196639 0.084667 0.121204
H39   H     H_    0.317940 0.260165 0.009031 0.154917
O32   O     O_3   0.627734 0.720840 0.172691 -0.493334
C74   C     C_3   0.633514 0.740510 0.981368 -0.092498
H40   H     H_    0.593391 0.770622 0.949161 0.066037
H41   H     H_    0.635906 0.703021 0.878308 0.133164
H42   H     H_    0.678882 0.765698 0.962471 0.152971
O33   O     O_3   0.362453 0.101645 0.791181 -0.540455
C75   C     C_3   0.349061 0.074980 0.614395 -0.172864
H43   H     H_    0.381064 0.036636 0.583682 0.142547
H44   H     H_    0.352734 0.107208 0.493490 0.142627
H45   H     H_    0.299022 0.058332 0.623673 0.163657
O34   O     O_3   0.636617 0.604645 0.116355 -0.531107
C76   C     C_3   0.655511 0.564804 0.258864 -0.161574
H46   H     H_    0.628237 0.522900 0.251781 0.116992
H47   H     H_    0.650525 0.584186 0.405882 0.125097
H48   H     H_    0.706958 0.554076 0.231041 0.170945
C77   C     C_2   0.807832 0.160422 0.075421 0.750537
O35   O     O_2   0.790906 0.209836 0.125100 -0.586038
O36   O     O_R   0.798177 0.113519 0.202823 -0.607378
H49   H     H_    0.773056 0.125861 0.324074 0.304530
C78   C     C_2   0.205239 0.666813 0.937661 0.767716
O37   O     O_2   0.234097 0.713084 0.910073 -0.582348
O38   O     O_R   0.207054 0.623551 0.795204 -0.603397
H50   H     H_    0.235591 0.635108 0.679546 0.301789
O39   O     O_3   0.872432 0.053498 0.471311 -0.527047
C79   C     C_3   0.927252 0.016850 0.469647 -0.108673
H51   H     H_    0.947730 0.011943 0.613809 0.113423
H52   H     H_    0.964638 0.033525 0.364850 0.152826
H53   H     H_    0.913297 0.972178 0.423554 0.168522
O40   O     O_3   0.128581 0.560092 0.530112 -0.520025
C80   C     C_3   0.071188 0.526873 0.540311 -0.089275
H54   H     H_    0.047482 0.524284 0.400032 0.116109
H55   H     H_    0.037430 0.545084 0.652943 0.127235
H56   H     H_    0.082816 0.481121 0.582402 0.186486
O41   O     O_3   0.019985 0.362258 0.045283 -0.555177
C81   C     C_3   0.028680 0.323796 0.201516 -0.190635
H57   H     H_    0.077277 0.328522 0.259429 0.165816
H58   H     H_    0.020357 0.277208 0.160548 0.123302
H59   H     H_    0.993133 0.335051 0.319036 0.175319
O42   O     O_3   0.986569 0.876573 0.963271 -0.554460
C82   C     C_3   0.975747 0.845479 0.792281 -0.248911
H60   H     H_    0.975429 0.797034 0.816952 0.138645
H61   H     H_    0.015432 0.855381 0.685738 0.174951
H62   H     H_    0.930244 0.859508 0.728333 0.162925
C83   C     C_2   0.118908 0.445459 0.024042 0.833386
O43   O     O_2   0.111817 0.439677 0.198312 -0.552303
O44   O     O_R   0.122752 0.501570 0.942331 -0.650385
H63   H     H_    0.113646 0.533765 0.040007 0.289084
C84   C     C_2   0.881978 0.952976 0.981192 0.827626
O45   O     O_2   0.850723 0.953904 0.836790 -0.541052
O46   O     O_R   0.920233 0.000908 0.027495 -0.659124
H64   H     H_    0.916201 0.035196 0.935975 0.286786

loop_
_geom_bond_atom_site_label_1
_geom_bond_atom_site_label_2
_ccdc_geom_bond_type
C34   H2    S    
C47   C51   A    
O39   C79   S    
C52   C60   A    
O36   H49   S    
O11   V3    S    
C42   H14   S    
O13   V3    S    
O38   H50   S    
C41   H13   S    
O24   H18   S    
C59   O29   S    
C44   O34   S    
O4    C2    A    
V1    O19   S    
O28   C70   S    
C57   H15   S    
C71   H33   S    
C67   H19   S    
C39   C59   A    
C4    C63   S    
C78   O38   S    
C38   C62   A    
O41   C81   S    
C7    C9    S    
C65   O22   S    
O9    V1    S    
C49   C63   A    
C46   O32   S    
C11   C13   A    
C48   C50   A    
O25   C67   S    
O3    C1    A    
C66   O24   S    
C2    C35   S    
C60   O30   S    
C9    C11   A    
C72   H36   S    
C42   C44   A    
C43   O33   S    
C40   C62   A    
O31   C73   S    
C39   C61   A    
C38   C54   A    
C26   O40   S    
C21   C23   A    
O7    C3    A    
O26   C68   S    
C82   H62   S    
C50   C58   A    
C31   H5    S    
O5    C7    A    
C49   C57   A    
O7    V1    S    
O6    C8    A    
C77   O35   D    
C28   C30   A    
C16   C32   S    
C51   C59   A    
C26   C28   A    
O22   H17   S    
C76   H47   S    
O3    V1    S    
O14   V4    S    
C53   C55   A    
C50   C64   A    
C75   H44   S    
C79   H53   S    
C70   H30   S    
C23   C77   S    
C18   O42   S    
C16   C18   A    
C58   H16   S    
C80   H55   S    
C2    O12   A    
C55   O27   S    
C17   C19   A    
O10   V2    S    
C18   C20   A    
C73   H39   S    
C56   O28   S    
C56   C58   A    
C45   C47   A    
C79   H52   S    
C24   C36   A    
C22   C24   A    
C41   C43   A    
O15   C5    A    
O17   V3    S    
C15   C31   S    
C23   C35   A    
C83   O43   D    
C9    C19   A    
O27   C69   S    
C10   C20   A    
O32   C74   S    
C75   H45   S    
C38   H12   S    
O8    C4    A    
C74   H42   S    
O8    V2    S    
C78   O37   D    
C37   H11   S    
C29   C33   S    
C6    C40   S    
C71   H32   S    
C1    O11   A    
C25   C27   A    
O15   V3    S    
C21   H3    S    
C22   H4    S    
C27   C29   A    
C81   H59   S    
C83   O44   S    
C11   C65   S    
V4    O20   S    
C55   C57   A    
C37   C61   A    
C54   C56   A    
C76   H46   S    
C37   C53   A    
C68   H22   S    
C80   H56   S    
C22   C30   A    
O1    V3    S    
C76   H48   S    
C17   O41   S    
C75   H43   S    
C68   H23   S    
C80   H54   S    
C69   H27   S    
C73   H38   S    
O40   C80   S    
C47   C49   A    
C14   H8    S    
O18   V4    S    
C46   C48   A    
C31   C33   D    
C42   C64   A    
O34   C76   S    
O16   C6    A    
O1    C3    A    
C61   O25   S    
C12   C14   A    
C19   C83   S    
C1    C36   S    
C5    C39   S    
C79   H51   S    
C69   H26   S    
C70   H28   S    
C30   C34   S    
C68   H24   S    
C20   C84   S    
O16   V4    S    
C77   O36   S    
O18   C8    A    
C48   C52   A    
C52   C54   A    
C73   H37   S    
C67   H20   S    
C72   H34   S    
C33   H1    S    
C71   H31   S    
O5    V1    S    
O17   C7    A    
C15   C17   A    
O6    V2    S    
C65   O21   D    
O10   C6    A    
C43   C45   A    
C25   C35   A    
O2    V4    S    
C26   C36   A    
C3    C64   S    
C74   H41   S    
O33   C75   S    
C82   H60   S    
C13   C15   A    
V2    O20   S    
C74   H40   S    
C40   C60   A    
C14   C16   A    
C72   H35   S    
O29   C71   S    
C24   C78   S    
C32   H6    S    
C21   C29   A    
C13   H7    S    
C62   O26   S    
O9    C5    A    
O13   V1    S    
C44   C46   A    
C32   C34   D    
C41   C63   A    
O14   V2    S    
C8    C10   S    
O46   H64   S    
O2    C4    A    
C81   H58   S    
C82   H61   S    
C67   H21   S    
C28   H10   S    
O30   C72   S    
C25   O39   S    
C84   O45   D    
O4    V2    S    
C45   O31   S    
C10   C12   A    
V3    O19   S    
O44   H63   S    
C12   C66   S    
C51   C53   A    
C27   H9    S    
C70   H29   S    
O42   C82   S    
C66   O23   D    
O12   V4    S    
C81   H57   S    
C69   H25   S    
C84   O46   S    
