data_mof_unit_11898.cif
_audit_creation_date              2012-12-10T20:38:16-0500
_audit_creation_method            fapswitch 2.2
_symmetry_space_group_name_H-M    P1
_symmetry_Int_Tables_number       1
_space_group_crystal_system       triclinic
_cell_length_a                    9.869788
_cell_length_b                    10.678414
_cell_length_c                    16.731367
_cell_angle_alpha                 90.760001
_cell_angle_beta                  85.04212
_cell_angle_gamma                 89.537144
_cell_volume                      1756.55282675

loop_
_atom_site_label
_atom_site_type_symbol
_atom_type_description
_atom_site_fract_x
_atom_site_fract_y
_atom_site_fract_z
_atom_type_partial_charge
C1    C     C_R   0.500101 0.740213 0.496313 0.906575
C2    C     C_R   0.347364 0.525714 0.784816 -0.234512
C3    C     C_R   0.448927 0.679238 0.160312 -0.261416
C4    C     C_R   0.430798 0.632783 0.238019 0.518561
C5    C     C_R   0.648139 0.521659 0.214803 -0.287091
C6    C     C_R   0.663135 0.566161 0.137000 -0.166072
C7    C     C_R   0.561174 0.641073 0.109005 0.123702
C8    C     C_2   0.452142 0.609969 0.988104 -0.196642
C9    C     C_2   0.559053 0.655500 0.022941 -0.210827
C10   C     C_R   0.530619 0.551347 0.264745 -0.141832
C11   C     C_R   0.380871 0.937628 0.475630 0.157070
C12   C     C_R   0.481698 0.497426 0.653632 0.895024
C13   C     C_R   0.501986 0.871228 0.480213 -0.108203
C14   C     C_R   0.626391 0.933597 0.466112 -0.183876
C15   C     C_R   0.627376 0.063351 0.466726 -0.230280
C16   C     C_R   0.503639 0.128782 0.480230 -0.106538
C17   C     C_R   0.381921 0.065514 0.475575 0.123988
C18   C     C_3   0.251163 0.076746 0.527136 -0.461562
C19   C     C_3   0.249853 0.935128 0.527393 -0.480132
C20   C     C_R   0.918324 0.537205 0.566685 0.102516
C21   C     C_R   0.937776 0.452351 0.436752 -0.154395
C22   C     C_R   0.081655 0.452439 0.436724 -0.128312
C23   C     C_R   0.501065 0.259953 0.496251 0.863604
C24   C     C_R   0.061013 0.534318 0.567676 0.049468
C25   C     C_3   0.059525 0.658741 0.610073 0.145488
C26   C     C_3   0.905729 0.663163 0.606980 0.186152
C27   C     C_R   0.518790 0.508518 0.347237 0.883376
C28   C     C_R   0.473338 0.504507 0.741390 -0.178761
C29   C     C_R   0.592638 0.501035 0.782505 0.519044
C30   C     C_R   0.585564 0.536637 0.862789 -0.237702
C31   C     C_R   0.460789 0.572102 0.903560 0.119912
C32   C     C_R   0.341029 0.560344 0.865388 -0.172407
H1    H     H_    0.750031 0.535961 0.097183 0.136827
H2    H     H_    0.722485 0.883635 0.460692 0.204009
H3    H     H_    0.724084 0.111135 0.462820 0.175205
H4    H     H_    0.263605 0.119200 0.587106 0.207141
H5    H     H_    0.168588 0.118412 0.494575 0.208084
H6    H     H_    0.261767 0.896016 0.587692 0.219602
H7    H     H_    0.166154 0.896029 0.494615 0.203372
H8    H     H_    0.891554 0.415854 0.385080 0.142402
H9    H     H_    0.143537 0.415767 0.385100 0.148796
H10   H     H_    0.116309 0.730067 0.574490 0.158721
H11   H     H_    0.845683 0.662032 0.666253 0.193040
H12   H     H_    0.726618 0.461587 0.235399 0.163514
H13   H     H_    0.653651 0.677563 0.988285 0.151453
H14   H     H_    0.243003 0.580569 0.897442 0.144810
H15   H     H_    0.373464 0.741508 0.138661 0.147276
H16   H     H_    0.254332 0.518642 0.756056 0.216400
H17   H     H_    0.358969 0.587475 0.024456 0.146050
H18   H     H_    0.678431 0.534445 0.892680 0.144296
N1    N     N_R   0.857140 0.500860 0.500530 -0.088053
N2    N     N_R   0.142780 0.500820 0.500530 -0.103509
O1    O     O_R   0.385310 0.683210 0.499990 -0.606914
O2    O     O_R   0.614650 0.683240 0.500000 -0.578676
O3    O     O_R   0.371780 0.500000 0.615800 -0.598371
O4    O     O_R   0.601120 0.500040 0.615800 -0.560688
O5    O     O_R   0.385350 0.316760 0.500000 -0.621164
O6    O     O_R   0.614690 0.316790 0.500010 -0.624845
O7    O     O_R   0.398880 0.499960 0.384200 -0.581648
O8    O     O_R   0.628220 0.500000 0.384200 -0.636594
Zn1   Zn    Zn3+2 0.346870 0.499980 0.499990 0.977552
Zn2   Zn    Zn3+2 0.653130 0.500020 0.500010 0.980639
O9    O     O_3   0.718668 0.471788 0.743991 -0.626660
C33   C     C_3   0.738262 0.341105 0.746807 -0.318245
H19   H     H_    0.659882 0.290030 0.715474 0.164570
H20   H     H_    0.738736 0.308872 0.809792 0.158166
H21   H     H_    0.838903 0.317331 0.715300 0.191172
O10   O     O_3   0.098769 0.651873 0.688618 -0.762776
H22   H     H_    0.044467 0.585759 0.717406 0.327691
O11   O     O_3   0.323892 0.676193 0.290594 -0.593446
C34   C     C_3   0.199464 0.635246 0.264187 -0.313391
H23   H     H_    0.201020 0.532767 0.250644 0.143618
H24   H     H_    0.172391 0.688701 0.211252 0.151866
H25   H     H_    0.117936 0.653188 0.312983 0.192197
O12   O     O_3   0.862734 0.758480 0.557421 -0.753360
H26   H     H_    0.917408 0.752954 0.504722 0.315953

loop_
_geom_bond_atom_site_label_1
_geom_bond_atom_site_label_2
_ccdc_geom_bond_type
C10   C27   S    
O6    Zn2   S    
C23   O6    A    
C29   O9    S    
C9    H13   S    
C1    O2    A    
C4    O11   S    
N1    Zn2   S    
C11   C19   S    
C12   C28   S    
O8    Zn2   S    
C28   C29   A    
C18   H5    S    
C20   N1    A    
C3    C7    A    
C24   N2    A    
C5    C6    A    
C22   H9    S    
C15   C16   A    
C2    C32   A    
C18   C19   S    
C1    O1    A    
O10   H22   S    
O1    Zn1   S    
C20   C24   A    
C16   C17   A    
O11   C34   S    
C27   O8    A    
C30   H18   S    
C21   C22   A    
C25   O10   S    
C15   H3    S    
C26   H11   S    
C17   C18   S    
O7    Zn1   S    
C33   H21   S    
C24   C25   S    
C34   H24   S    
C8    C9    D    
O2    Zn2   S    
C2    H16   S    
C25   C26   S    
C33   H20   S    
O12   H26   S    
C29   C30   A    
C19   H6    S    
C31   C32   A    
C26   O12   S    
C12   O4    A    
C19   H7    S    
C5    H12   S    
C16   C23   S    
O4    Zn2   S    
C1    C13   S    
C4    C10   A    
C3    C4    A    
C21   N1    A    
C22   N2    A    
C23   O5    A    
C11   C17   A    
C8    C31   S    
C32   H14   S    
C25   H10   S    
C14   H2    S    
C34   H25   S    
O5    Zn1   S    
C6    C7    A    
C6    H1    S    
N2    Zn1   S    
C33   H19   S    
C5    C10   A    
C27   O7    A    
C11   C13   A    
C30   C31   A    
C21   H8    S    
C20   C26   S    
O3    Zn1   S    
C3    H15   S    
C12   O3    A    
O9    C33   S    
C7    C9    S    
C34   H23   S    
C14   C15   A    
C2    C28   A    
C13   C14   A    
C18   H4    S    
C8    H17   S    
