data_mof_unit_5313.cif
_audit_creation_date              2012-12-10T17:59:45-0500
_audit_creation_method            fapswitch 2.2
_symmetry_space_group_name_H-M    P1
_symmetry_Int_Tables_number       1
_space_group_crystal_system       triclinic
_cell_length_a                    10.820629
_cell_length_b                    9.601806
_cell_length_c                    15.914576
_cell_angle_alpha                 90.023889
_cell_angle_beta                  93.014056
_cell_angle_gamma                 89.978625
_cell_volume                      1651.19837058

loop_
_atom_site_label
_atom_site_type_symbol
_atom_type_description
_atom_site_fract_x
_atom_site_fract_y
_atom_site_fract_z
_atom_type_partial_charge
C1    C     C_R   0.262302 0.500014 0.499722 0.782221
C2    C     C_3   0.645242 0.528747 0.956211 0.319216
C3    C     C_3   0.642301 0.541176 0.058330 0.263236
C4    C     C_1   0.502906 0.500040 0.824104 -0.001424
C5    C     C_1   0.502211 0.498419 0.175997 0.029338
C6    C     C_1   0.501016 0.499595 0.251294 -0.211184
C7    C     C_R   0.063908 0.373438 0.499629 -0.189891
C8    C     C_R   0.063838 0.626570 0.499907 -0.188986
C9    C     C_R   0.936108 0.373425 0.499828 -0.191384
C10   C     C_R   0.936039 0.626549 0.500094 -0.191297
C11   C     C_R   0.871647 0.499979 0.500092 -0.010919
C12   C     C_R   0.128312 0.500014 0.499723 -0.017068
C13   C     C_R   0.422090 0.073986 0.446280 -0.081915
C14   C     C_R   0.422088 0.926022 0.446283 -0.084259
C15   C     C_R   0.499821 0.499951 0.340524 0.823533
C16   C     C_R   0.579430 0.925491 0.554741 0.296837
C17   C     C_R   0.579437 0.074514 0.554735 0.296828
C18   C     C_R   0.737689 0.499985 0.500156 0.764839
C19   C     C_R   0.500666 0.500029 0.659498 0.812546
C20   C     C_3   0.405747 0.606703 0.045890 0.232971
C21   C     C_3   0.475501 0.346310 0.046822 0.291974
C22   C     C_3   0.452933 0.347337 0.948091 0.242307
C23   C     C_3   0.409730 0.621264 0.946066 0.298404
C24   C     C_1   0.501948 0.500092 0.748779 -0.209874
C25   C     C_3   0.504958 0.497788 0.083759 -0.061721
C26   C     C_3   0.503133 0.499711 0.916593 0.069698
Cu1   Cu    Cu3+1 0.500020 0.640660 0.500000 0.935637
Cu2   Cu    Cu3+1 0.500020 0.359340 0.500000 0.938500
H1    H     H_    0.564870 0.295057 0.055458 0.129136
H2    H     H_    0.431550 0.708339 0.075424 0.095934
H3    H     H_    0.111948 0.274451 0.499399 0.150724
H4    H     H_    0.111824 0.725562 0.499907 0.150578
H5    H     H_    0.888128 0.274445 0.499677 0.153824
H6    H     H_    0.888007 0.725526 0.500152 0.153601
H7    H     H_    0.359178 0.129193 0.402957 0.135121
H8    H     H_    0.359172 0.870824 0.402961 0.135018
N1    N     N_R   0.500030 0.852070 0.500020 -0.171386
N2    N     N_R   0.500030 0.147930 0.500020 -0.171380
O1    O     O_R   0.319660 0.618740 0.500000 -0.585297
O2    O     O_R   0.319660 0.381260 0.500000 -0.585629
O3    O     O_R   0.500020 0.618840 0.379440 -0.574431
O4    O     O_R   0.500020 0.381160 0.379440 -0.566337
O5    O     O_R   0.680370 0.618830 0.500010 -0.592146
O6    O     O_R   0.680370 0.381170 0.500010 -0.591911
O7    O     O_R   0.500010 0.618730 0.620560 -0.578572
O8    O     O_R   0.500010 0.381270 0.620560 -0.579023
C27   C     C_3   0.277240 0.615827 0.896731 -0.746814
H9    H     H_    0.198286 0.593839 0.935826 0.242981
H10   H     H_    0.246915 0.713998 0.864934 0.205506
H11   H     H_    0.274099 0.543955 0.842617 0.211889
C28   C     C_3   0.314133 0.316391 0.924892 -0.764595
H12   H     H_    0.249542 0.383891 0.955672 0.238306
H13   H     H_    0.295028 0.318278 0.855643 0.215157
H14   H     H_    0.288402 0.210287 0.945979 0.233439
C29   C     C_3   0.669966 0.853697 0.617306 -0.806226
H15   H     H_    0.672771 0.741276 0.617769 0.273408
H16   H     H_    0.766158 0.884346 0.605076 0.189689
H17   H     H_    0.648933 0.882814 0.682501 0.199034
C30   C     C_3   0.669995 0.146317 0.617284 -0.806131
H18   H     H_    0.672864 0.258734 0.617701 0.273333
H19   H     H_    0.648924 0.117384 0.682485 0.199030
H20   H     H_    0.766176 0.115502 0.605070 0.189686
O9    O     O_3   0.286174 0.567276 0.069843 -0.613845
C31   C     C_3   0.221213 0.680423 0.103508 0.042193
H21   H     H_    0.218341 0.770868 0.059603 0.156874
H22   H     H_    0.265764 0.712262 0.165178 0.153854
C32   C     C_3   0.088998 0.635637 0.117223 -0.846860
H23   H     H_    0.088878 0.545824 0.161192 0.246019
H24   H     H_    0.037185 0.723205 0.144387 0.212424
H25   H     H_    0.042009 0.604856 0.056310 0.237358
O10   O     O_3   0.405472 0.246003 0.091403 -0.581167
C33   C     C_3   0.293426 0.287803 0.126024 0.185527
H26   H     H_    0.221005 0.314649 0.077622 0.172259
H27   H     H_    0.304877 0.374009 0.171315 0.185720
C34   C     C_3   0.243932 0.165449 0.174821 -0.884418
H28   H     H_    0.311769 0.135299 0.226460 0.253977
H29   H     H_    0.155422 0.194780 0.202463 0.204340
H30   H     H_    0.227271 0.074888 0.132235 0.246955
C35   C     C_3   0.518133 0.217969 0.906551 -0.829334
H31   H     H_    0.453091 0.136786 0.880998 0.234328
H32   H     H_    0.570032 0.246680 0.851178 0.230798
H33   H     H_    0.578733 0.156971 0.951188 0.206407
C36   C     C_3   0.450512 0.773236 0.924089 -0.888429
H34   H     H_    0.373325 0.849168 0.927814 0.222687
H35   H     H_    0.514682 0.822936 0.969364 0.204546
H36   H     H_    0.484567 0.779685 0.859592 0.253045
C37   C     C_3   0.678672 0.689122 0.094310 -0.831117
H37   H     H_    0.678944 0.690415 0.164147 0.233843
H38   H     H_    0.773929 0.718159 0.078042 0.236617
H39   H     H_    0.618822 0.775707 0.074938 0.199406
C38   C     C_3   0.745514 0.449448 0.106191 -0.820484
H40   H     H_    0.743622 0.336242 0.094833 0.200866
H41   H     H_    0.839115 0.484491 0.089958 0.235818
H42   H     H_    0.742734 0.460646 0.175545 0.234490
C39   C     C_3   0.709706 0.658006 0.915586 -0.797912
H43   H     H_    0.684966 0.761423 0.937509 0.221745
H44   H     H_    0.811282 0.658053 0.930459 0.215725
H45   H     H_    0.697104 0.657302 0.845945 0.224917
C40   C     C_3   0.735417 0.410125 0.929613 -0.849703
H46   H     H_    0.731025 0.395371 0.860314 0.230830
H47   H     H_    0.833795 0.434503 0.947207 0.228001
H48   H     H_    0.721751 0.309788 0.960188 0.218021

loop_
_geom_bond_atom_site_label_1
_geom_bond_atom_site_label_2
_ccdc_geom_bond_type
C29   H15   S    
C11   C18   S    
C39   H43   S    
C37   H37   S    
C19   O8    A    
C27   H10   S    
C20   H2    S    
Cu2   O8    S    
C23   C36   S    
C21   O10   S    
C36   H34   S    
C2    C39   S    
C22   C35   S    
C13   H7    S    
C14   H8    S    
C5    C6    T    
C4    C24   T    
C20   C25   S    
Cu2   O2    S    
C3    C38   S    
C23   C26   S    
C1    O2    A    
C6    C15   S    
C40   H46   S    
Cu1   O1    S    
C16   C17   A    
C16   N1    A    
Cu1   O7    S    
C30   H18   S    
C21   C22   S    
C9    H5    S    
C1    C12   S    
C33   C34   S    
C27   H11   S    
C7    C12   A    
C30   H19   S    
C7    H3    S    
C3    C37   S    
C32   H23   S    
C10   H6    S    
C31   C32   S    
C3    C25   S    
C23   C27   S    
C15   O3    A    
C33   H27   S    
C38   H40   S    
C35   H32   S    
O9    C31   S    
C21   H1    S    
Cu2   O6    S    
C28   H12   S    
C28   H13   S    
C31   H22   S    
C34   H28   S    
C18   O6    A    
C38   H41   S    
C34   H29   S    
Cu1   O3    S    
C27   H9    S    
C20   C23   S    
Cu2   N2    S    
C8    C12   A    
C40   H48   S    
C19   O7    A    
C2    C26   S    
C9    C11   A    
C13   N2    A    
C17   C30   S    
C5    C25   S    
C36   H35   S    
C2    C40   S    
C29   H16   S    
C37   H39   S    
C7    C9    A    
C21   C25   S    
C30   H20   S    
C40   H47   S    
C15   O4    A    
C33   H26   S    
C35   H33   S    
C4    C26   S    
C39   H44   S    
C28   H14   S    
C31   H21   S    
C32   H25   S    
C20   O9    S    
C37   H38   S    
C2    C3    S    
C16   C29   S    
O10   C33   S    
C18   O5    A    
C38   H42   S    
C8    H4    S    
Cu1   N1    S    
Cu2   O4    S    
C19   C24   S    
C17   N2    A    
C34   H30   S    
C10   C11   A    
C1    O1    A    
C35   H31   S    
Cu1   O5    S    
C36   H36   S    
C8    C10   A    
C22   C26   S    
C29   H17   S    
Cu1   Cu2   S    
C32   H24   S    
C13   C14   A    
C39   H45   S    
C22   C28   S    
C14   N1    A    
