data_mof_unit_8371.cif
_audit_creation_date              2012-12-10T19:47:16-0500
_audit_creation_method            fapswitch 2.2
_symmetry_space_group_name_H-M    P1
_symmetry_Int_Tables_number       1
_space_group_crystal_system       triclinic
_cell_length_a                    14.899424
_cell_length_b                    14.16515
_cell_length_c                    10.638643
_cell_angle_alpha                 90.180435
_cell_angle_beta                  89.397581
_cell_angle_gamma                 90.194348
_cell_volume                      2245.16510235

loop_
_atom_site_label
_atom_site_type_symbol
_atom_type_description
_atom_site_fract_x
_atom_site_fract_y
_atom_site_fract_z
_atom_type_partial_charge
C1    C     C_R   0.327414 0.499899 0.495501 0.836685
C2    C     C_R   0.672516 0.500129 0.497479 0.867451
C3    C     C_R   0.232003 0.499820 0.473159 -0.034852
C4    C     C_R   0.768314 0.499941 0.479965 -0.023211
C5    C     C_R   0.189228 0.416121 0.436425 -0.187972
C6    C     C_R   0.818208 0.423950 0.524217 -0.200669
C7    C     C_R   0.097992 0.416102 0.414419 -0.189283
C8    C     C_R   0.909824 0.422114 0.503646 -0.174593
C9    C     C_R   0.048925 0.499330 0.431362 0.113522
C10   C     C_R   0.951664 0.495482 0.436699 0.115363
C11   C     C_R   0.456360 0.105284 0.596023 -0.281917
C12   C     C_R   0.541793 0.105132 0.402618 -0.281813
C13   C     C_R   0.457508 0.204579 0.594410 0.014915
C14   C     C_R   0.541761 0.204406 0.405038 0.022288
C15   C     C_R   0.498899 0.053343 0.499189 0.138959
C16   C     C_R   0.571478 0.895135 0.447678 -0.279544
C17   C     C_R   0.426848 0.894388 0.550943 -0.281292
C18   C     C_R   0.570471 0.795894 0.448610 0.025241
C19   C     C_R   0.428861 0.795141 0.550731 0.009242
C20   C     C_R   0.498976 0.946613 0.499186 0.136425
C21   C     C_R   0.496710 0.499768 0.260389 0.871530
C22   C     C_R   0.494875 0.500262 0.739697 0.878718
C23   C     C_R   0.358749 0.607846 0.135832 -0.241353
C24   C     C_R   0.361806 0.616040 0.874910 -0.256980
C25   C     C_R   0.299682 0.668775 0.075164 0.011130
C26   C     C_R   0.302748 0.674640 0.942710 0.013418
C27   C     C_R   0.424244 0.557747 0.936867 0.082442
C28   C     C_R   0.423786 0.555481 0.068243 0.080346
C29   C     C_R   0.487834 0.498681 0.128520 -0.085000
C30   C     C_R   0.487366 0.500387 0.872217 -0.091864
C31   C     C_R   0.546493 0.440220 0.062628 -0.220989
C32   C     C_R   0.545965 0.440745 0.934584 -0.214568
C33   C     C_R   0.092603 0.584040 0.461147 -0.152820
C34   C     C_R   0.901009 0.570019 0.388846 -0.184868
C35   C     C_R   0.184053 0.584403 0.481102 -0.201708
C36   C     C_R   0.809464 0.572707 0.411540 -0.195975
H1    H     H_    0.594662 0.396179 0.110561 0.151050
H2    H     H_    0.593624 0.396747 0.883823 0.156961
H3    H     H_    0.629508 0.930970 0.408417 0.131859
H4    H     H_    0.368476 0.929564 0.589971 0.140591
H5    H     H_    0.626487 0.757483 0.408403 0.120356
H6    H     H_    0.373024 0.756170 0.590889 0.132476
H7    H     H_    0.351888 0.600809 0.236621 0.166832
H8    H     H_    0.359267 0.618662 0.773563 0.162481
H9    H     H_    0.055485 0.648797 0.475361 0.125868
H10   H     H_    0.932461 0.626696 0.336147 0.126710
H11   H     H_    0.216674 0.650145 0.506093 0.159325
H12   H     H_    0.770750 0.630704 0.374366 0.140727
H13   H     H_    0.225926 0.350663 0.425623 0.158372
H14   H     H_    0.786625 0.367218 0.576755 0.148655
H15   H     H_    0.065161 0.350536 0.388906 0.129568
H16   H     H_    0.948238 0.365201 0.544084 0.129952
H17   H     H_    0.423442 0.069792 0.673834 0.134595
H18   H     H_    0.574241 0.069533 0.324425 0.133132
H19   H     H_    0.424454 0.243440 0.669240 0.128541
H20   H     H_    0.574967 0.243121 0.330307 0.123976
N1    N     N_R   0.500000 0.252470 0.500000 -0.092611
N2    N     N_R   0.500000 0.747550 0.500000 -0.093409
O1    O     O_R   0.369060 0.579480 0.500010 -0.648167
O2    O     O_R   0.630940 0.579480 0.499990 -0.622824
O3    O     O_R   0.369050 0.420520 0.500010 -0.619765
O4    O     O_R   0.630950 0.420520 0.499990 -0.619949
O5    O     O_R   0.500000 0.579490 0.316770 -0.625008
O6    O     O_R   0.500000 0.579490 0.683230 -0.615141
O7    O     O_R   0.499990 0.420540 0.316770 -0.624747
O8    O     O_R   0.500010 0.420540 0.683230 -0.625324
Zn1   Zn    Zn3+2 0.500000 0.606140 0.500000 0.933007
Zn2   Zn    Zn3+2 0.500000 0.393860 0.500000 0.938197
C37   C     C_R   0.234061 0.722400 0.153301 0.107208
C38   C     C_R   0.141786 0.717971 0.127693 -0.110231
C39   C     C_R   0.080102 0.765038 0.205321 -0.138717
C40   C     C_R   0.109840 0.816414 0.309325 -0.132188
C41   C     C_R   0.201355 0.820955 0.335872 -0.146339
C42   C     C_R   0.263277 0.774131 0.258462 -0.157707
H21   H     H_    0.117477 0.676926 0.048965 0.128609
H22   H     H_    0.009119 0.761034 0.185421 0.121450
H23   H     H_    0.061924 0.852222 0.369783 0.117763
H24   H     H_    0.224298 0.860242 0.416922 0.132255
H25   H     H_    0.333973 0.778031 0.280653 0.142670
C43   C     C_R   0.250166 0.745583 0.872994 0.108063
C44   C     C_R   0.260330 0.842186 0.900158 -0.123923
C45   C     C_R   0.214282 0.909641 0.830428 -0.147987
C46   C     C_R   0.157802 0.881270 0.733255 -0.125456
C47   C     C_R   0.147156 0.785403 0.705840 -0.145171
C48   C     C_R   0.193380 0.717645 0.774981 -0.191658
H26   H     H_    0.304882 0.865260 0.974050 0.129622
H27   H     H_    0.222760 0.983949 0.851309 0.126945
H28   H     H_    0.122339 0.933551 0.679113 0.120541
H29   H     H_    0.103207 0.763789 0.630773 0.126187
H30   H     H_    0.184819 0.643557 0.752536 0.135371

loop_
_geom_bond_atom_site_label_1
_geom_bond_atom_site_label_2
_ccdc_geom_bond_type
O8    Zn2   S    
C4    C36   A    
C33   H9    S    
C41   C42   A    
C14   H20   S    
C24   C27   A    
C35   H11   S    
C44   C45   A    
C43   C48   A    
C28   C29   A    
C24   C26   A    
C1    O1    A    
C39   H22   S    
C33   C35   A    
C2    O2    A    
C13   N1    A    
C45   H27   S    
C17   C20   A    
C23   H7    S    
C22   O8    A    
O1    Zn1   S    
C11   C15   A    
C18   N2    A    
C31   C32   A    
O2    Zn1   S    
C41   H24   S    
C38   C39   A    
C34   H10   S    
C32   H2    S    
C9    C10   S    
C8    H16   S    
C44   H26   S    
C11   H17   S    
C19   H6    S    
C46   H28   S    
C27   C30   A    
C9    C33   A    
C5    H13   S    
C19   N2    A    
C15   C20   S    
O5    Zn1   S    
O6    Zn1   S    
C47   C48   A    
C4    C6    A    
C18   H5    S    
C5    C7    A    
C40   C41   A    
C6    C8    A    
C25   C26   A    
C21   C29   S    
C26   C43   S    
C31   H1    S    
C1    C3    S    
C17   H4    S    
C2    C4    S    
C40   H23   S    
C46   C47   A    
C12   C15   A    
C3    C35   A    
C16   C20   A    
O7    Zn2   S    
C37   C42   A    
C10   C34   A    
C23   C28   A    
C6    H14   S    
C16   C18   A    
C12   C14   A    
C42   H25   S    
C24   H8    S    
C25   C37   S    
C47   H29   S    
N1    Zn2   S    
C38   H21   S    
C7    C9    A    
C14   N1    A    
C22   C30   S    
C21   O7    A    
C43   C44   A    
C3    C5    A    
C1    O3    A    
C48   H30   S    
O4    Zn2   S    
C7    H15   S    
C39   C40   A    
C29   C31   A    
C30   C32   A    
C11   C13   A    
O3    Zn2   S    
C17   C19   A    
C36   H12   S    
C34   C36   A    
C23   C25   A    
C37   C38   A    
C21   O5    A    
C16   H3    S    
C22   O6    A    
N2    Zn1   S    
C8    C10   A    
C45   C46   A    
C27   C28   A    
C12   H18   S    
C2    O4    A    
C13   H19   S    
