data_mof_unit_61489.cif
_audit_creation_date              2012-12-10T19:45:57-0500
_audit_creation_method            fapswitch 2.2
_symmetry_space_group_name_H-M    P1
_symmetry_Int_Tables_number       1
_space_group_crystal_system       triclinic
_cell_length_a                    18.395169
_cell_length_b                    18.395169
_cell_length_c                    27.669223
_cell_angle_alpha                 89.999973
_cell_angle_beta                  89.99997
_cell_angle_gamma                 90.092073
_cell_volume                      9362.76163894

loop_
_atom_site_label
_atom_site_type_symbol
_atom_type_description
_atom_site_fract_x
_atom_site_fract_y
_atom_site_fract_z
_atom_type_partial_charge
C1    C     C_1   0.000000 0.500000 0.775509 -0.012140
C2    C     C_3   0.203375 0.143628 0.936852 -0.134588
C3    C     C_R   0.239499 0.814260 0.527549 -0.151479
C4    C     C_1   0.500000 1.000000 0.224513 -0.019722
C5    C     C_1   1.000000 0.500000 0.224513 -0.019722
C6    C     C_1   1.000000 0.500000 0.724513 -0.020515
C7    C     C_1   0.500000 1.000000 0.724513 -0.020515
C8    C     C_1   0.087925 0.802450 0.922231 0.238608
C9    C     C_1   0.243266 0.133168 0.891149 0.268464
C10   C     C_1   0.912075 0.197551 0.922231 0.238609
C11   C     C_1   0.756735 0.866832 0.891149 0.268463
C12   C     C_1   0.133168 0.243266 0.891149 0.268463
C13   C     C_3   0.868857 0.190220 0.966879 -0.141296
C14   C     C_1   0.197550 0.912075 0.922231 0.238609
C15   C     C_1   0.866832 0.756735 0.891149 0.268464
C16   C     C_1   0.802449 0.087925 0.922231 0.238608
C17   C     C_1   0.609872 0.280660 0.400764 0.248919
C18   C     C_1   0.719141 0.609844 0.400786 0.248759
C19   C     C_1   0.390128 0.719340 0.400764 0.248919
C20   C     C_1   0.280860 0.390157 0.400787 0.248759
C21   C     C_1   0.609844 0.719141 0.400786 0.248759
C22   C     C_1   0.719340 0.390128 0.400764 0.248919
C23   C     C_1   0.390157 0.280860 0.400787 0.248759
C24   C     C_3   0.796625 0.856372 0.936853 -0.134588
C25   C     C_1   0.280660 0.609872 0.400764 0.248919
C26   C     C_3   0.143628 0.203375 0.936852 -0.134588
C27   C     C_3   0.190219 0.868857 0.966880 -0.141296
C28   C     C_3   0.856372 0.796625 0.936853 -0.134587
C29   C     C_3   0.809780 0.131143 0.966879 -0.141295
C30   C     C_3   0.640783 0.300037 0.448240 -0.142066
C31   C     C_3   0.699748 0.640657 0.448270 -0.142033
C32   C     C_3   0.359217 0.699963 0.448240 -0.142066
C33   C     C_1   0.500000 0.000000 0.775509 -0.012140
C34   C     C_3   0.300252 0.359343 0.448270 -0.142033
C35   C     C_3   0.640657 0.699748 0.448270 -0.142033
C36   C     C_3   0.699963 0.359217 0.448240 -0.142066
C37   C     C_3   0.359343 0.300252 0.448270 -0.142033
C38   C     C_3   0.300037 0.640783 0.448240 -0.142066
C39   C     C_R   0.500000 1.000000 0.870888 0.511791
C40   C     C_R   0.000000 0.500000 0.870888 0.511791
C41   C     C_R   0.000000 0.500000 0.370888 0.510852
C42   C     C_R   0.500000 0.000000 0.370888 0.510852
C43   C     C_R   0.500000 1.000000 0.129126 0.505059
C44   C     C_1   0.500000 1.000000 0.275509 -0.012112
C45   C     C_R   1.000000 0.500000 0.129126 0.505059
C46   C     C_R   0.000000 0.500000 0.629126 0.504650
C47   C     C_R   0.500000 1.000000 0.629126 0.504650
C48   C     C_R   0.639958 0.859892 0.999981 0.509210
C49   C     C_R   0.140291 0.640095 0.999901 0.505350
C50   C     C_R   0.360041 0.140107 0.999981 0.509210
C51   C     C_R   0.859709 0.359905 0.999901 0.505350
C52   C     C_R   0.640095 0.140291 0.999901 0.505350
C53   C     C_R   0.140107 0.360041 0.999981 0.509210
C54   C     C_R   0.359905 0.859709 0.999901 0.505350
C55   C     C_1   0.000000 0.500000 0.275509 -0.012112
C56   C     C_R   0.859892 0.639959 0.999981 0.509210
C57   C     C_R   0.140039 0.359617 0.499888 0.506348
C58   C     C_R   0.640381 0.140007 0.499873 0.505968
C59   C     C_R   0.859961 0.640383 0.499888 0.506348
C60   C     C_R   0.359619 0.859993 0.499873 0.505968
C61   C     C_R   0.140007 0.640381 0.499873 0.505968
C62   C     C_R   0.640383 0.859961 0.499888 0.506348
C63   C     C_R   0.859993 0.359619 0.499873 0.505968
C64   C     C_R   0.359617 0.140039 0.499888 0.506348
C65   C     C_1   1.000000 0.500000 0.819060 0.038524
C66   C     C_1   0.500000 1.000000 0.180960 0.022035
C67   C     C_1   0.500000 1.000000 0.819060 0.038524
C68   C     C_1   0.500000 0.000000 0.319060 0.037546
C69   C     C_1   1.000000 0.500000 0.319060 0.037546
C70   C     C_R   0.244645 0.808546 0.968629 0.015843
C71   C     C_R   0.191934 0.243877 0.970870 -0.009916
C72   C     C_R   0.755355 0.191454 0.968629 0.015843
C73   C     C_R   0.808066 0.756123 0.970870 -0.009916
C74   C     C_R   0.243877 0.191934 0.970870 -0.009916
C75   C     C_R   0.191454 0.755355 0.968629 0.015843
C76   C     C_R   0.756123 0.808066 0.970870 -0.009916
C77   C     C_1   1.000000 0.500000 0.180960 0.022035
C78   C     C_R   0.808546 0.244646 0.968629 0.015843
C79   C     C_R   0.752158 0.300934 0.462740 0.008289
C80   C     C_R   0.698989 0.752024 0.462840 0.008291
C81   C     C_R   0.247842 0.699067 0.462740 0.008289
C82   C     C_R   0.301011 0.247976 0.462840 0.008291
C83   C     C_R   0.752024 0.698989 0.462840 0.008291
C84   C     C_R   0.699066 0.247842 0.462740 0.008289
C85   C     C_R   0.247976 0.301011 0.462840 0.008291
C86   C     C_R   0.300934 0.752158 0.462740 0.008289
C87   C     C_R   0.306894 0.801203 0.997129 0.018439
C88   C     C_1   1.000000 0.500000 0.680960 0.021047
C89   C     C_R   0.196655 0.305542 0.999658 0.028198
C90   C     C_R   0.693106 0.198797 0.997129 0.018439
C91   C     C_R   0.803345 0.694457 0.999658 0.028197
C92   C     C_R   0.305542 0.196655 0.999658 0.028198
C93   C     C_R   0.198797 0.693106 0.997129 0.018439
C94   C     C_R   0.694457 0.803345 0.999658 0.028197
C95   C     C_R   0.801203 0.306894 0.997129 0.018439
C96   C     C_R   0.807654 0.300501 0.497174 0.019131
C97   C     C_R   0.699427 0.807550 0.497268 0.018873
C98   C     C_R   0.192346 0.699499 0.497174 0.019131
C99   C     C_1   0.500000 1.000000 0.680960 0.021047
C100  C     C_R   0.300573 0.192449 0.497268 0.018872
C101  C     C_R   0.807550 0.699427 0.497268 0.018873
C102  C     C_R   0.699499 0.192346 0.497174 0.019131
C103  C     C_R   0.192449 0.300573 0.497268 0.018872
C104  C     C_R   0.300501 0.807654 0.497174 0.019131
C105  C     C_R   0.318831 0.734936 0.021208 -0.151309
C106  C     C_R   0.259245 0.313223 0.028789 -0.148956
C107  C     C_R   0.681168 0.265064 0.021208 -0.151309
C108  C     C_R   0.740755 0.686777 0.028789 -0.148956
C109  C     C_R   0.313223 0.259245 0.028789 -0.148956
C110  C     C_3   0.131143 0.809781 0.966880 -0.141295
C111  C     C_R   0.265064 0.681168 0.021208 -0.151309
C112  C     C_R   0.686777 0.740755 0.028789 -0.148956
C113  C     C_R   0.734936 0.318831 0.021208 -0.151309
C114  C     C_R   0.814260 0.239499 0.527549 -0.151479
C115  C     C_R   0.760394 0.814107 0.527719 -0.150878
C116  C     C_R   0.185740 0.760501 0.527549 -0.151479
C117  C     C_R   0.239606 0.185892 0.527719 -0.150878
C118  C     C_R   0.814107 0.760394 0.527719 -0.150878
C119  C     C_R   0.760501 0.185740 0.527549 -0.151479
C120  C     C_R   0.185892 0.239606 0.527719 -0.150878
H1    H     H_    0.097206 0.809463 0.000140 0.098682
H2    H     H_    0.692120 0.598648 0.476728 0.104121
H3    H     H_    0.401173 0.692442 0.476730 0.104097
H4    H     H_    0.307880 0.401352 0.476728 0.104121
H5    H     H_    0.598648 0.692120 0.476728 0.104121
H6    H     H_    0.692442 0.401173 0.476730 0.104097
H7    H     H_    0.401352 0.307880 0.476728 0.104121
H8    H     H_    0.307558 0.598827 0.476730 0.104097
H9    H     H_    0.368239 0.725703 0.041575 0.150221
H10   H     H_    0.266459 0.360351 0.051762 0.150107
H11   H     H_    0.631761 0.274297 0.041575 0.150221
H12   H     H_    0.186056 0.091832 0.954078 0.117370
H13   H     H_    0.733541 0.639649 0.051762 0.150107
H14   H     H_    0.360350 0.266459 0.051762 0.150107
H15   H     H_    0.274297 0.631761 0.041575 0.150221
H16   H     H_    0.639649 0.733541 0.051762 0.150107
H17   H     H_    0.725703 0.368239 0.041576 0.150221
H18   H     H_    0.858867 0.234885 0.552905 0.151408
H19   H     H_    0.765040 0.858684 0.553106 0.151641
H20   H     H_    0.141133 0.765115 0.552905 0.151408
H21   H     H_    0.234959 0.141316 0.553106 0.151641
H22   H     H_    0.858684 0.765040 0.553106 0.151641
H23   H     H_    0.902794 0.190537 0.000140 0.098683
H24   H     H_    0.765115 0.141133 0.552905 0.151408
H25   H     H_    0.141316 0.234959 0.553106 0.151641
H26   H     H_    0.234885 0.858867 0.552905 0.151408
H27   H     H_    0.813944 0.908168 0.954079 0.117369
H28   H     H_    0.091832 0.186056 0.954078 0.117369
H29   H     H_    0.190537 0.902794 0.000140 0.098682
H30   H     H_    0.908168 0.813944 0.954079 0.117369
H31   H     H_    0.809463 0.097206 0.000140 0.098682
H32   H     H_    0.598827 0.307558 0.476730 0.104097
N1    N     N_1   0.053965 0.796625 0.887234 -0.253817
N2    N     N_1   0.734479 0.585871 0.363498 -0.233639
N3    N     N_1   0.414178 0.734668 0.363481 -0.233556
N4    N     N_1   0.265521 0.414129 0.363499 -0.233639
N5    N     N_1   0.585871 0.734479 0.363498 -0.233639
N6    N     N_1   0.734668 0.414178 0.363481 -0.233556
N7    N     N_1   0.414129 0.265521 0.363499 -0.233639
N8    N     N_1   0.265332 0.585823 0.363481 -0.233556
N9    N     N_1   0.274652 0.124855 0.855329 -0.246543
N10   N     N_1   0.946035 0.203376 0.887234 -0.253817
N11   N     N_1   0.725349 0.875146 0.855329 -0.246542
N12   N     N_1   0.124855 0.274652 0.855329 -0.246543
N13   N     N_1   0.203375 0.946036 0.887234 -0.253818
N14   N     N_1   0.875146 0.725349 0.855329 -0.246543
N15   N     N_1   0.796624 0.053965 0.887233 -0.253817
N16   N     N_1   0.585823 0.265332 0.363481 -0.233556
O1    O     O_3   0.500000 0.000000 0.000010 -0.447746
O2    O     O_R   0.500000 0.939270 0.393740 -0.521460
O3    O     O_R   0.060730 0.500000 0.393740 -0.521461
O4    O     O_R   0.500000 0.060730 0.393740 -0.521461
O5    O     O_R   0.500000 0.939230 0.106280 -0.533872
O6    O     O_R   0.060770 0.500000 0.106280 -0.533872
O7    O     O_R   0.500000 0.060770 0.106280 -0.533872
O8    O     O_R   0.939230 0.500000 0.106280 -0.533872
O9    O     O_R   0.000000 0.439230 0.606280 -0.534687
O10   O     O_R   0.560770 1.000000 0.606280 -0.534687
O11   O     O_R   0.000000 0.560770 0.606280 -0.534687
O12   O     O_3   0.000000 0.500000 0.000010 -0.447746
O13   O     O_R   0.439230 1.000000 0.606280 -0.534687
O14   O     O_R   0.646160 0.914520 0.972140 -0.537392
O15   O     O_R   0.085480 0.646160 0.972140 -0.535287
O16   O     O_R   0.353840 0.085480 0.972140 -0.537391
O17   O     O_R   0.914520 0.353840 0.972140 -0.535287
O18   O     O_R   0.646160 0.085480 0.972140 -0.535287
O19   O     O_R   0.085480 0.353840 0.972140 -0.537392
O20   O     O_R   0.353840 0.914520 0.972140 -0.535287
O21   O     O_R   0.914520 0.646160 0.972140 -0.537391
O22   O     O_R   0.146160 0.414520 0.472140 -0.538459
O23   O     O_3   0.000000 0.500000 0.500010 -0.446309
O24   O     O_R   0.585480 0.146160 0.472140 -0.538635
O25   O     O_R   0.853840 0.585480 0.472140 -0.538459
O26   O     O_R   0.414520 0.853840 0.472140 -0.538635
O27   O     O_R   0.146160 0.585480 0.472140 -0.538635
O28   O     O_R   0.585480 0.853840 0.472140 -0.538459
O29   O     O_R   0.853840 0.414520 0.472140 -0.538635
O30   O     O_R   0.414520 0.146160 0.472140 -0.538459
O31   O     O_R   0.414550 0.146120 0.027860 -0.548782
O32   O     O_R   0.853880 0.414550 0.027860 -0.547019
O33   O     O_R   0.585450 0.853880 0.027860 -0.548782
O34   O     O_3   0.500000 1.000000 0.500010 -0.446309
O35   O     O_R   0.146120 0.585450 0.027860 -0.547019
O36   O     O_R   0.414550 0.853880 0.027860 -0.547019
O37   O     O_R   0.853880 0.585450 0.027860 -0.548782
O38   O     O_R   0.585450 0.146120 0.027860 -0.547019
O39   O     O_R   0.146120 0.414550 0.027860 -0.548782
O40   O     O_R   0.914550 0.646120 0.527860 -0.546729
O41   O     O_R   0.353880 0.914550 0.527860 -0.547108
O42   O     O_R   0.085450 0.353880 0.527860 -0.546729
O43   O     O_R   0.646120 0.085450 0.527860 -0.547107
O44   O     O_R   0.914550 0.353880 0.527860 -0.547108
O45   O     O_R   0.439270 1.000000 0.893740 -0.521512
O46   O     O_R   0.353880 0.085450 0.527860 -0.546729
O47   O     O_R   0.085450 0.646120 0.527860 -0.547107
O48   O     O_R   0.646120 0.914550 0.527860 -0.546729
O49   O     O_R   1.000000 0.439270 0.893740 -0.521512
O50   O     O_R   0.560730 1.000000 0.893740 -0.521512
O51   O     O_R   0.000000 0.560730 0.893740 -0.521512
O52   O     O_R   0.939270 0.500000 0.393740 -0.521460
Zn1   Zn    Zn3+2 0.500000 0.913210 0.039810 0.942703
Zn2   Zn    Zn3+2 1.000000 0.586760 0.960200 0.967746
Zn3   Zn    Zn3+2 0.413240 1.000000 0.960200 0.967746
Zn4   Zn    Zn3+2 1.000000 0.413240 0.960200 0.967746
Zn5   Zn    Zn3+2 0.086760 0.500000 0.460200 0.965237
Zn6   Zn    Zn3+2 0.500000 0.086760 0.460200 0.965237
Zn7   Zn    Zn3+2 0.913240 0.500000 0.460200 0.965237
Zn8   Zn    Zn3+2 0.500000 0.913240 0.460200 0.965237
Zn9   Zn    Zn3+2 0.086790 0.500000 0.039810 0.942703
Zn10  Zn    Zn3+2 0.500000 0.086790 0.039810 0.942703
Zn11  Zn    Zn3+2 0.913210 0.500000 0.039810 0.942703
Zn12  Zn    Zn3+2 0.000000 0.413210 0.539810 0.942517
Zn13  Zn    Zn3+2 0.586790 1.000000 0.539810 0.942517
Zn14  Zn    Zn3+2 1.000000 0.586790 0.539810 0.942517
Zn15  Zn    Zn3+2 0.413210 1.000000 0.539810 0.942517
Zn16  Zn    Zn3+2 0.586760 1.000000 0.960200 0.967746

loop_
_geom_bond_atom_site_label_1
_geom_bond_atom_site_label_2
_ccdc_geom_bond_type
C3    C104  A    
C59   O40   A    
O16   Zn3   S    
C48   O14   A    
C49   O35   A    
O12   Zn11  S    
C28   H30   S    
C17   C30   S    
O1    Zn16  S    
C64   O30   A    
C40   O49   A    
O38   Zn10  S    
C34   C37   S    
C19   N3    T    
C11   C24   S    
C39   O50   A    
C52   C90   S    
C103  C120  A    
C32   H3    S    
O33   Zn1   S    
C63   O44   A    
C47   O13   A    
C37   H7    S    
O5    Zn1   S    
O9    Zn12  S    
O28   Zn8   S    
C53   C89   S    
C60   O26   A    
O34   Zn6   S    
O1    Zn3   S    
C58   O43   A    
C59   O25   A    
O23   Zn14  S    
C41   O3    A    
C75   C93   A    
C7    C99   T    
C52   O38   A    
C101  C118  A    
C13   C29   S    
O31   Zn10  S    
C90   C107  A    
C47   O10   A    
O2    Zn8   S    
C3    C116  A    
C80   C83   A    
C110  H1    S    
C79   C84   A    
C80   C97   A    
C54   O36   A    
C92   C109  A    
C12   N12   T    
C81   C98   A    
C28   C73   S    
C16   N15   T    
O26   Zn8   S    
O22   Zn5   S    
C35   C80   S    
C47   C99   S    
O1    Zn10  S    
C74   C92   A    
C35   H5    S    
O15   Zn2   S    
C107  C113  A    
C72   C78   A    
C42   O2    A    
C71   C74   A    
C76   C94   A    
O34   Zn15  S    
C49   O15   A    
C43   O7    A    
C56   C91   S    
O1    Zn1   S    
C56   O37   A    
O3    Zn5   S    
C27   C110  S    
O23   Zn12  S    
O17   Zn4   S    
C23   N7    T    
C89   C106  A    
C1    C65   T    
C10   C13   S    
C15   N14   T    
O12   Zn2   S    
C58   C102  S    
O32   Zn11  S    
C62   O28   A    
C14   C27   S    
C97   C115  A    
C20   N4    T    
C60   O41   A    
C61   O27   A    
C46   C88   S    
C114  C119  A    
C85   C103  A    
O14   Zn16  S    
C84   C102  A    
C29   C72   S    
C20   C34   S    
O49   Zn4   S    
O24   Zn6   S    
C105  C111  A    
C86   C104  A    
C120  H25   S    
O23   Zn5   S    
O7    Zn10  S    
C54   O20   A    
C9    N9    T    
C42   C68   S    
O48   Zn13  S    
C7    C33   S    
C46   O9    A    
C96   C114  A    
O47   Zn14  S    
C62   O48   A    
C112  H16   S    
O11   Zn14  S    
C70   C87   A    
C46   O11   A    
O18   Zn16  S    
C57   C103  S    
C36   H6    S    
O12   Zn9   S    
C57   O22   A    
C39   O45   A    
C1    C6    S    
C59   C101  S    
C10   N10   T    
C73   C91   A    
C107  H11   S    
C57   O42   A    
C45   O8    A    
O35   Zn9   S    
O27   Zn5   S    
O21   Zn2   S    
C24   C76   S    
C98   C116  A    
C105  H9    S    
C4    C44   S    
C16   C29   S    
C23   C37   S    
O8    Zn11  S    
C63   C96   S    
C24   H27   S    
O34   Zn13  S    
O43   Zn13  S    
O52   Zn7   S    
C12   C26   S    
C34   C85   S    
C117  H21   S    
O41   Zn15  S    
C51   O17   A    
C8    C110  S    
C25   C38   S    
C29   H31   S    
C62   C97   S    
C72   C90   A    
O13   Zn15  S    
C2    H12   S    
C87   C105  A    
C78   C95   A    
C115  C118  A    
C32   C86   S    
C25   N8    T    
C11   N11   T    
C31   C83   S    
C2    C26   S    
C18   N2    T    
C14   N13   T    
C26   H28   S    
C8    N1    T    
O25   Zn7   S    
C55   C69   T    
C27   C70   S    
C48   C94   S    
C71   C89   A    
C93   C111  A    
O29   Zn7   S    
C114  H18   S    
C50   C92   S    
C100  C117  A    
C115  H19   S    
C106  C109  A    
C32   C38   S    
C40   C65   S    
C38   C81   S    
C58   O24   A    
C73   C76   A    
C31   C35   S    
C37   C82   S    
C44   C68   T    
C119  H24   S    
C52   O18   A    
O40   Zn14  S    
C41   O52   A    
C38   H8    S    
C33   C67   T    
O46   Zn15  S    
C41   C69   S    
C42   O4    A    
C64   O46   A    
C19   C32   S    
C106  H10   S    
C56   O21   A    
C30   H32   S    
C75   C110  S    
C34   H4    S    
C83   C101  A    
C109  H14   S    
C39   C67   S    
C91   C108  A    
C5    C55   S    
C50   O16   A    
C24   C28   S    
C31   H2    S    
C21   N5    T    
C63   O29   A    
C118  H22   S    
C36   C79   S    
C2    C74   S    
O10   Zn13  S    
O34   Zn8   S    
C50   O31   A    
C21   C35   S    
C79   C96   A    
C82   C85   A    
C22   C36   S    
O30   Zn6   S    
C30   C36   S    
C81   C86   A    
O39   Zn9   S    
C53   O19   A    
O50   Zn16  S    
C108  H13   S    
C40   O51   A    
C6    C88   T    
C45   O6    A    
O51   Zn2   S    
C4    C66   T    
C43   O5    A    
C61   C98   S    
C111  H15   S    
C15   C28   S    
C54   C87   S    
C26   C71   S    
C95   C113  A    
C43   C66   S    
O44   Zn12  S    
C48   O33   A    
C82   C100  A    
C53   O39   A    
C117  C120  A    
O12   Zn4   S    
C113  H17   S    
C13   H23   S    
C30   C84   S    
O4    Zn6   S    
O6    Zn9   S    
O37   Zn11  S    
C51   O32   A    
C13   C78   S    
O20   Zn3   S    
C108  C112  A    
C64   C100  S    
C3    H26   S    
C27   H29   S    
O19   Zn4   S    
C70   C75   A    
C17   N16   T    
O42   Zn12  S    
C45   C77   S    
C18   C31   S    
C61   O47   A    
C49   C93   S    
C60   C104  S    
C2    C9    S    
C5    C77   T    
O23   Zn7   S    
C94   C112  A    
C22   N6    T    
C102  C119  A    
O45   Zn3   S    
C51   C95   S    
C116  H20   S    
O36   Zn1   S    
