data_mof_unit_45794.cif
_audit_creation_date              2012-10-26T21:19:41-0400
_audit_creation_method            fapswitch 2.2
_symmetry_space_group_name_H-M    P1
_symmetry_Int_Tables_number       1
_space_group_crystal_system       triclinic
_cell_length_a                    10.838844
_cell_length_b                    15.141283
_cell_length_c                    13.853378
_cell_angle_alpha                 89.855594
_cell_angle_beta                  90.118811
_cell_angle_gamma                 91.246635
_cell_volume                      2272.98335417

loop_
_atom_site_label
_atom_site_type_symbol
_atom_type_description
_atom_site_fract_x
_atom_site_fract_y
_atom_site_fract_z
_atom_type_partial_charge
C1    C     C_R   0.501454 0.330210 0.499905 0.569519
C2    C     C_R   0.503809 0.813616 0.413447 -0.175013
C3    C     C_R   0.501618 0.234259 0.499052 0.035428
C4    C     C_R   0.492995 0.767126 0.500798 0.011619
C5    C     C_R   0.571533 0.188750 0.430472 0.252476
C6    C     C_R   0.476475 0.814153 0.587696 0.252722
C7    C     C_R   0.570935 0.096445 0.432662 -0.100392
C8    C     C_R   0.481354 0.906311 0.586265 -0.100547
C9    C     C_R   0.495267 0.049645 0.498121 -0.000412
C10   C     C_R   0.493129 0.952443 0.498814 -0.006971
C11   C     C_R   0.590199 0.547222 0.107683 -0.135592
C12   C     C_R   0.497616 0.670288 0.500136 0.548516
C13   C     C_R   0.439940 0.433951 0.893173 -0.144214
C14   C     C_R   0.586778 0.549924 0.209982 0.429611
C15   C     C_R   0.436908 0.435042 0.791274 0.407768
C16   C     C_R   0.262381 0.504773 0.499580 0.528586
C17   C     C_R   0.737774 0.497426 0.500428 0.551422
C18   C     C_R   0.412040 0.452816 0.209623 0.002024
C19   C     C_R   0.559760 0.566367 0.790033 0.013214
C20   C     C_R   0.408404 0.453756 0.108354 -0.165872
C21   C     C_R   0.558247 0.569593 0.891456 -0.169422
C22   C     C_R   0.498745 0.501172 0.054885 -0.014621
C23   C     C_R   0.871713 0.497175 0.501471 0.001874
C24   C     C_R   0.498742 0.502020 0.945487 -0.018145
C25   C     C_R   0.238274 0.674782 0.235585 0.295535
C26   C     C_R   0.775225 0.322535 0.761320 0.293295
C27   C     C_R   0.190768 0.640940 0.322651 -0.044632
C28   C     C_R   0.826339 0.358133 0.676473 -0.032883
C29   C     C_R   0.117878 0.563025 0.323183 0.002932
C30   C     C_R   0.882283 0.442701 0.675866 0.004800
C31   C     C_R   0.092016 0.520000 0.235391 -0.136455
C32   C     C_R   0.889309 0.491356 0.761763 -0.120810
C33   C     C_R   0.139962 0.553478 0.148859 -0.181214
C34   C     C_R   0.128489 0.509839 0.498857 -0.003588
C35   C     C_R   0.840405 0.456140 0.847059 -0.166634
C36   C     C_R   0.214196 0.630014 0.149030 -0.078734
C37   C     C_R   0.784737 0.372059 0.847490 -0.103095
C38   C     C_R   0.933304 0.522448 0.416914 -0.152776
C39   C     C_R   0.066315 0.488256 0.584403 -0.158801
C40   C     C_3   0.708748 0.679533 0.225343 -0.007691
C41   C     C_3   0.841648 0.679403 0.187766 -0.276962
C42   C     C_3   0.877377 0.767133 0.140094 -0.488888
C43   C     C_3   0.256663 0.352423 0.764768 -0.006296
C44   C     C_3   0.234922 0.263375 0.815481 -0.292004
C45   C     C_R   0.939113 0.478275 0.586162 -0.029755
C46   C     C_3   0.097704 0.246276 0.834308 -0.466898
C47   C     C_3   0.239664 0.825842 0.235752 -0.007678
C48   C     C_3   0.237948 0.866810 0.134675 -0.265630
C49   C     C_3   0.165534 0.952099 0.133082 -0.488080
C50   C     C_3   0.617475 0.224745 0.810415 0.028279
C51   C     C_3   0.638093 0.165924 0.898742 -0.274731
C52   C     C_3   0.520918 0.156260 0.959132 -0.497834
C53   C     C_3   0.602358 0.227546 0.273060 0.000973
C54   C     C_3   0.676276 0.289154 0.206985 -0.358115
C55   C     C_3   0.334424 0.774617 0.701265 -0.004121
C56   C     C_R   0.061053 0.529898 0.414206 -0.031784
C57   C     C_3   0.309045 0.711652 0.785011 -0.365165
C58   C     C_R   0.422522 0.096205 0.563552 -0.148083
C59   C     C_R   0.502522 0.905272 0.412283 -0.155095
C60   C     C_R   0.427301 0.187786 0.564886 -0.180268
Cu1   Cu    Cu3+1 0.500000 0.499990 0.596430 1.001415
Cu2   Cu    Cu3+1 0.500000 0.500010 0.403570 1.007032
H1    H     H_    0.252572 0.654798 0.081891 0.114221
H2    H     H_    0.603205 0.625354 0.926401 0.099470
H3    H     H_    0.210074 0.675682 0.389470 0.098861
H4    H     H_    0.823046 0.319479 0.610754 0.128325
H5    H     H_    0.034700 0.460519 0.234040 0.117007
H6    H     H_    0.933135 0.556322 0.762633 0.109012
H7    H     H_    0.120368 0.519633 0.081645 0.106551
H8    H     H_    0.846719 0.493757 0.913307 0.108353
H9    H     H_    0.881496 0.538756 0.352647 0.168798
H10   H     H_    0.117024 0.475749 0.650074 0.119958
H11   H     H_    0.361017 0.062030 0.613287 0.103888
H12   H     H_    0.750803 0.345719 0.915243 0.098006
H13   H     H_    0.508443 0.939090 0.343433 0.107256
H14   H     H_    0.370482 0.222574 0.615671 0.147550
H15   H     H_    0.513011 0.779222 0.345616 0.175206
H16   H     H_    0.705467 0.727653 0.285548 0.148950
H17   H     H_    0.643530 0.704219 0.169571 0.119956
H18   H     H_    0.905553 0.667841 0.249032 0.167537
H19   H     H_    0.853165 0.625281 0.134843 0.158624
H20   H     H_    0.816414 0.779810 0.077245 0.145290
H21   H     H_    0.974173 0.764674 0.114398 0.147755
H22   H     H_    0.870043 0.822044 0.192658 0.141411
H23   H     H_    0.631173 0.061720 0.384190 0.107996
H24   H     H_    0.216983 0.407024 0.808133 0.104943
H25   H     H_    0.205025 0.349657 0.695632 0.155091
H26   H     H_    0.270316 0.209398 0.769761 0.154815
H27   H     H_    0.284899 0.261690 0.885280 0.145931
H28   H     H_    0.060435 0.298786 0.881173 0.150398
H29   H     H_    0.084427 0.181597 0.871209 0.145536
H30   H     H_    0.045613 0.244657 0.765161 0.167719
H31   H     H_    0.282777 0.874227 0.286364 0.153470
H32   H     H_    0.143087 0.813995 0.261806 0.113477
H33   H     H_    0.334204 0.881332 0.110952 0.167526
H34   H     H_    0.476376 0.941400 0.654108 0.112183
H35   H     H_    0.195051 0.819260 0.082993 0.149884
H36   H     H_    0.068316 0.938844 0.154926 0.146533
H37   H     H_    0.166129 0.980080 0.058912 0.142103
H38   H     H_    0.208247 0.001409 0.182895 0.143551
H39   H     H_    0.549559 0.190916 0.762177 0.168217
H40   H     H_    0.574359 0.287500 0.832256 0.149789
H41   H     H_    0.666720 0.099517 0.874530 0.172941
H42   H     H_    0.713047 0.194520 0.944487 0.156715
H43   H     H_    0.492543 0.221783 0.986142 0.137658
H44   H     H_    0.538392 0.112735 0.022102 0.141492
H45   H     H_    0.665248 0.579869 0.069945 0.082560
H46   H     H_    0.444873 0.126464 0.915329 0.143010
H47   H     H_    0.503756 0.246979 0.269534 0.129489
H48   H     H_    0.610767 0.158915 0.245647 0.109015
H49   H     H_    0.774261 0.269265 0.205251 0.145759
H50   H     H_    0.637963 0.286101 0.132610 0.085190
H51   H     H_    0.671714 0.358136 0.233502 0.184357
H52   H     H_    0.272029 0.754741 0.640508 0.120569
H53   H     H_    0.312234 0.842656 0.724869 0.116183
H54   H     H_    0.372632 0.726894 0.846002 0.153669
H55   H     H_    0.212445 0.718502 0.809986 0.080300
H56   H     H_    0.399436 0.378202 0.930667 0.083611
H57   H     H_    0.321811 0.642445 0.761418 0.170452
H58   H     H_    0.342840 0.415122 0.249152 0.129792
H59   H     H_    0.607975 0.617987 0.750250 0.162758
H60   H     H_    0.333490 0.418224 0.073146 0.093242
N1    N     N_R   0.500000 0.500020 0.258690 -0.211683
N2    N     N_R   0.500000 0.499980 0.741310 -0.216437
O1    O     O_R   0.500010 0.371450 0.581430 -0.453233
O2    O     O_3   0.383054 0.364943 0.741326 -0.557240
O3    O     O_3   0.313156 0.749665 0.235520 -0.592681
O4    O     O_3   0.729148 0.236119 0.758406 -0.579935
O5    O     O_3   0.649304 0.234761 0.368047 -0.550512
O6    O     O_3   0.460028 0.770408 0.674722 -0.552753
O7    O     O_R   0.499990 0.628550 0.418570 -0.481393
O8    O     O_R   0.500010 0.371460 0.418560 -0.496847
O9    O     O_R   0.499990 0.628540 0.581440 -0.471249
O10   O     O_R   0.319640 0.500000 0.581430 -0.505976
O11   O     O_R   0.680360 0.500000 0.418570 -0.456086
O12   O     O_R   0.319640 0.500010 0.418560 -0.511175
O13   O     O_R   0.680360 0.499990 0.581440 -0.508706
O14   O     O_3   0.676405 0.595239 0.263487 -0.547139

loop_
_geom_bond_atom_site_label_1
_geom_bond_atom_site_label_2
_ccdc_geom_bond_type
C53   H48   S    
C37   H12   S    
C34   C56   A    
C39   C45   A    
C23   C45   A    
C48   H33   S    
C18   H58   S    
C27   C29   A    
C41   C42   S    
C30   C45   S    
C2    C4    A    
C8    H34   S    
C6    O6    S    
C1    O8    A    
C16   O10   A    
C41   H18   S    
C13   H56   S    
Cu1   O9    S    
C53   C54   S    
C31   H5    S    
C48   H35   S    
C17   C23   S    
Cu1   N2    S    
C17   O13   A    
C35   C37   A    
C1    O1    A    
C11   C14   A    
C46   H30   S    
C51   H41   S    
C54   H51   S    
C33   C36   A    
C18   C20   A    
C9    C58   A    
Cu2   O12   S    
C21   H2    S    
C16   C34   S    
C49   H36   S    
C14   O14   S    
C35   H8    S    
C15   O2    S    
C40   O14   S    
C17   O11   A    
C39   H10   S    
C31   C33   A    
C4    C12   S    
C36   H1    S    
C9    C10   S    
C20   H60   S    
C33   H7    S    
C18   N1    A    
C57   H57   S    
C3    C60   A    
C5    O5    S    
C52   H44   S    
C43   O2    S    
Cu2   N1    S    
C44   C46   S    
Cu1   O10   S    
C57   H54   S    
C19   N2    A    
C15   N2    A    
C51   C52   S    
C32   C35   A    
Cu2   O8    S    
C42   H22   S    
C4    C6    A    
C12   O7    A    
C5    C7    A    
C2    C59   A    
C6    C8    A    
C46   H29   S    
C51   H42   S    
C60   H14   S    
C34   C39   A    
C13   C24   A    
C1    C3    S    
Cu2   O11   S    
C28   H4    S    
C43   C44   S    
C27   H3    S    
C49   H37   S    
C58   H11   S    
C47   C48   S    
C55   O6    S    
C41   H19   S    
C38   C56   A    
C50   C51   S    
C47   H31   S    
C40   H17   S    
C54   H50   S    
C26   O4    S    
C48   C49   S    
C55   H52   S    
C20   C22   A    
C52   H43   S    
C50   H40   S    
C12   O9    A    
C55   C57   S    
C11   H45   S    
C40   H16   S    
C53   O5    S    
C16   O12   A    
C59   H13   S    
C57   H55   S    
C53   H47   S    
C7    C9    A    
C38   H9    S    
C19   H59   S    
C14   N1    A    
C19   C21   A    
C43   H24   S    
Cu2   O7    S    
C42   H21   S    
C3    C5    A    
Cu1   O1    S    
C26   C37   A    
C47   O3    S    
C46   H28   S    
C29   C56   S    
C25   C27   A    
C23   C38   A    
C11   C22   A    
C26   C28   A    
C32   H6    S    
C43   H25   S    
C13   C15   A    
C10   C59   A    
C25   O3    S    
C29   C31   A    
C2    H15   S    
C49   H38   S    
C30   C32   A    
Cu1   O13   S    
C7    H23   S    
C55   H53   S    
C28   C30   A    
C47   H32   S    
C54   H49   S    
C22   C24   S    
Cu1   Cu2   S    
C25   C36   A    
C50   O4    S    
C52   H46   S    
C50   H39   S    
C8    C10   A    
C21   C24   A    
C40   C41   S    
C44   H26   S    
C58   C60   A    
C44   H27   S    
C42   H20   S    
