data_mof_unit_27566.cif
_audit_creation_date              2012-12-10T18:29:36-0500
_audit_creation_method            fapswitch 2.2
_symmetry_space_group_name_H-M    P1
_symmetry_Int_Tables_number       1
_space_group_crystal_system       triclinic
_cell_length_a                    11.493392
_cell_length_b                    15.17961
_cell_length_c                    15.185191
_cell_angle_alpha                 81.41962
_cell_angle_beta                  92.945816
_cell_angle_gamma                 103.60384
_cell_volume                      2545.77598825

loop_
_atom_site_label
_atom_site_type_symbol
_atom_type_description
_atom_site_fract_x
_atom_site_fract_y
_atom_site_fract_z
_atom_type_partial_charge
C1    C     C_R   0.478670 0.441413 0.663625 0.873600
C2    C     C_R   0.525632 0.558045 0.337914 0.913894
C3    C     C_R   0.458399 0.336789 0.946091 -0.057323
C4    C     C_R   0.689165 0.612846 0.082679 -0.064014
C5    C     C_R   0.598053 0.478861 0.971812 -0.133282
C6    C     C_R   0.567070 0.461860 0.060679 -0.128014
C7    C     C_R   0.518023 0.369534 0.096992 0.354378
C8    C     C_R   0.702903 0.546320 0.946852 0.379790
C9    C     C_R   0.474507 0.304861 0.037938 0.374450
C10   C     C_R   0.750064 0.613260 0.002873 0.407518
C11   C     C_R   0.642717 0.829645 0.662897 0.383612
C12   C     C_R   0.363179 0.168676 0.335931 0.410664
C13   C     C_R   0.650455 0.757022 0.617209 0.191378
C14   C     C_R   0.362320 0.248465 0.373353 0.088984
C15   C     C_R   0.505509 0.794665 0.509851 0.134832
C16   C     C_R   0.484908 0.202237 0.496218 0.137406
C17   C     C_R   0.528600 0.882718 0.536901 -0.113866
C18   C     C_R   0.460309 0.112964 0.471063 -0.154193
C19   C     C_R   0.571600 0.890099 0.624449 -0.072114
C20   C     C_R   0.422149 0.104967 0.382214 -0.000461
C21   C     C_R   0.502570 0.960895 0.484064 0.071318
C22   C     C_R   0.486139 0.034475 0.525237 0.067330
C23   C     C_R   0.717598 0.501004 0.500313 0.869204
C24   C     C_R   0.282387 0.498981 0.499551 0.876552
C25   C     C_R   0.488677 0.023884 0.618909 -0.328774
C26   C     C_R   0.502348 0.970671 0.390994 -0.391135
C27   C     C_R   0.541124 0.956780 0.668687 0.446073
C28   C     C_R   0.450732 0.036272 0.340119 0.513204
C29   C     C_1   0.838901 0.502751 0.500225 -0.201308
C30   C     C_1   0.160928 0.496711 0.499766 -0.198113
C31   C     C_1   0.940870 0.501077 0.500054 -0.015059
C32   C     C_1   0.058763 0.497778 0.499996 -0.009097
C33   C     C_R   0.460345 0.403624 0.760666 -0.190416
C34   C     C_R   0.571782 0.591974 0.246752 -0.169099
C35   C     C_R   0.380671 0.283926 0.887145 0.111950
C36   C     C_R   0.721247 0.683520 0.138396 0.116460
C37   C     C_R   0.392086 0.312925 0.792777 -0.007090
C38   C     C_R   0.673882 0.665737 0.226257 -0.037959
C39   C     C_R   0.510688 0.461908 0.823207 0.382738
C40   C     C_R   0.523239 0.537868 0.181690 0.410021
C41   C     C_R   0.524808 0.425330 0.912691 -0.119858
C42   C     C_R   0.593900 0.536330 0.109522 -0.134561
H1    H     H_    0.450520 0.067499 0.653483 0.132775
H2    H     H_    0.539989 0.926195 0.357406 0.141554
N1    N     N_R   0.566020 0.731700 0.552730 -0.147969
N2    N     N_R   0.433980 0.268300 0.447270 -0.140844
O1    O     O_R   0.466720 0.383110 0.605620 -0.650555
O2    O     O_R   0.533280 0.616890 0.394380 -0.654331
O3    O     O_R   0.509090 0.531900 0.639510 -0.528852
O4    O     O_R   0.490910 0.468100 0.360490 -0.574624
O5    O     O_R   0.644370 0.425610 0.483050 -0.617834
O6    O     O_R   0.355630 0.574390 0.516950 -0.614968
O7    O     O_R   0.686740 0.574390 0.516930 -0.636022
O8    O     O_R   0.313260 0.425610 0.483070 -0.629346
Zn1   Zn    Zn3+2 0.471710 0.400660 0.477370 0.916028
Zn2   Zn    Zn3+2 0.528290 0.599340 0.522630 0.926151
O9    O     O_3   0.459816 0.211947 0.066109 -0.766756
H3    H     H_    0.487578 0.201194 0.128702 0.411817
O10   O     O_3   0.856948 0.675919 0.982676 -0.786887
H4    H     H_    0.882895 0.673061 0.922248 0.385010
O11   O     O_3   0.407883 0.484871 0.192140 -0.777515
H5    H     H_    0.373918 0.471818 0.132880 0.336121
O12   O     O_3   0.543481 0.555336 0.796241 -0.745064
H6    H     H_    0.527636 0.587279 0.845156 0.341082
C43   C     C_3   0.741407 0.718649 0.298258 -0.368551
C44   C     C_3   0.693612 0.803129 0.308409 -0.327417
C45   C     C_3   0.781447 0.867666 0.362109 -0.895603
H7    H     H_    0.794954 0.832418 0.429884 0.255163
H8    H     H_    0.869014 0.891601 0.328308 0.265620
H9    H     H_    0.746183 0.928442 0.368243 0.253078
H10   H     H_    0.677729 0.841435 0.242446 0.214054
H11   H     H_    0.606545 0.781659 0.342349 0.235391
H12   H     H_    0.740296 0.674016 0.362961 0.216700
H13   H     H_    0.838445 0.739163 0.283168 0.188679
C46   C     C_3   0.331881 0.246843 0.728532 -0.371104
C47   C     C_3   0.225279 0.276204 0.676599 -0.302612
C48   C     C_3   0.162193 0.204224 0.619235 -0.883853
H14   H     H_    0.225667 0.193671 0.571220 0.264986
H15   H     H_    0.125589 0.138218 0.661710 0.254559
H16   H     H_    0.087033 0.227427 0.581667 0.244820
H17   H     H_    0.159785 0.287672 0.722018 0.198778
H18   H     H_    0.254348 0.342058 0.633424 0.244906
H19   H     H_    0.398594 0.237725 0.682703 0.209049
H20   H     H_    0.300473 0.176483 0.763467 0.187194
C49   C     C_3   0.281759 0.201363 0.925598 -0.335458
C50   C     C_3   0.153669 0.208549 0.895546 -0.417483
C51   C     C_3   0.060619 0.158609 0.965491 -0.861041
H21   H     H_    0.065083 0.085655 0.982014 0.271803
H22   H     H_    0.076339 0.191520 0.027013 0.267923
H23   H     H_    0.969507 0.161549 0.939026 0.256158
H24   H     H_    0.148272 0.281513 0.881718 0.236107
H25   H     H_    0.128225 0.175541 0.834919 0.238527
H26   H     H_    0.299783 0.136554 0.910357 0.193810
H27   H     H_    0.279999 0.194795 0.998685 0.274915
C52   C     C_3   0.800972 0.777582 0.104898 -0.363689
C53   C     C_3   0.741188 0.828084 0.026509 -0.288061
C54   C     C_3   0.823561 0.919295 0.989868 -0.831994
H28   H     H_    0.846404 0.964435 0.042490 0.250386
H29   H     H_    0.907190 0.907799 0.964909 0.272542
H30   H     H_    0.777734 0.954193 0.933803 0.268838
H31   H     H_    0.716559 0.786352 0.971437 0.265542
H32   H     H_    0.657470 0.841308 0.049667 0.209307
H33   H     H_    0.819543 0.823699 0.156116 0.188394
H34   H     H_    0.891423 0.771743 0.088755 0.256803
O13   O     O_3   0.521721 0.339075 0.187316 -0.785895
H35   H     H_    0.585169 0.382393 0.215954 0.355202
O14   O     O_3   0.767416 0.542501 0.873872 -0.802181
H36   H     H_    0.742935 0.480474 0.856114 0.344341
O15   O     O_3   0.554020 0.951192 0.760171 -0.763226
H37   H     H_    0.529130 0.003408 0.779712 0.327435
O16   O     O_3   0.436494 0.038281 0.248906 -0.705992
H38   H     H_    0.460135 0.984785 0.231040 0.323378
C55   C     C_3   0.590451 0.230020 0.559259 -0.359649
C56   C     C_3   0.709485 0.233261 0.515767 -0.322838
C57   C     C_3   0.815618 0.259367 0.578866 -0.883846
H39   H     H_    0.814112 0.323857 0.604453 0.266442
H40   H     H_    0.812998 0.204013 0.636049 0.260504
H41   H     H_    0.900201 0.269585 0.542605 0.252845
H42   H     H_    0.709534 0.165278 0.496946 0.222375
H43   H     H_    0.721086 0.283853 0.454086 0.243488
H44   H     H_    0.593511 0.295909 0.579957 0.253622
H45   H     H_    0.585001 0.186305 0.623989 0.165521
C58   C     C_3   0.398405 0.766000 0.448116 -0.356569
C59   C     C_3   0.279735 0.757655 0.494637 -0.312183
C60   C     C_3   0.172752 0.736806 0.430987 -0.879096
H46   H     H_    0.175548 0.795765 0.377493 0.265628
H47   H     H_    0.173539 0.675171 0.400069 0.266856
H48   H     H_    0.088246 0.724404 0.468032 0.251637
H49   H     H_    0.269120 0.702974 0.552973 0.245922
H50   H     H_    0.279592 0.822913 0.519448 0.223105
H51   H     H_    0.398703 0.812219 0.385353 0.170797
H52   H     H_    0.399917 0.703321 0.421977 0.247254
C61   C     C_3   0.280878 0.309238 0.331154 -0.304003
C62   C     C_3   0.149132 0.264776 0.352001 -0.431722
C63   C     C_3   0.067345 0.326804 0.311693 -0.837532
H53   H     H_    0.091416 0.393001 0.338614 0.268719
H54   H     H_    0.075083 0.339977 0.238039 0.266614
H55   H     H_    0.972976 0.293087 0.328721 0.251540
H56   H     H_    0.121380 0.198580 0.325273 0.254620
H57   H     H_    0.137504 0.251165 0.425195 0.237206
H58   H     H_    0.302485 0.376065 0.352582 0.284599
H59   H     H_    0.293021 0.326048 0.258351 0.225357
C64   C     C_3   0.770990 0.733096 0.617738 -0.433241
C65   C     C_3   0.788114 0.659165 0.693754 -0.163995
C66   C     C_3   0.915871 0.645556 0.695464 -0.902051
H60   H     H_    0.937730 0.629512 0.630167 0.259473
H61   H     H_    0.980703 0.708494 0.710608 0.264641
H62   H     H_    0.925468 0.587937 0.747420 0.286056
H63   H     H_    0.770810 0.680119 0.757919 0.289986
H64   H     H_    0.724973 0.593405 0.685586 0.269734
H65   H     H_    0.787503 0.714807 0.552603 0.210566
H66   H     H_    0.842332 0.795962 0.623433 0.197281
O17   O     O_3   0.717319 0.846007 0.735877 -0.755473
H67   H     H_    0.739352 0.912745 0.738102 0.363141
O18   O     O_3   0.300166 0.147385 0.258848 -0.714846
H68   H     H_    0.302375 0.203743 0.216618 0.352692

loop_
_geom_bond_atom_site_label_1
_geom_bond_atom_site_label_2
_ccdc_geom_bond_type
C24   O6    A    
C63   H55   S    
C30   C32   T    
C51   H21   S    
C4    C36   A    
C53   H32   S    
C58   H52   S    
C11   C13   A    
C52   C53   S    
C21   C26   A    
C16   C55   S    
C25   H1    S    
C56   C57   S    
C26   H2    S    
C58   C59   S    
C39   C41   A    
C48   H14   S    
C11   C19   A    
C61   H59   S    
C33   C39   A    
C15   C58   S    
C34   C40   A    
C23   C29   S    
C35   C37   A    
C50   H24   S    
C62   H57   S    
C5    C6    A    
C46   H20   S    
C48   H16   S    
C24   O8    A    
C64   C65   S    
C54   H28   S    
C43   H12   S    
C18   C20   A    
O2    Zn2   S    
C65   H64   S    
C2    O4    A    
C54   H29   S    
O6    Zn2   S    
C49   H26   S    
C44   H11   S    
C55   H45   S    
C31   C32   S    
N1    Zn2   S    
C57   H40   S    
C22   C25   A    
C1    O3    A    
N2    Zn1   S    
C60   H48   S    
O14   H36   S    
C7    O13   S    
C19   C27   A    
O5    Zn1   S    
C56   H42   S    
C2    C34   S    
C40   C42   A    
C44   C45   S    
C37   C46   S    
O10   H4    S    
C34   C38   A    
C53   H31   S    
C66   H61   S    
C52   H33   S    
C23   O7    A    
C48   H15   S    
C28   O16   S    
C1    C33   S    
C45   H7    S    
C63   H53   S    
C47   C48   S    
C14   N2    A    
C47   H18   S    
C62   H56   S    
C11   O17   S    
C50   C51   S    
C1    O1    A    
C20   C28   A    
C2    O2    A    
C49   C50   S    
C33   C37   A    
C43   H13   S    
C45   H8    S    
C46   C47   S    
C65   H63   S    
C3    C9    A    
C49   H27   S    
C23   O5    A    
C44   H10   S    
C38   C43   S    
C3    C35   A    
C57   H41   S    
C53   C54   S    
C12   C20   A    
C59   H50   S    
C62   C63   S    
C16   C18   A    
C64   H66   S    
C12   C14   A    
C51   H22   S    
C60   H46   S    
C15   N1    A    
C12   O18   S    
C16   N2    A    
C8    O14   S    
C66   H60   S    
C66   H62   S    
C52   H34   S    
O1    Zn1   S    
C55   C56   S    
O7    Zn2   S    
C63   H54   S    
C5    C41   A    
O8    Zn1   S    
C3    C41   A    
C54   H30   S    
O16   H38   S    
C58   H51   S    
C18   C22   A    
C26   C28   A    
C65   C66   S    
C47   H17   S    
C5    C8    A    
C15   C17   A    
C6    C7    A    
C14   C61   S    
C25   C27   A    
O3    Zn2   S    
C39   O12   S    
O13   H35   S    
C61   H58   S    
O4    Zn1   S    
C45   H9    S    
C36   C38   A    
C10   O10   S    
C29   C31   T    
C50   H25   S    
O15   H37   S    
C13   N1    A    
C35   C49   S    
C36   C52   S    
C46   H19   S    
O9    H3    S    
C61   C62   S    
C4    C42   A    
C64   H65   S    
C17   C19   A    
C59   H49   S    
C9    O9    S    
C13   C64   S    
O11   H5    S    
C24   C30   S    
C40   O11   S    
O12   H6    S    
C7    C9    A    
C55   H44   S    
C27   O15   S    
C8    C10   A    
C43   C44   S    
C6    C42   A    
C51   H23   S    
O18   H68   S    
C60   H47   S    
O17   H67   S    
C21   C22   A    
C4    C10   A    
C56   H43   S    
C57   H39   S    
C59   C60   S    
C17   C21   A    
