data_mof_unit_37886.cif
_audit_creation_date              2012-12-10T20:51:47-0500
_audit_creation_method            fapswitch 2.2
_symmetry_space_group_name_H-M    P1
_symmetry_Int_Tables_number       1
_space_group_crystal_system       triclinic
_cell_length_a                    8.105706
_cell_length_b                    8.91803
_cell_length_c                    16.814816
_cell_angle_alpha                 89.495152
_cell_angle_beta                  95.930036
_cell_angle_gamma                 90.070624
_cell_volume                      1208.94007483

loop_
_atom_site_label
_atom_site_type_symbol
_atom_type_description
_atom_site_fract_x
_atom_site_fract_y
_atom_site_fract_z
_atom_type_partial_charge
C1    C     C_R   0.499912 0.218011 0.499993 0.960248
C2    C     C_R   0.530681 0.420513 0.134909 -0.273465
C3    C     C_R   0.586451 0.530595 0.905382 0.057455
C4    C     C_R   0.454967 0.546769 0.096094 0.085721
C5    C     C_R   0.683585 0.428260 0.867734 0.451361
C6    C     C_R   0.373774 0.652838 0.139044 0.407985
C7    C     C_R   0.657842 0.413191 0.784858 0.253730
C8    C     C_R   0.372938 0.634571 0.221605 0.228620
C9    C     C_1   0.499885 0.065218 0.499959 -0.094403
C10   C     C_1   0.500083 0.934774 0.499953 -0.089969
C11   C     C_3   0.931763 0.401610 0.945886 0.114273
C12   C     C_R   0.500079 0.781986 0.499972 0.964066
C13   C     C_3   0.067705 0.394072 0.889693 -0.739923
C14   C     C_3   0.405129 0.890993 0.093536 0.149836
C15   C     C_3   0.315113 0.023716 0.051419 -0.721398
C16   C     C_R   0.523719 0.498598 0.653693 1.008897
C17   C     C_R   0.476506 0.502832 0.346455 1.014358
C18   C     C_R   0.545460 0.509391 0.739827 -0.297759
C19   C     C_R   0.458157 0.512405 0.260426 -0.276080
C20   C     C_R   0.461492 0.621984 0.777390 0.330428
C21   C     C_R   0.533970 0.403757 0.216763 0.328373
C22   C     C_R   0.482056 0.631968 0.859768 -0.263927
Cl1   Cl    Cl    0.631476 0.243619 0.262463 -0.578981
Cl2   Cl    Cl    0.331010 0.754216 0.723596 -0.556499
Cl3   Cl    Cl    0.760434 0.267039 0.739373 -0.525818
Cl4   Cl    Cl    0.273343 0.770822 0.275569 -0.537945
H1    H     H_    0.588605 0.335550 0.101465 0.212914
H2    H     H_    0.214752 0.062818 0.086467 0.271534
H3    H     H_    0.403652 0.117243 0.045460 0.208935
H4    H     H_    0.260351 0.990637 0.990806 0.258514
H5    H     H_    0.413022 0.716416 0.888347 0.219147
H6    H     H_    0.976909 0.342111 0.002245 0.181091
H7    H     H_    0.911383 0.520564 0.962346 0.145965
H8    H     H_    0.031275 0.460064 0.834381 0.270091
H9    H     H_    0.184471 0.441508 0.919546 0.221246
H10   H     H_    0.090038 0.275770 0.873759 0.286868
H11   H     H_    0.507145 0.857155 0.057863 0.146671
H12   H     H_    0.459438 0.928103 0.153754 0.198152
N1    N     N_1   0.073640 0.500030 0.499990 0.009705
N2    N     N_1   0.926360 0.499970 0.500010 0.008150
N3    N     N_2   0.586705 0.519711 0.988911 -0.141140
N4    N     N_2   0.457329 0.568041 0.013380 -0.145449
O1    O     O_R   0.636850 0.285340 0.500000 -0.593501
O2    O     O_3   0.291359 0.772356 0.099847 -0.570021
O3    O     O_R   0.363150 0.714660 0.500000 -0.586485
O4    O     O_R   0.363100 0.285350 0.500000 -0.622770
O5    O     O_R   0.636900 0.714650 0.500000 -0.625679
O6    O     O_R   0.652140 0.498630 0.616140 -0.595038
O7    O     O_R   0.347860 0.501370 0.383860 -0.591237
O8    O     O_R   0.378390 0.498650 0.616130 -0.586689
O9    O     O_R   0.621610 0.501350 0.383870 -0.593225
O10   O     O_3   0.786363 0.327727 0.912333 -0.569587
Zn1   Zn    Zn3+2 0.682780 0.499990 0.500010 1.088356
Zn2   Zn    Zn3+2 0.317220 0.500010 0.499990 1.094294

loop_
_geom_bond_atom_site_label_1
_geom_bond_atom_site_label_2
_ccdc_geom_bond_type
O3    Zn2   S    
C2    C4    A    
N2    Zn1   S    
C5    O10   S    
C13   H9    S    
C2    H1    S    
C17   O9    A    
C14   H12   S    
C8    Cl4   S    
C9    C10   T    
C7    Cl3   S    
O5    Zn1   S    
C7    C18   A    
O4    Zn2   S    
C2    C21   A    
O1    Zn1   S    
C13   H8    S    
C6    O2    S    
C14   H11   S    
C11   C13   S    
C16   O6    A    
C15   H2    S    
O8    Zn2   S    
C4    N4    S    
C13   H10   S    
C12   O5    A    
C10   C12   S    
C16   C18   S    
C17   C19   S    
C16   O8    A    
C11   H6    S    
C15   H3    S    
C18   C20   A    
C21   Cl1   S    
O6    Zn1   S    
C1    O4    A    
N1    Zn2   S    
C22   H5    S    
O7    Zn2   S    
C8    C19   A    
C3    C5    A    
C11   H7    S    
C1    C9    S    
C15   H4    S    
C14   O2    S    
C4    C6    A    
N3    N4    D    
C17   O7    A    
N1    N2    T    
C5    C7    A    
C14   C15   S    
C3    N3    S    
C3    C22   A    
C6    C8    A    
C11   O10   S    
C19   C21   A    
C1    O1    A    
C20   Cl2   S    
C20   C22   A    
C12   O3    A    
O9    Zn1   S    
