data_mof_unit_52505.cif
_audit_creation_date              2012-12-10T20:48:17-0500
_audit_creation_method            fapswitch 2.2
_symmetry_space_group_name_H-M    P1
_symmetry_Int_Tables_number       1
_space_group_crystal_system       triclinic
_cell_length_a                    10.788291
_cell_length_b                    8.90649
_cell_length_c                    8.083311
_cell_angle_alpha                 90.011036
_cell_angle_beta                  90.254065
_cell_angle_gamma                 89.978547
_cell_volume                      776.683747306

loop_
_atom_site_label
_atom_site_type_symbol
_atom_type_description
_atom_site_fract_x
_atom_site_fract_y
_atom_site_fract_z
_atom_type_partial_charge
C1    C     C_R   0.500022 0.217933 0.499990 0.897334
C2    C     C_R   0.258094 0.484538 0.499429 0.866614
C3    C     C_R   0.741972 0.485160 0.500250 0.864457
C4    C     C_R   0.500065 0.782018 0.500012 0.983078
C5    C     C_1   0.500067 0.065212 0.499989 -0.190031
C6    C     C_3   0.074021 0.368688 0.646750 0.171398
C7    C     C_3   0.070988 0.409555 0.322684 0.226240
C8    C     C_3   0.929049 0.395190 0.668548 0.242685
C9    C     C_3   0.926026 0.384204 0.339771 0.183228
C10   C     C_1   0.500085 0.934750 0.500022 -0.174716
C11   C     C_3   0.073877 0.650301 0.517091 -0.124919
C12   C     C_3   0.926742 0.651513 0.498730 -0.114620
C13   C     C_3   0.121633 0.479457 0.497814 -0.143132
C14   C     C_3   0.878308 0.479770 0.500795 -0.166026
N1    N     N_1   0.500000 0.500030 0.073640 -0.048632
N2    N     N_1   0.500000 0.500030 0.926360 -0.046408
O1    O     O_R   0.500000 0.285340 0.636850 -0.630601
O2    O     O_R   0.500000 0.285340 0.363150 -0.628052
O3    O     O_R   0.314790 0.499970 0.636880 -0.632833
O4    O     O_R   0.314790 0.499970 0.363120 -0.642007
O5    O     O_R   0.685210 0.499970 0.636880 -0.639051
O6    O     O_R   0.685210 0.499970 0.363120 -0.632506
O7    O     O_R   0.500000 0.714650 0.636900 -0.600380
O8    O     O_R   0.500000 0.714650 0.363100 -0.600527
Zn1   Zn    Zn3+2 0.500000 0.499990 0.682780 0.972157
Zn2   Zn    Zn3+2 0.500000 0.499990 0.317220 0.969983
N3    N     N_3   0.135389 0.389692 0.810405 -0.440204
H1    H     H_    0.216681 0.326442 0.822779 0.198499
H2    H     H_    0.155989 0.499635 0.841071 0.219060
N4    N     N_3   0.094494 0.506619 0.176761 -0.456583
H3    H     H_    0.186845 0.520889 0.143808 0.224443
H4    H     H_    0.045306 0.606496 0.170320 0.205542
N5    N     N_3   0.909395 0.484351 0.820903 -0.421878
H5    H     H_    0.817378 0.501451 0.853994 0.226720
H6    H     H_    0.961205 0.581155 0.835846 0.199175
N6    N     N_3   0.866578 0.421464 0.178449 -0.438322
H7    H     H_    0.787715 0.356809 0.153236 0.208656
H8    H     H_    0.844049 0.533019 0.160336 0.217233
N7    N     N_3   0.099630 0.211109 0.600122 -0.417894
H9    H     H_    0.084280 0.140222 0.701337 0.209574
H10   H     H_    0.194359 0.198798 0.576377 0.172171
N8    N     N_3   0.131003 0.264052 0.284273 -0.429380
H11   H     H_    0.102713 0.228651 0.166503 0.214461
H12   H     H_    0.226945 0.273791 0.275240 0.195553
N9    N     N_3   0.863954 0.251700 0.705173 -0.440012
H13   H     H_    0.887023 0.155438 0.639740 0.218959
H14   H     H_    0.767764 0.261899 0.707066 0.196343
N10   N     N_3   0.899146 0.223485 0.366503 -0.436767
H15   H     H_    0.916752 0.160875 0.259658 0.221404
H16   H     H_    0.803907 0.210083 0.385783 0.154993
C15   C     C_1   0.116833 0.721202 0.673568 0.145652
N11   N     N_1   0.150561 0.779715 0.793648 -0.207454
C16   C     C_1   0.135209 0.752917 0.396683 0.178337
N12   N     N_1   0.183129 0.833420 0.304384 -0.190554
C17   C     C_1   0.865942 0.744940 0.628380 0.166957
N13   N     N_1   0.818454 0.818347 0.728022 -0.196835
C18   C     C_1   0.884710 0.735224 0.349798 0.145725
N14   N     N_1   0.851840 0.804049 0.236120 -0.206308

loop_
_geom_bond_atom_site_label_1
_geom_bond_atom_site_label_2
_ccdc_geom_bond_type
C9    N6    S    
C6    C8    S    
C9    C14   S    
C7    N8    S    
N2    Zn1   S    
N3    H2    S    
C3    O6    A    
C1    O1    A    
C6    N3    S    
C11   C16   S    
C11   C12   S    
N3    H1    S    
O1    Zn1   S    
C17   N13   T    
N10   H16   S    
N5    H5    S    
C18   N14   T    
C5    C10   T    
N7    H10   S    
C7    N4    S    
C16   N12   T    
C6    C13   S    
N4    H4    S    
C11   C13   S    
C1    O2    A    
C3    C14   S    
N8    H12   S    
O3    Zn1   S    
C12   C18   S    
N6    H8    S    
N10   H15   S    
N5    H6    S    
C12   C14   S    
C8    N5    S    
O7    Zn1   S    
N4    H3    S    
C4    O8    A    
C1    C5    S    
C3    O5    A    
C12   C17   S    
C11   C15   S    
N8    H11   S    
C4    C10   S    
C15   N11   T    
C7    C13   S    
C2    C13   S    
C9    N10   S    
O6    Zn2   S    
N9    H14   S    
N7    H9    S    
C7    C9    S    
C4    O7    A    
O5    Zn1   S    
C6    N7    S    
N6    H7    S    
N1    Zn2   S    
C8    C14   S    
C2    O3    A    
N9    H13   S    
C2    O4    A    
N1    N2    T    
C8    N9    S    
O8    Zn2   S    
O4    Zn2   S    
O2    Zn2   S    
