data_mof_unit_17555.cif
_audit_creation_date              2012-12-10T19:00:46-0500
_audit_creation_method            fapswitch 2.2
_symmetry_space_group_name_H-M    P1
_symmetry_Int_Tables_number       1
_space_group_crystal_system       triclinic
_cell_length_a                    15.10131
_cell_length_b                    10.822197
_cell_length_c                    9.539348
_cell_angle_alpha                 90.021415
_cell_angle_beta                  90.272008
_cell_angle_gamma                 90.245817
_cell_volume                      1558.97742237

loop_
_atom_site_label
_atom_site_type_symbol
_atom_type_description
_atom_site_fract_x
_atom_site_fract_y
_atom_site_fract_z
_atom_type_partial_charge
C1    C     C_R   0.501136 0.262387 0.500033 0.798030
C2    C     C_R   0.906012 0.501375 0.371806 0.116843
C3    C     C_R   0.954764 0.495859 0.755208 -0.214181
C4    C     C_R   0.047118 0.496020 0.754528 -0.173289
C5    C     C_R   0.093084 0.498240 0.627134 0.109847
C6    C     C_R   0.046013 0.500324 0.499099 -0.020380
C7    C     C_R   0.091615 0.502913 0.370314 0.001134
C8    C     C_R   0.043872 0.504695 0.243633 -0.147848
C9    C     C_R   0.951686 0.503743 0.244456 -0.239367
C10   C     C_R   0.185352 0.498263 0.625707 -0.330898
C11   C     C_R   0.231322 0.500737 0.498135 -0.187462
C12   C     C_R   0.328470 0.500252 0.499496 0.846475
C13   C     C_R   0.184062 0.503602 0.370356 0.544517
C14   C     C_R   0.495781 0.063884 0.625138 0.119913
C15   C     C_R   0.508353 0.129356 0.500838 -0.100812
C16   C     C_R   0.531248 0.064719 0.378642 -0.207726
C17   C     C_R   0.530861 0.935913 0.378683 -0.211566
C18   C     C_R   0.507612 0.871046 0.500823 -0.115110
C19   C     C_R   0.495221 0.936603 0.625152 0.221424
C20   C     C_3   0.419864 0.930813 0.726103 -0.415843
C21   C     C_3   0.420973 0.070979 0.726595 -0.502591
C22   C     C_R   0.574525 0.532217 0.074299 0.146121
C23   C     C_R   0.500835 0.737726 0.500046 0.810037
C24   C     C_R   0.430178 0.454071 0.073824 -0.020569
C25   C     C_R   0.430112 0.454183 0.925015 -0.055879
C26   C     C_R   0.574526 0.532377 0.927034 0.143025
C27   C     C_3   0.623858 0.652215 0.922838 0.434344
C28   C     C_3   0.623623 0.651712 0.081985 -0.515333
C29   C     C_R   0.671357 0.499758 0.500307 0.811915
C30   C     C_R   0.813879 0.500597 0.373161 -0.246804
C31   C     C_R   0.768122 0.499287 0.500712 -0.069038
C32   C     C_R   0.815050 0.497503 0.628061 -0.244541
C33   C     C_R   0.907400 0.497704 0.628490 0.111614
C34   C     C_R   0.953124 0.499848 0.499822 0.095615
Cu1   Cu    Cu3+1 0.500000 0.499980 0.640670 0.981545
Cu2   Cu    Cu3+1 0.500000 0.500020 0.359330 0.975028
H1    H     H_    0.777964 0.500938 0.274569 0.149920
H2    H     H_    0.545364 0.887850 0.282193 0.168491
H3    H     H_    0.358746 0.890678 0.678715 0.184402
H4    H     H_    0.439332 0.890456 0.828683 0.258437
H5    H     H_    0.360355 0.112544 0.680048 0.199246
H6    H     H_    0.442051 0.111082 0.828815 0.210349
H7    H     H_    0.373302 0.417906 0.128692 0.190277
H8    H     H_    0.373024 0.418425 0.869307 0.135802
H9    H     H_    0.690808 0.644487 0.875955 0.058347
H10   H     H_    0.690811 0.641049 0.128083 0.140664
H11   H     H_    0.779910 0.495700 0.726856 0.141043
H12   H     H_    0.583433 0.726811 0.128342 0.231012
H13   H     H_    0.920406 0.494236 0.854685 0.132750
H14   H     H_    0.082588 0.494452 0.853539 0.145757
H15   H     H_    0.221279 0.496281 0.724361 0.183433
H16   H     H_    0.077546 0.506632 0.143631 0.188854
H17   H     H_    0.916111 0.505029 0.145514 0.135489
H18   H     H_    0.546005 0.113112 0.282105 0.170559
N1    N     N_R   0.500570 0.500930 0.147930 -0.173609
N2    N     N_R   0.500570 0.500890 0.852020 -0.162007
O1    O     O_R   0.500000 0.319640 0.618810 -0.584574
O2    O     O_R   0.500010 0.319680 0.381230 -0.591785
O3    O     O_R   0.370250 0.499950 0.618800 -0.607168
O4    O     O_R   0.370260 0.499990 0.381220 -0.525126
O5    O     O_R   0.499990 0.680320 0.618770 -0.513311
O6    O     O_R   0.500000 0.680360 0.381190 -0.586933
O7    O     O_R   0.629740 0.500010 0.618780 -0.594955
O8    O     O_R   0.629750 0.500050 0.381200 -0.588707
F1    F     F_    0.573607 0.747488 0.868658 -0.652518
F2    F     F_    0.227348 0.507423 0.245784 -0.692329

loop_
_geom_bond_atom_site_label_1
_geom_bond_atom_site_label_2
_ccdc_geom_bond_type
Cu1   N2    S    
C11   C12   S    
C29   O7    A    
C22   N1    A    
C1    C15   S    
C1    O1    A    
C8    H16   S    
C31   C32   A    
C19   C20   S    
C25   N2    A    
C23   O5    A    
C30   C31   A    
Cu1   O1    S    
C32   C33   A    
C27   H9    S    
C16   H18   S    
C17   C18   A    
C3    H13   S    
C29   O8    A    
C5    C10   A    
Cu1   O5    S    
Cu2   N1    S    
C22   C28   S    
C1    O2    A    
C24   C25   A    
C24   N1    A    
C4    C5    A    
C11   C13   A    
C28   H10   S    
C26   C27   S    
C6    C7    A    
C21   H5    S    
C10   H15   S    
C14   C21   S    
Cu1   O3    S    
C27   F1    S    
C33   C34   A    
Cu2   O2    S    
C13   F2    S    
C5    C6    A    
C20   H4    S    
C32   H11   S    
Cu2   O6    S    
C9    H17   S    
C10   C11   A    
C3    C33   A    
C15   C16   A    
C12   O4    A    
C6    C34   A    
C7    C13   A    
C2    C9    A    
C2    C30   A    
C20   C21   S    
C25   H8    S    
C30   H1    S    
C29   C31   S    
C7    C8    A    
C22   C26   A    
C17   H2    S    
C27   C28   S    
C24   H7    S    
C20   H3    S    
C14   C15   A    
C18   C19   A    
Cu1   O7    S    
C21   H6    S    
C2    C34   A    
Cu2   O8    S    
C12   O3    A    
C14   C19   A    
C23   O6    A    
C28   H12   S    
C3    C4    A    
C18   C23   S    
C16   C17   A    
C4    H14   S    
C8    C9    A    
Cu2   O4    S    
Cu1   Cu2   S    
C26   N2    A    
