data_mof_unit_14741.cif
_audit_creation_date              2012-10-26T21:10:49-0400
_audit_creation_method            fapswitch 2.2
_symmetry_space_group_name_H-M    P1
_symmetry_Int_Tables_number       1
_space_group_crystal_system       triclinic
_cell_length_a                    10.84171
_cell_length_b                    14.686468
_cell_length_c                    14.72454
_cell_angle_alpha                 65.307437
_cell_angle_beta                  103.298724
_cell_angle_gamma                 102.830071
_cell_volume                      2051.88995613

loop_
_atom_site_label
_atom_site_type_symbol
_atom_type_description
_atom_site_fract_x
_atom_site_fract_y
_atom_site_fract_z
_atom_type_partial_charge
C1    C     C_R   0.476146 0.119610 0.312390 0.571662
C2    C     C_R   0.549632 0.783533 0.970922 -0.154368
C3    C     C_R   0.456116 0.150232 0.129997 -0.201649
C4    C     C_R   0.543895 0.849775 0.870000 -0.201659
C5    C     C_R   0.464246 0.290696 0.177990 0.344243
C6    C     C_R   0.535581 0.709281 0.822014 0.344235
C7    C     C_R   0.477419 0.360296 0.078767 0.047583
C8    C     C_R   0.522371 0.639692 0.921231 0.047588
C9    C     C_R   0.461074 0.321011 0.002948 0.003535
C10   C     C_R   0.538756 0.678985 0.997046 0.003523
C11   C     C_R   0.502859 0.467130 0.051967 0.034054
C12   C     C_R   0.523848 0.880388 0.687610 0.571631
C13   C     C_R   0.496880 0.532858 0.948028 0.034072
C14   C     C_R   0.460928 0.489573 0.874408 -0.095489
C15   C     C_R   0.538797 0.510416 0.125584 -0.095543
C16   C     C_R   0.262879 0.999115 0.502557 0.544263
C17   C     C_R   0.737122 0.000884 0.497445 0.544238
C18   C     C_R   0.449972 0.386045 0.901563 -0.144050
C19   C     C_R   0.549800 0.613947 0.098428 -0.144060
C20   C     C_R   0.711104 0.284148 0.669885 -0.161024
C21   C     C_R   0.288902 0.715854 0.330112 -0.161025
C22   C     C_R   0.678854 0.202750 0.639742 0.039013
C23   C     C_R   0.870559 0.001055 0.495514 0.002684
C24   C     C_R   0.321146 0.797250 0.360258 0.039012
C25   C     C_R   0.519261 0.285396 0.508710 0.063589
C26   C     C_R   0.480745 0.714607 0.491286 0.063642
C27   C     C_R   0.548235 0.371463 0.534922 0.000354
C28   C     C_R   0.451776 0.628542 0.465070 0.000364
C29   C     C_R   0.645896 0.368418 0.618195 0.034804
C30   C     C_R   0.354115 0.631587 0.381798 0.034798
C31   C     C_R   0.483255 0.458861 0.483156 0.008608
C32   C     C_R   0.516760 0.541146 0.516835 0.008625
C33   C     C_R   0.613910 0.533192 0.601053 -0.146717
C34   C     C_R   0.129443 0.998945 0.504490 0.002694
C35   C     C_R   0.386105 0.466815 0.398938 -0.146765
C36   C     C_R   0.677158 0.448815 0.650125 -0.133696
C37   C     C_R   0.322856 0.551191 0.349866 -0.133706
C38   C     C_R   0.350021 0.087726 0.764866 -0.098643
C39   C     C_R   0.649981 0.912305 0.235122 -0.098644
C40   C     C_R   0.262120 0.040396 0.706579 -0.054608
C41   C     C_R   0.737878 0.959623 0.293420 -0.054594
C42   C     C_R   0.185455 0.097935 0.619032 0.051521
C43   C     C_R   0.814545 0.902076 0.380963 0.051522
C44   C     C_R   0.196169 0.202845 0.591967 -0.099018
C45   C     C_R   0.907090 0.951368 0.443856 -0.031306
C46   C     C_R   0.803832 0.797169 0.408015 -0.099035
C47   C     C_R   0.284121 0.249722 0.650603 -0.116667
C48   C     C_R   0.715882 0.750303 0.349369 -0.116661
C49   C     C_R   0.361728 0.192308 0.736451 -0.100246
C50   C     C_R   0.638277 0.807725 0.263522 -0.100238
C51   C     C_R   0.963664 0.049595 0.550204 -0.147476
C52   C     C_R   0.036337 0.950404 0.449800 -0.147469
C53   C     C_R   0.092912 0.048635 0.556146 -0.031302
C54   C     C_R   0.464095 0.187157 0.205033 0.020425
C55   C     C_R   0.535858 0.812837 0.794969 0.020419
C56   C     C_R   0.450306 0.216472 0.029071 -0.154354
Cu1   Cu    Cu3+1 0.466270 0.918260 0.475690 0.966205
Cu2   Cu    Cu3+1 0.533730 0.081740 0.524310 0.966188
F1    F     F_    0.562986 0.679608 0.753911 -0.682252
F2    F     F_    0.436747 0.320323 0.246089 -0.682261
H1    H     H_    0.431138 0.228774 0.780897 0.100537
H2    H     H_    0.443773 0.279518 0.448833 0.169796
H3    H     H_    0.271783 0.862761 0.319827 0.122621
H4    H     H_    0.728213 0.137236 0.680176 0.122614
H5    H     H_    0.786028 0.280934 0.733728 0.093842
H6    H     H_    0.213977 0.719068 0.266269 0.093844
H7    H     H_    0.643581 0.591086 0.631519 0.147499
H8    H     H_    0.356435 0.408920 0.368473 0.147547
H9    H     H_    0.409012 0.043468 0.832187 0.090049
H10   H     H_    0.590995 0.956568 0.167801 0.090033
H11   H     H_    0.254296 0.959307 0.729110 0.098276
H12   H     H_    0.568872 0.771271 0.219063 0.100521
H13   H     H_    0.745701 0.040711 0.270900 0.098275
H14   H     H_    0.137520 0.248309 0.524954 0.110416
H15   H     H_    0.862482 0.751699 0.475026 0.110401
H16   H     H_    0.292922 0.330683 0.629015 0.119514
H17   H     H_    0.707083 0.669344 0.370945 0.119507
H18   H     H_    0.935786 0.086281 0.591314 0.132338
H19   H     H_    0.064214 0.913719 0.408690 0.132342
H20   H     H_    0.428335 0.356610 0.842513 0.108067
H21   H     H_    0.571448 0.643384 0.157477 0.108068
H22   H     H_    0.548312 0.929864 0.850908 0.128074
H23   H     H_    0.439201 0.186128 0.971571 0.114704
H24   H     H_    0.451787 0.070153 0.149089 0.128058
H25   H     H_    0.560774 0.813885 0.028420 0.114706
H26   H     H_    0.437577 0.533457 0.794779 0.194684
H27   H     H_    0.562119 0.466526 0.205213 0.194645
H28   H     H_    0.751242 0.446313 0.714352 0.120822
H29   H     H_    0.248772 0.553693 0.285639 0.120838
H30   H     H_    0.556232 0.720485 0.551162 0.169765
N1    N     N_R   0.584450 0.204570 0.560790 -0.234390
N2    N     N_R   0.415550 0.795430 0.439210 -0.234387
O1    O     O_R   0.455540 0.022090 0.338120 -0.529635
O2    O     O_R   0.544460 0.977910 0.661880 -0.529647
O3    O     O_R   0.512510 0.160150 0.379180 -0.440518
O4    O     O_R   0.487490 0.839850 0.620820 -0.440468
O5    O     O_R   0.291160 0.930970 0.479480 -0.518347
O6    O     O_R   0.708840 0.069030 0.520520 -0.518349
O7    O     O_R   0.348130 0.069020 0.520540 -0.493599
O8    O     O_R   0.651870 0.930980 0.479460 -0.493629

loop_
_geom_bond_atom_site_label_1
_geom_bond_atom_site_label_2
_ccdc_geom_bond_type
C8    C13   A    
C23   C45   A    
C40   H11   S    
C21   H6    S    
C27   C29   A    
C14   C18   A    
Cu2   O6    S    
C6    C55   A    
C1    C54   S    
C39   C41   A    
C38   C49   A    
C36   H28   S    
C15   C19   A    
C29   C36   A    
C17   C23   S    
C35   C37   A    
C47   H16   S    
C42   C53   S    
C3    C54   A    
C16   O5    A    
C26   N2    A    
C33   C36   A    
C2    H25   S    
C50   H12   S    
C16   C34   S    
C11   C15   A    
Cu1   O4    S    
C22   N1    A    
C52   H19   S    
C17   O6    A    
C44   C47   A    
C40   C42   A    
C38   H9    S    
Cu1   O1    S    
C13   C14   A    
C41   C43   A    
C12   O2    A    
C42   C44   A    
C24   N2    A    
C46   H15   S    
C43   C46   A    
C7    C11   A    
C20   C29   A    
C46   C48   A    
C25   N1    A    
C49   H1    S    
C27   C31   A    
C20   H5    S    
C28   C32   A    
C14   H26   S    
C47   C49   A    
C5    C7    A    
C6    C8    A    
C45   C52   A    
Cu1   O8    S    
C22   H4    S    
C30   C37   A    
C51   C53   A    
C48   H17   S    
C2    C4    A    
Cu2   O3    S    
C3    C56   A    
C5    C54   A    
C23   C51   A    
C31   C32   A    
C10   C19   A    
C1    O3    A    
Cu1   O5    S    
C9    C56   A    
C44   H14   S    
C43   C45   S    
C8    C10   A    
C20   C22   A    
C24   H3    S    
C4    C55   A    
C31   C35   A    
C26   H30   S    
C2    C10   A    
C33   H7    S    
C56   H23   S    
C15   H27   S    
Cu2   N1    S    
C7    C9    A    
C5    F2    S    
C34   C52   A    
C6    F1    S    
Cu2   O7    S    
C16   O7    A    
C25   C27   A    
C21   C30   A    
C26   C28   A    
C37   H29   S    
C32   C33   A    
C28   C30   A    
Cu2   O2    S    
C51   H18   S    
C38   C40   A    
C11   C13   A    
C18   H20   S    
Cu1   Cu2   S    
C35   H8    S    
C48   C50   A    
C39   H10   S    
Cu1   N2    S    
C25   H2    S    
C17   O8    A    
C12   C55   S    
C41   H13   S    
C9    C18   A    
C39   C50   A    
C4    H22   S    
C34   C53   A    
C1    O1    A    
C21   C24   A    
C3    H24   S    
C12   O4    A    
C19   H21   S    
