data_mof_unit_52395.cif
_audit_creation_date              2012-12-10T20:45:29-0500
_audit_creation_method            fapswitch 2.2
_symmetry_space_group_name_H-M    P1
_symmetry_Int_Tables_number       1
_space_group_crystal_system       triclinic
_cell_length_a                    10.712442
_cell_length_b                    10.650593
_cell_length_c                    9.860661
_cell_angle_alpha                 89.180748
_cell_angle_beta                  89.78534
_cell_angle_gamma                 91.24894
_cell_volume                      1124.64935217

loop_
_atom_site_label
_atom_site_type_symbol
_atom_type_description
_atom_site_fract_x
_atom_site_fract_y
_atom_site_fract_z
_atom_type_partial_charge
C1    C     C_R   0.507075 0.259786 0.500164 0.920803
C2    C     C_R   0.233459 0.809581 0.081867 -0.193384
C3    C     C_R   0.933934 0.564023 0.394264 -0.244004
C4    C     C_R   0.872587 0.501123 0.501499 -0.078481
C5    C     C_R   0.938342 0.453208 0.613413 -0.017560
C6    C     C_R   0.065734 0.465281 0.612301 -0.232659
C7    C     C_R   0.128080 0.519773 0.501465 -0.053370
C8    C     C_R   0.062611 0.576993 0.394018 0.060450
C9    C     C_R   0.881887 0.443326 0.859726 -0.143643
C10   C     C_R   0.827304 0.381234 0.971669 -0.132119
C11   C     C_R   0.771352 0.262533 0.956637 -0.100840
C12   C     C_R   0.260545 0.508635 0.499951 0.947573
C13   C     C_R   0.770095 0.205693 0.829736 -0.130932
C14   C     C_R   0.822921 0.268183 0.717021 -0.073966
C15   C     C_R   0.879143 0.387516 0.731462 0.175722
C16   C     C_R   0.540167 0.062387 0.621087 0.036053
C17   C     C_R   0.534988 0.129046 0.499133 -0.235657
C18   C     C_R   0.559554 0.066730 0.376736 0.604402
C19   C     C_R   0.560169 0.936608 0.377134 -0.330988
C20   C     C_R   0.536669 0.870981 0.498933 -0.158128
C21   C     C_R   0.542172 0.934167 0.621345 0.125211
C22   C     C_3   0.458393 0.922067 0.742484 -0.443615
C23   C     C_R   0.508250 0.739956 0.499238 0.983233
C24   C     C_3   0.453779 0.063660 0.739632 -0.459438
C25   C     C_R   0.437574 0.407896 0.074016 0.269142
C26   C     C_R   0.570689 0.584506 0.070279 -0.140950
C27   C     C_R   0.570613 0.584616 0.926310 -0.107423
C28   C     C_R   0.437074 0.406783 0.931101 0.123798
C29   C     C_3   0.298159 0.379329 0.933780 -0.247604
C30   C     C_3   0.302338 0.380585 0.087486 -0.569906
C31   C     C_R   0.739924 0.497919 0.500199 0.850954
C32   C     C_R   0.259146 0.833074 0.218056 -0.196749
C33   C     C_R   0.204013 0.757869 0.320293 0.653425
C34   C     C_R   0.123181 0.657058 0.286451 0.013305
C35   C     C_R   0.094118 0.637643 0.149137 -0.290121
C36   C     C_R   0.150436 0.712388 0.047461 -0.131804
H1    H     H_    0.276693 0.867711 0.003105 0.161345
H2    H     H_    0.729626 0.214291 0.043437 0.187842
H3    H     H_    0.728930 0.112794 0.819015 0.138242
H4    H     H_    0.821068 0.223411 0.619083 0.111266
H5    H     H_    0.567862 0.888385 0.281540 0.182745
H6    H     H_    0.366828 0.875748 0.720043 0.240395
H7    H     H_    0.507579 0.883949 0.832703 0.189840
H8    H     H_    0.360746 0.097742 0.709363 0.242935
H9    H     H_    0.497223 0.108124 0.829671 0.197192
H10   H     H_    0.625981 0.654224 0.123335 0.138424
H11   H     H_    0.320902 0.910575 0.244383 0.165092
H12   H     H_    0.625956 0.654280 0.870645 0.142157
H13   H     H_    0.242714 0.456594 0.889185 0.182588
H14   H     H_    0.252256 0.459603 0.131855 0.232831
H15   H     H_    0.283880 0.288818 0.140001 0.207276
H16   H     H_    0.030541 0.562226 0.120562 0.155172
H17   H     H_    0.129692 0.694843 0.941965 0.153034
H18   H     H_    0.880973 0.607825 0.313525 0.156736
H19   H     H_    0.116590 0.427770 0.697032 0.209716
H20   H     H_    0.925388 0.535128 0.872536 0.116319
H21   H     H_    0.828518 0.424999 0.070086 0.139271
N1    N     N_R   0.499160 0.499140 0.142800 -0.102724
N2    N     N_R   0.499160 0.499180 0.857150 -0.106940
O1    O     O_R   0.500020 0.316790 0.614690 -0.617756
O2    O     O_R   0.500000 0.316760 0.385350 -0.554751
O3    O     O_R   0.316770 0.500030 0.614670 -0.618428
O4    O     O_R   0.316750 0.499990 0.385330 -0.634812
O5    O     O_R   0.500000 0.683240 0.614650 -0.624537
O6    O     O_R   0.499980 0.683210 0.385310 -0.633725
O7    O     O_R   0.683250 0.500010 0.614670 -0.622579
O8    O     O_R   0.683230 0.499970 0.385330 -0.629545
Zn1   Zn    Zn3+2 0.500010 0.500020 0.653130 0.963935
Zn2   Zn    Zn3+2 0.499990 0.499980 0.346870 0.973435
F1    F     F_    0.570947 0.128987 0.256006 -0.690150
C37   C     C_2   0.262317 0.250330 0.886199 0.439530
H22   H     H_    0.305070 0.168755 0.932118 0.069514
O9    O     O_2   0.181276 0.235065 0.801201 -0.597676
F2    F     F_    0.226353 0.785857 0.451959 -0.713939

loop_
_geom_bond_atom_site_label_1
_geom_bond_atom_site_label_2
_ccdc_geom_bond_type
C27   H12   S    
C18   F1    S    
C31   O7    A    
O7    Zn1   S    
C30   H15   S    
C16   C21   A    
C35   C36   A    
C6    H19   S    
C7    C8    A    
C29   H13   S    
C25   C28   A    
C31   O8    A    
C26   C27   A    
C24   H9    S    
O5    Zn1   S    
C28   C29   S    
C18   C19   A    
C5    C6    A    
C3    H18   S    
O2    Zn2   S    
C2    C32   A    
C34   C35   A    
C36   H17   S    
C19   C20   A    
C16   C17   A    
C9    C10   A    
C30   H14   S    
C16   C24   S    
C13   C14   A    
C17   C18   A    
C7    C12   S    
C5    C15   S    
O4    Zn2   S    
C10   H21   S    
C3    C8    A    
C1    O1    A    
C37   O9    D    
C12   O4    A    
O8    Zn2   S    
C11   H2    S    
C29   C30   S    
N2    Zn1   S    
C12   O3    A    
C22   H7    S    
C20   C23   S    
C33   C34   A    
C9    H20   S    
C8    C34   S    
C26   N1    A    
C23   O5    A    
C24   H8    S    
C32   H11   S    
C22   C24   S    
C25   N1    A    
C3    C4    A    
C28   N2    A    
C2    C36   A    
C25   C30   S    
C4    C5    A    
C1    O2    A    
N1    Zn2   S    
C6    C7    A    
C1    C17   S    
O3    Zn1   S    
C32   C33   A    
C23   O6    A    
C9    C15   A    
C37   H22   S    
C27   N2    A    
C11   C13   A    
C2    H1    S    
C22   H6    S    
O6    Zn2   S    
C13   H3    S    
C4    C31   S    
C10   C11   A    
C26   H10   S    
C14   H4    S    
C33   F2    S    
C20   C21   A    
O1    Zn1   S    
C35   H16   S    
C14   C15   A    
C21   C22   S    
C19   H5    S    
C29   C37   S    
