data_mof_unit_53480.cif
_audit_creation_date              2012-10-26T19:07:51-0400
_audit_creation_method            fapswitch 2.2
_symmetry_space_group_name_H-M    P1
_symmetry_Int_Tables_number       1
_space_group_crystal_system       triclinic
_cell_length_a                    15.072868
_cell_length_b                    13.701463
_cell_length_c                    19.378881
_cell_angle_alpha                 89.775419
_cell_angle_beta                  89.894551
_cell_angle_gamma                 90.066766
_cell_volume                      4002.09288202

loop_
_atom_site_label
_atom_site_type_symbol
_atom_type_description
_atom_site_fract_x
_atom_site_fract_y
_atom_site_fract_z
_atom_type_partial_charge
C1    C     C_R   0.328530 0.499958 0.500183 0.550720
C2    C     C_R   0.093430 0.587395 0.514402 -0.027035
C3    C     C_R   0.954383 0.676253 0.527541 0.269447
C4    C     C_R   0.044947 0.325816 0.474455 0.272428
C5    C     C_R   0.047614 0.673804 0.528709 -0.112367
C6    C     C_R   0.952559 0.326430 0.478850 -0.103452
C7    C     C_R   0.444205 0.792715 0.542975 0.086286
C8    C     C_R   0.558631 0.207306 0.459376 0.080249
C9    C     C_R   0.554726 0.793366 0.456240 0.086621
C10   C     C_R   0.440653 0.206742 0.539947 0.080411
C11   C     C_R   0.555055 0.896826 0.453551 -0.041337
C12   C     C_R   0.671490 0.500190 0.500829 0.552131
C13   C     C_R   0.436872 0.103348 0.539856 -0.047355
C14   C     C_R   0.442616 0.896247 0.544862 -0.039973
C15   C     C_R   0.561192 0.103833 0.458346 -0.043211
C16   C     C_R   0.498987 0.948344 0.499273 -0.051707
C17   C     C_R   0.499057 0.051775 0.499199 -0.052160
C18   C     C_R   0.610498 0.949577 0.407228 0.238302
C19   C     C_R   0.373911 0.050733 0.580019 0.228740
C20   C     C_R   0.385018 0.948488 0.589634 0.228597
C21   C     C_R   0.622232 0.051604 0.416445 0.226486
C22   C     C_R   0.499935 0.499958 0.367453 0.556386
C23   C     C_R   0.814532 0.588010 0.514195 -0.100763
C24   C     C_R   0.499899 0.499725 0.632461 0.555390
C25   C     C_R   0.524687 0.581609 0.254332 -0.117279
C26   C     C_R   0.532437 0.418394 0.744215 -0.115358
C27   C     C_R   0.464635 0.578034 0.744216 -0.115771
C28   C     C_R   0.475572 0.413959 0.256562 -0.130492
C29   C     C_R   0.528429 0.579654 0.182426 0.233043
C30   C     C_R   0.535231 0.418552 0.816207 0.238748
C31   C     C_R   0.460078 0.576482 0.816133 0.237436
C32   C     C_R   0.471958 0.412253 0.184179 0.237048
C33   C     C_R   0.499724 0.495502 0.146308 0.035357
C34   C     C_R   0.185288 0.413414 0.487410 -0.104481
C35   C     C_R   0.496946 0.497049 0.853287 0.024049
C36   C     C_R   0.499567 0.498897 0.291722 -0.081588
C37   C     C_R   0.499164 0.498785 0.708018 -0.082132
C38   C     C_R   0.495995 0.496381 0.929666 0.325179
C39   C     C_R   0.497708 0.495523 0.069819 0.338263
C40   C     C_R   0.814633 0.413820 0.492122 -0.124144
C41   C     C_R   0.185781 0.586542 0.514090 -0.124409
C42   C     C_R   0.768308 0.500783 0.502431 -0.030746
C43   C     C_R   0.231766 0.499956 0.500533 -0.023975
C44   C     C_3   0.649901 0.650811 0.131791 0.017395
C45   C     C_R   0.907357 0.589108 0.514811 0.040114
C46   C     C_3   0.707048 0.704530 0.184695 -0.237149
C47   C     C_3   0.805230 0.700246 0.165761 -0.478380
C48   C     C_3   0.662358 0.361642 0.866835 0.026811
C49   C     C_3   0.725641 0.329025 0.809390 -0.276526
C50   C     C_3   0.822359 0.341333 0.830817 -0.469465
C51   C     C_3   0.330209 0.635927 0.860884 0.011627
C52   C     C_3   0.274053 0.690095 0.807236 -0.229764
C53   C     C_3   0.175127 0.678622 0.821958 -0.464478
C54   C     C_3   0.362982 0.293593 0.170613 0.013489
C55   C     C_3   0.371544 0.191495 0.202264 -0.240321
C56   C     C_R   0.092634 0.412585 0.487363 0.027269
C57   C     C_3   0.282335 0.154009 0.228585 -0.488235
C58   C     C_3   0.933716 0.842491 0.507268 0.005092
C59   C     C_3   0.970730 0.920837 0.555497 -0.269199
C60   C     C_3   0.995545 0.013616 0.516117 -0.433708
C61   C     C_3   0.105956 0.227887 0.391440 -0.007784
C62   C     C_3   0.026260 0.183882 0.353274 -0.257147
C63   C     C_3   0.050645 0.155001 0.279737 -0.465473
C64   C     C_R   0.953610 0.501145 0.502017 0.001138
C65   C     C_R   0.046556 0.500439 0.501016 0.002619
C66   C     C_R   0.906812 0.413404 0.491065 -0.032421
Cu1   Cu    Cu3+1 0.500000 0.597420 0.500000 0.974703
Cu2   Cu    Cu3+1 0.500000 0.402580 0.500000 0.967171
H1    H     H_    0.544531 0.647057 0.281047 0.201593
H2    H     H_    0.916604 0.258704 0.471677 0.165140
H3    H     H_    0.399549 0.749718 0.574320 0.190484
H4    H     H_    0.601668 0.250266 0.426664 0.199743
H5    H     H_    0.599273 0.751095 0.424568 0.193285
H6    H     H_    0.397826 0.249098 0.572936 0.200025
H7    H     H_    0.661175 0.684511 0.080268 0.176435
H8    H     H_    0.671800 0.573150 0.127414 0.112947
H9    H     H_    0.685992 0.782073 0.186940 0.226882
H10   H     H_    0.697758 0.671173 0.236532 0.195483
H11   H     H_    0.828183 0.623270 0.164228 0.152452
H12   H     H_    0.559346 0.356462 0.716615 0.155163
H13   H     H_    0.844527 0.740046 0.205090 0.179366
H14   H     H_    0.816788 0.734975 0.114633 0.151522
H15   H     H_    0.678543 0.320280 0.914599 0.179834
H16   H     H_    0.673447 0.440310 0.879112 0.117822
H17   H     H_    0.713093 0.251060 0.797074 0.189985
H18   H     H_    0.713877 0.373263 0.762157 0.156966
H19   H     H_    0.836617 0.419085 0.842530 0.153983
H20   H     H_    0.866410 0.317729 0.788044 0.164328
H21   H     H_    0.836892 0.295971 0.877058 0.157785
H22   H     H_    0.313114 0.664223 0.912884 0.176293
H23   H     H_    0.438444 0.640115 0.716471 0.196393
H24   H     H_    0.312626 0.556618 0.861450 0.117512
H25   H     H_    0.291346 0.768964 0.807802 0.248705
H26   H     H_    0.288125 0.660957 0.754980 0.189709
H27   H     H_    0.155989 0.600333 0.820594 0.150531
H28   H     H_    0.136509 0.718495 0.782089 0.189638
H29   H     H_    0.158515 0.709211 0.873378 0.153041
H30   H     H_    0.320896 0.288499 0.123749 0.163884
H31   H     H_    0.327089 0.343051 0.206845 0.105549
H32   H     H_    0.397557 0.140388 0.162699 0.203078
H33   H     H_    0.419189 0.192908 0.245891 0.183124
H34   H     H_    0.457976 0.349033 0.285449 0.145264
H35   H     H_    0.256520 0.202719 0.269659 0.135329
H36   H     H_    0.290556 0.079599 0.250536 0.168529
H37   H     H_    0.233642 0.150643 0.185700 0.153477
H38   H     H_    0.873219 0.871627 0.481925 0.168192
H39   H     H_    0.982032 0.827139 0.464951 0.123439
H40   H     H_    0.920067 0.938956 0.595173 0.186399
H41   H     H_    0.030507 0.892589 0.582362 0.202249
H42   H     H_    0.047339 0.997694 0.476909 0.175222
H43   H     H_    0.021989 0.068715 0.552562 0.204669
H44   H     H_    0.936233 0.044837 0.490358 0.152199
H45   H     H_    0.778781 0.346568 0.483895 0.190571
H46   H     H_    0.163060 0.177156 0.386576 0.172184
H47   H     H_    0.126916 0.297747 0.366404 0.107496
H48   H     H_    0.002136 0.118211 0.381331 0.191902
H49   H     H_    0.971515 0.237942 0.350953 0.184442
H50   H     H_    0.075832 0.219333 0.250612 0.143554
H51   H     H_    0.990962 0.126318 0.253078 0.188930
H52   H     H_    0.102090 0.097052 0.280355 0.148498
H53   H     H_    0.722963 0.940671 0.240954 0.364494
H54   H     H_    0.145649 0.068333 0.646241 0.365203
H55   H     H_    0.364115 0.992669 0.743021 0.359922
H56   H     H_    0.221838 0.653342 0.524784 0.150608
H57   H     H_    0.817201 0.002696 0.407276 0.330431
H58   H     H_    0.777969 0.654906 0.522887 0.183527
H59   H     H_    0.221541 0.346937 0.476822 0.193281
H60   H     H_    0.084455 0.739217 0.541349 0.135140
N1    N     N_R   0.501143 0.410758 0.033976 -0.163836
N2    N     N_R   0.492300 0.581118 0.965469 -0.182341
N3    N     N_R   0.499955 0.411151 0.965377 -0.178288
N4    N     N_R   0.492674 0.580650 0.034052 -0.184480
N5    N     N_R   0.500000 0.743810 0.500000 -0.269488
N6    N     N_R   0.500000 0.256190 0.500000 -0.274438
O1    O     O_R   0.370260 0.582280 0.500020 -0.510880
O2    O     O_3   0.573294 0.339541 0.849505 -0.534247
O3    O     O_3   0.421554 0.654813 0.849549 -0.521155
O4    O     O_3   0.447881 0.327476 0.149826 -0.530481
O5    O     O_3   0.908026 0.759629 0.546534 -0.574439
O6    O     O_3   0.087855 0.238141 0.462792 -0.544641
O7    O     O_2   0.734142 0.833942 0.350375 -0.341752
O8    O     O_2   0.583100 0.821900 0.304874 -0.326047
O9    O     O_3   0.675504 0.971464 0.268740 -0.418540
O10   O     O_2   0.295457 0.163557 0.675251 -0.280256
O11   O     O_2   0.245381 0.182988 0.555919 -0.301104
O12   O     O_R   0.629740 0.417720 0.499980 -0.502769
O13   O     O_3   0.192462 0.030576 0.622372 -0.443568
O14   O     O_2   0.257132 0.831221 0.639993 -0.276480
O15   O     O_2   0.403728 0.818450 0.692885 -0.351201
O16   O     O_3   0.307489 0.966267 0.725097 -0.425728
O17   O     O_2   0.693838 0.169764 0.320373 -0.222278
O18   O     O_2   0.754369 0.180124 0.436935 -0.384139
O19   O     O_3   0.800150 0.033335 0.362923 -0.456927
O20   O     O_R   0.629740 0.582280 0.499980 -0.510181
O21   O     O_R   0.370260 0.417720 0.500020 -0.503696
O22   O     O_R   0.499990 0.582300 0.400140 -0.495103
O23   O     O_R   0.500010 0.417700 0.599860 -0.501084
O24   O     O_R   0.500010 0.582300 0.599860 -0.495551
O25   O     O_R   0.499990 0.417700 0.400140 -0.506149
O26   O     O_3   0.558754 0.661904 0.148063 -0.521032
S1    S     S_3+6 0.652203 0.890784 0.331928 -0.000987
S2    S     S_3+6 0.275637 0.110505 0.609290 0.030101
S3    S     S_3+6 0.337260 0.888023 0.662601 0.014079
S4    S     S_3+6 0.718627 0.111744 0.383401 0.016316

loop_
_geom_bond_atom_site_label_1
_geom_bond_atom_site_label_2
_ccdc_geom_bond_type
C58   O5    S    
C57   H37   S    
C11   C18   A    
C34   C56   A    
C23   C45   A    
C53   H27   S    
C18   C21   A    
O17   S4    D    
H53   O9    S    
Cu1   O1    S    
C19   C20   A    
C47   H11   S    
C2    C65   A    
O8    S1    D    
C22   O22   A    
C32   O4    S    
O16   S3    S    
C33   C39   S    
C23   C42   A    
C30   C35   A    
Cu1   O20   S    
C38   N2    A    
C41   H56   S    
Cu1   N5    S    
C7    N5    A    
C51   H22   S    
C7    H3    S    
C18   S1    S    
C24   O24   A    
O11   S2    D    
C2    C41   A    
C56   C65   A    
C29   C33   A    
C5    H60   S    
C1    O21   A    
C58   H39   S    
C47   H14   S    
C12   O12   A    
C44   H8    S    
C62   H49   S    
C12   C42   S    
C46   C47   S    
C1    C43   S    
C7    C14   A    
H57   O19   S    
C16   C17   A    
C55   H32   S    
C61   H47   S    
C10   C13   A    
C52   H26   S    
O15   S3    D    
C31   O3    S    
Cu2   O25   S    
C50   H20   S    
Cu2   O21   S    
C40   C42   A    
H55   O16   S    
C59   C60   S    
C21   S4    S    
C40   C66   A    
C4    C56   A    
C53   H28   S    
C41   C43   A    
C61   C62   S    
C9    H5    S    
C44   C46   S    
C29   O26   S    
C25   C29   A    
C57   H35   S    
C8    H4    S    
C13   C19   A    
O19   S4    S    
C8    N6    A    
C51   C52   S    
C49   H17   S    
C39   N4    A    
C28   C32   A    
C35   C38   S    
C4    C6    A    
C46   H10   S    
C63   H50   S    
C24   O23   A    
C34   H59   S    
C39   N1    A    
C53   H29   S    
C58   C59   S    
C20   S3    S    
C27   C31   A    
C3    C45   A    
C26   H12   S    
C48   H16   S    
Cu1   O22   S    
C58   H38   S    
C19   S2    S    
C64   C66   A    
C44   H7    S    
N2    N4    A    
Cu1   Cu2   S    
C62   H48   S    
C62   C63   S    
C60   H44   S    
C14   C20   A    
C51   H24   S    
C4    O6    S    
C63   H51   S    
C11   C16   A    
C50   H21   S    
C40   H45   S    
C6    C66   A    
C24   C37   S    
C52   H25   S    
C26   C37   A    
H54   O13   S    
C27   H23   S    
C9    C11   A    
O18   S4    D    
C50   H19   S    
C23   H58   S    
C51   O3    S    
C48   C49   S    
C26   C30   A    
C8    C15   A    
C30   O2    S    
C55   C57   S    
C44   O26   S    
C31   C35   A    
C54   H31   S    
C2    C5    A    
C3    O5    S    
Cu2   O23   S    
Cu2   O12   S    
C52   C53   S    
C6    H2    S    
C57   H36   S    
C54   C55   S    
O10   S2    D    
O14   S3    D    
C49   H18   S    
C48   O2    S    
C34   C43   A    
C10   N6    A    
C12   O20   A    
C3    C5    A    
O13   S2    S    
C46   H9    S    
C61   O6    S    
C15   C17   A    
C22   C36   S    
C55   H33   S    
C45   C64   A    
C59   H40   S    
C48   H15   S    
C13   C17   A    
C32   C33   A    
Cu2   N6    S    
C60   H43   S    
C38   N3    A    
C63   H52   S    
C10   H6    S    
C54   O4    S    
C27   C37   A    
C64   C65   A    
C59   H41   S    
Cu1   O24   S    
C14   C16   A    
C47   H13   S    
O7    S1    D    
C60   H42   S    
C25   C36   A    
C28   H34   S    
C15   C21   A    
C25   H1    S    
C28   C36   A    
C49   C50   S    
C22   O25   A    
C61   H46   S    
C54   H30   S    
C1    O1    A    
O9    S1    S    
N1    N3    A    
C9    N5    A    
