data_mof_unit_41778.cif
_audit_creation_date              2012-12-11T14:08:43-0500
_audit_creation_method            fapswitch 2.2
_symmetry_space_group_name_H-M    P1
_symmetry_Int_Tables_number       1
_space_group_crystal_system       triclinic
_cell_length_a                    28.09571
_cell_length_b                    7.234734
_cell_length_c                    17.268957
_cell_angle_alpha                 89.970299
_cell_angle_beta                  101.22872
_cell_angle_gamma                 89.84994
_cell_volume                      3442.9677295

loop_
_atom_site_label
_atom_site_type_symbol
_atom_type_description
_atom_site_fract_x
_atom_site_fract_y
_atom_site_fract_z
_atom_type_partial_charge
O1    O     O_R   0.000700 0.436510 0.857920 -0.530867
O2    O     O_R   0.999300 0.563490 0.142080 -0.515594
O3    O     O_R   0.999300 0.936510 0.642080 -0.526230
O4    O     O_R   0.000700 0.063490 0.357920 -0.512782
O5    O     O_R   0.930080 0.766380 0.721890 -0.545802
O6    O     O_R   0.069920 0.233620 0.278110 -0.513814
O7    O     O_R   0.069920 0.266380 0.778110 -0.534642
O8    O     O_R   0.930080 0.733620 0.221890 -0.538612
C1    C     C_R   0.910896 0.597769 0.710193 0.810005
C2    C     C_R   0.089750 0.402184 0.289157 0.782631
C3    C     C_R   0.089165 0.097654 0.790992 0.787184
C4    C     C_R   0.910876 0.902732 0.210144 0.811452
O9    O     O_R   0.996180 0.766230 0.862310 -0.515110
O10   O     O_R   0.003820 0.233770 0.137690 -0.530934
O11   O     O_R   0.003820 0.266230 0.637690 -0.498594
O12   O     O_R   0.996180 0.733770 0.362310 -0.515416
O13   O     O_R   0.065870 0.936460 0.783500 -0.528520
O14   O     O_R   0.934130 0.063540 0.216500 -0.527689
O15   O     O_R   0.934130 0.436460 0.716500 -0.538078
O16   O     O_R   0.065870 0.563540 0.283500 -0.521416
C5    C     C_R   0.998411 0.596124 0.894265 0.693072
C6    C     C_R   0.000449 0.403781 0.105396 0.667945
C7    C     C_R   0.001772 0.096211 0.605798 0.687381
C8    C     C_R   0.998534 0.903783 0.394311 0.678738
O17   O     O_3   0.022790 0.603020 0.723980 -0.360229
O18   O     O_3   0.977210 0.396980 0.276020 -0.362816
O19   O     O_3   0.977210 0.103020 0.776020 -0.382149
O20   O     O_3   0.022790 0.896980 0.223980 -0.363343
V1    V     V_3+5 0.995770 0.877900 0.754830 1.561400
V2    V     V_3+5 0.004230 0.122100 0.245170 1.595050
V3    V     V_3+5 0.004230 0.377900 0.745170 1.597197
V4    V     V_3+5 0.995770 0.622100 0.254830 1.598067
C9    C     C_2   0.000620 0.082815 0.519593 0.287272
C10   C     C_2   0.001766 0.917523 0.481120 0.263377
C11   C     C_2   0.000629 0.582119 0.980760 0.291256
C12   C     C_2   0.996359 0.418292 0.018418 0.276382
C13   C     C_R   0.683228 0.954685 0.032235 0.734479
C14   C     C_R   0.318160 0.115556 0.972637 0.730008
C15   C     C_R   0.317874 0.415405 0.466903 0.705199
C16   C     C_R   0.681774 0.672746 0.547317 0.725303
O21   O     O_2   0.712760 0.983670 0.980452 -0.489910
O22   O     O_2   0.290933 0.199322 0.018759 -0.485067
O23   O     O_2   0.288675 0.350383 0.514161 -0.513108
O24   O     O_2   0.710142 0.752189 0.502007 -0.491156
N1    N     N_R   0.702384 0.933409 0.111280 -0.528607
N2    N     N_R   0.296781 0.054810 0.898950 -0.528327
N3    N     N_R   0.298570 0.461359 0.390242 -0.523755
N4    N     N_R   0.701812 0.609370 0.621592 -0.527911
C17   C     C_R   0.671922 0.925793 0.164654 0.656596
C18   C     C_R   0.324435 0.978336 0.849843 0.654275
C19   C     C_R   0.327523 0.531780 0.342078 0.682437
C20   C     C_R   0.671818 0.553642 0.671432 0.664781
C21   C     C_R   0.778446 0.028035 0.202261 -0.274646
C22   C     C_R   0.224850 0.165042 0.803378 -0.253887
C23   C     C_R   0.218896 0.595915 0.331976 -0.304141
C24   C     C_R   0.778387 0.654794 0.721123 -0.234701
C25   C     C_R   0.829153 0.015572 0.229382 0.322109
C26   C     C_R   0.174614 0.164928 0.773424 0.378353
C27   C     C_R   0.168855 0.579924 0.301968 0.353212
C28   C     C_R   0.828835 0.635010 0.744804 0.309592
C29   C     C_R   0.834363 0.817817 0.117945 0.245839
C30   C     C_R   0.162310 0.002898 0.891137 0.249863
C31   C     C_R   0.172951 0.255112 0.339609 0.226151
C32   C     C_R   0.834188 0.533698 0.612872 0.241018
C33   C     C_R   0.783491 0.808140 0.098768 0.588440
C34   C     C_R   0.212859 0.986205 0.916167 0.604874
C35   C     C_R   0.224066 0.270115 0.360867 0.567033
C36   C     C_R   0.783078 0.524886 0.593845 0.578346
C37   C     C_R   0.754804 0.920687 0.138259 0.132666
C38   C     C_R   0.244586 0.069799 0.873058 0.118064
C39   C     C_R   0.246863 0.442041 0.360954 0.165199
C40   C     C_R   0.754525 0.597881 0.645543 0.115933
C41   C     C_R   0.601276 0.954771 0.057940 -0.143266
C42   C     C_R   0.397438 0.015832 0.951099 -0.140249
C43   C     C_R   0.397993 0.515130 0.449993 -0.137524
C44   C     C_R   0.600606 0.600071 0.567389 -0.146152
C45   C     C_R   0.632711 0.950654 0.004268 -0.091728
C46   C     C_R   0.368409 0.091973 0.000697 -0.082414
C47   C     C_R   0.367842 0.438611 0.497432 -0.074725
C48   C     C_R   0.631698 0.655112 0.517355 -0.109561
C49   C     C_R   0.613497 0.941776 0.923623 -0.127874
C50   C     C_R   0.389946 0.147485 0.076760 -0.169843
C51   C     C_R   0.387807 0.384416 0.574262 -0.185130
C52   C     C_R   0.612835 0.684164 0.437602 -0.144640
C53   C     C_R   0.621150 0.947281 0.139464 -0.171052
C54   C     C_R   0.375346 0.962055 0.874084 -0.148401
C55   C     C_R   0.377456 0.563382 0.371322 -0.156857
C56   C     C_R   0.620752 0.561653 0.646952 -0.159994
C57   C     C_R   0.857348 0.911797 0.186012 -0.281683
C58   C     C_R   0.142656 0.087885 0.818383 -0.319990
C59   C     C_R   0.144409 0.412107 0.310726 -0.294843
C60   C     C_R   0.857308 0.589213 0.688805 -0.300938
H1    H     H_    0.637903 0.926823 0.882642 0.190231
H2    H     H_    0.367877 0.218043 0.112249 0.181128
H3    H     H_    0.364884 0.313165 0.608040 0.173177
H4    H     H_    0.636779 0.721977 0.398077 0.230713
C61   C     C_R   0.478261 0.938061 0.924392 -0.028697
C62   C     C_R   0.519417 0.993108 0.085497 -0.025414
C63   C     C_R   0.518547 0.536934 0.591154 -0.028573
C64   C     C_R   0.478767 0.611507 0.430096 -0.023420
C65   C     C_R   0.469320 0.034702 0.058224 0.026779
C66   C     C_R   0.530155 0.946275 0.948115 -0.003065
C67   C     C_R   0.530268 0.617823 0.456814 -0.012323
C68   C     C_R   0.468241 0.498551 0.561371 0.022259
C69   C     C_R   0.448502 0.996177 0.978032 0.017518
C70   C     C_R   0.550122 0.965690 0.030219 0.015552
C71   C     C_R   0.549552 0.585014 0.538230 0.012030
C72   C     C_R   0.448544 0.541500 0.480711 0.019252
C73   C     C_R   0.454534 0.876247 0.849032 -0.242423
C74   C     C_R   0.539836 0.973198 0.166443 -0.218084
C75   C     C_R   0.539342 0.533169 0.672611 -0.230012
C76   C     C_R   0.455947 0.675102 0.354443 -0.247040
C77   C     C_R   0.404498 0.890143 0.823968 0.611732
C78   C     C_R   0.589642 0.954411 0.193250 0.626795
C79   C     C_R   0.589362 0.535196 0.699809 0.622373
C80   C     C_R   0.406984 0.645804 0.324570 0.618440
O25   O     O_2   0.302674 0.915619 0.778213 -0.480519
O26   O     O_2   0.690465 0.894705 0.241648 -0.474299
O27   O     O_2   0.690928 0.485200 0.743434 -0.468651
O28   O     O_2   0.308054 0.570165 0.266028 -0.454771
C81   C     C_R   0.563236 0.939911 0.894307 0.395792
C82   C     C_R   0.439568 0.116601 0.107535 0.395133
C83   C     C_R   0.436976 0.414900 0.608070 0.399305
C84   C     C_R   0.563906 0.650446 0.405654 0.395237
H5    H     H_    0.248831 0.230625 0.769620 0.199858
H6    H     H_    0.757465 0.121788 0.231208 0.191118
H7    H     H_    0.757885 0.705730 0.763629 0.220600
H8    H     H_    0.236356 0.728909 0.330831 0.218326
H9    H     H_    0.473142 0.809629 0.808091 0.209634
H10   H     H_    0.517524 0.962420 0.210283 0.209907
H11   H     H_    0.517757 0.535628 0.717377 0.212003
H12   H     H_    0.474634 0.753172 0.316813 0.203420
F1    F     F_    0.996495 0.245102 0.478891 -0.668325
F2    F     F_    0.008480 0.756126 0.522406 -0.666793
F3    F     F_    0.008740 0.741659 0.022584 -0.712135
F4    F     F_    0.984403 0.261534 0.975854 -0.720061
O29   O     O_3   0.861700 0.760473 0.063952 -0.548271
C85   C     C_3   0.856914 0.894650 0.002706 0.050726
H13   H     H_    0.845066 0.033413 0.020127 0.103738
H14   H     H_    0.829606 0.847129 0.951232 0.216346
C86   C     C_3   0.905277 0.922013 0.977319 -0.522295
H15   H     H_    0.916685 0.793106 0.951817 0.224575
H16   H     H_    0.901790 0.030993 0.931283 0.190045
H17   H     H_    0.933298 0.964365 0.028801 0.263225
O30   O     O_3   0.131846 0.942128 0.939467 -0.531147
C87   C     C_3   0.130124 0.079897 0.996944 0.027985
H18   H     H_    0.129756 0.223284 0.972596 0.114250
H19   H     H_    0.161741 0.064947 0.046526 0.179301
C88   C     C_3   0.083870 0.057644 0.028476 -0.544486
H20   H     H_    0.083918 0.923935 0.059259 0.248544
H21   H     H_    0.080885 0.170869 0.070557 0.149592
H22   H     H_    0.052473 0.060577 0.978507 0.295687
O31   O     O_3   0.150734 0.085255 0.342187 -0.518731
C89   C     C_3   0.161507 0.009374 0.419121 0.203480
H23   H     H_    0.173814 0.114108 0.466161 0.104715
H24   H     H_    0.190110 0.902179 0.421947 0.183716
C90   C     C_3   0.116168 0.918916 0.436641 -0.699737
H25   H     H_    0.099038 0.831017 0.386399 0.259070
H26   H     H_    0.124785 0.831159 0.490202 0.176821
H27   H     H_    0.090602 0.029180 0.446555 0.193214
O32   O     O_3   0.862203 0.477430 0.559536 -0.543310
C91   C     C_3   0.852068 0.587161 0.490298 0.106218
H28   H     H_    0.832224 0.718654 0.496758 0.124856
H29   H     H_    0.829781 0.506011 0.441927 0.188979
C92   C     C_3   0.899685 0.638613 0.466969 -0.653423
H30   H     H_    0.923767 0.516559 0.468271 0.291544
H31   H     H_    0.892797 0.698026 0.406530 0.159538
H32   H     H_    0.918278 0.741514 0.509862 0.229385
F5    F     F_    0.762559 0.695703 0.038883 -0.641710
F6    F     F_    0.230838 0.890096 0.983081 -0.632437
F7    F     F_    0.251678 0.116904 0.381418 -0.676084
F8    F     F_    0.761482 0.443462 0.525133 -0.654886
O33   O     O_3   0.157604 0.238062 0.699164 -0.537598
C93   C     C_3   0.150746 0.092989 0.642888 0.069514
H33   H     H_    0.130917 0.151159 0.586210 0.152614
H34   H     H_    0.127549 0.980436 0.659192 0.109191
C94   C     C_3   0.199022 0.012984 0.628987 -0.660370
H35   H     H_    0.217399 0.933644 0.681226 0.252907
H36   H     H_    0.192726 0.914295 0.579245 0.178706
H37   H     H_    0.223058 0.125582 0.615868 0.258326
O34   O     O_3   0.852294 0.114112 0.294677 -0.543708
C95   C     C_3   0.831855 0.072162 0.361207 0.091679
H38   H     H_    0.820260 0.924819 0.362354 0.128259
H39   H     H_    0.800236 0.164030 0.362480 0.172953
C96   C     C_3   0.869740 0.106467 0.435220 -0.635474
H40   H     H_    0.881881 0.251226 0.436331 0.253184
H41   H     H_    0.854604 0.076914 0.488709 0.200478
H42   H     H_    0.901826 0.018152 0.434841 0.182947
O35   O     O_3   0.848937 0.639011 0.824515 -0.557988
C97   C     C_3   0.855091 0.453317 0.851469 0.041330
H43   H     H_    0.890331 0.398121 0.841424 0.137683
H44   H     H_    0.825442 0.359898 0.821706 0.148297
C98   C     C_3   0.855021 0.443440 0.939171 -0.569691
H45   H     H_    0.821987 0.511165 0.952143 0.286841
H46   H     H_    0.854819 0.297355 0.957416 0.158704
H47   H     H_    0.888185 0.507811 0.973507 0.220264
O36   O     O_3   0.143452 0.730000 0.264900 -0.525138
C99   C     C_3   0.158245 0.767328 0.192600 0.205101
H48   H     H_    0.198337 0.776359 0.198703 0.160000
H49   H     H_    0.144087 0.905950 0.172586 0.138682
C100  C     C_3   0.137692 0.625483 0.129161 -0.765993
H50   H     H_    0.097783 0.614837 0.123650 0.227394
H51   H     H_    0.145948 0.668482 0.071489 0.247548
H52   H     H_    0.154278 0.487479 0.144372 0.204043
F9    F     F_    0.385121 0.836549 0.749175 -0.666037
F10   F     F_    0.606526 0.944706 0.272311 -0.648407
F11   F     F_    0.606509 0.521121 0.778756 -0.645137
F12   F     F_    0.388819 0.700091 0.249331 -0.656139
O37   O     O_3   0.547373 0.915467 0.813839 -0.567022
C101  C     C_3   0.560689 0.066145 0.770485 0.108420
H53   H     H_    0.600660 0.077124 0.776485 0.153759
H54   H     H_    0.546462 0.198361 0.789651 0.169829
C102  C     C_3   0.539557 0.036227 0.683346 -0.617171
H55   H     H_    0.499769 0.014064 0.674393 0.256540
H56   H     H_    0.546962 0.157493 0.648362 0.187473
H57   H     H_    0.556647 0.913748 0.661473 0.203191
O38   O     O_3   0.460919 0.192822 0.180130 -0.571962
C103  C     C_3   0.433070 0.161687 0.239051 0.068576
H58   H     H_    0.415915 0.022769 0.233546 0.196755
H59   H     H_    0.404675 0.270161 0.235855 0.174671
C104  C     C_3   0.465502 0.174644 0.320363 -0.720407
H60   H     H_    0.481352 0.314448 0.328882 0.237908
H61   H     H_    0.443838 0.148927 0.366643 0.197410
H62   H     H_    0.495420 0.072181 0.326877 0.231608
O39   O     O_3   0.455945 0.340024 0.682149 -0.572326
C105  C     C_3   0.425704 0.374094 0.737606 0.064791
H63   H     H_    0.398835 0.260689 0.735035 0.168104
H64   H     H_    0.406303 0.508785 0.727189 0.198183
C106  C     C_3   0.455882 0.377515 0.820917 -0.713185
H65   H     H_    0.483149 0.489493 0.827521 0.224667
H66   H     H_    0.431895 0.399837 0.864168 0.195952
H67   H     H_    0.475067 0.244608 0.834182 0.232823
O40   O     O_3   0.549806 0.649367 0.324213 -0.558606
C107  C     C_3   0.570326 0.495142 0.292295 0.118328
H68   H     H_    0.562395 0.364344 0.321298 0.139427
H69   H     H_    0.610310 0.509688 0.298925 0.160437
C108  C     C_3   0.548952 0.481766 0.204494 -0.599897
H70   H     H_    0.563504 0.592892 0.171732 0.196098
H71   H     H_    0.558966 0.347638 0.181141 0.192353
H72   H     H_    0.508858 0.494868 0.194182 0.262102

loop_
_geom_bond_atom_site_label_1
_geom_bond_atom_site_label_2
_ccdc_geom_bond_type
O17   V3    S    
O1    C5    A    
C92   H30   S    
C62   C74   A    
C82   O38   S    
C79   F11   S    
O19   V1    S    
C18   O25   S    
O13   V1    S    
C100  H50   S    
O3    C7    A    
C11   C12   D    
C76   C80   A    
C48   C52   A    
O4    V2    S    
C21   C37   A    
C25   O34   S    
O32   C91   S    
C41   C70   A    
C103  H58   S    
C68   C83   A    
O34   C95   S    
O7    C3    A    
C97   H43   S    
C25   C57   A    
C54   C77   A    
C50   H2    S    
C32   C36   A    
O9    V1    S    
C53   C78   A    
O10   V2    S    
C14   O22   S    
C104  H62   S    
C23   C27   A    
C86   H16   S    
C22   C26   A    
O4    C8    A    
C96   H41   S    
C10   F2    S    
C91   C92   S    
O1    V3    S    
C49   H1    S    
O2    V4    S    
C52   H4    S    
C24   H7    S    
O3    V1    S    
C104  H60   S    
C95   H38   S    
C97   C98   S    
C93   H33   S    
C88   H20   S    
C1    O15   A    
C90   H25   S    
C2    O16   A    
C28   O35   S    
C24   C40   A    
C30   O30   S    
O2    C6    A    
C16   C48   A    
C66   C70   A    
C99   H48   S    
O14   V2    S    
C81   O37   S    
C66   C81   A    
O40   C107  S    
C44   C56   A    
O5    V1    S    
C61   C66   A    
C98   H45   S    
C73   C77   A    
C61   C69   A    
C98   H47   S    
O11   C7    A    
C63   C68   A    
O15   V3    S    
C43   C72   A    
O12   C8    A    
O33   C93   S    
C108  H70   S    
C100  H51   S    
C31   C59   A    
O36   C99   S    
C107  H69   S    
N4    C40   S    
C67   C84   A    
C12   F4    S    
C1    C60   S    
C29   C57   A    
O30   C87   S    
C87   H19   S    
C28   C60   A    
C65   C69   A    
C22   H5    S    
C31   C35   A    
C64   C72   A    
O7    V3    S    
C30   C34   A    
N1    C37   S    
O8    V4    S    
C17   C53   A    
C4    C57   S    
C20   C56   A    
C19   O28   S    
C9    C10   D    
C31   O31   S    
C89   C90   S    
C21   H6    S    
C86   H17   S    
C11   F3    S    
C21   C25   A    
O18   V4    S    
C96   H42   S    
N3    C19   A    
C14   C46   A    
C7    C9    S    
O38   C103  S    
C102  H55   S    
C13   C45   A    
C64   C67   A    
C8    C10   S    
C78   F10   S    
C52   C84   A    
C49   C81   A    
C36   C40   A    
C107  C108  S    
C77   F9    S    
C90   H26   S    
O5    C1    A    
C106  H65   S    
C9    F1    S    
C87   C88   S    
C61   C73   A    
C50   C82   A    
C46   C50   A    
C103  H59   S    
C17   O26   S    
C22   C38   A    
C45   C49   A    
O8    C4    A    
C94   H37   S    
C63   C75   A    
C99   C100  S    
C4    O14   A    
O37   C101  S    
C55   C80   A    
O9    C5    A    
C27   C59   A    
C51   H3    S    
C76   H12   S    
C26   C58   A    
C93   C94   S    
C41   C53   A    
C89   H23   S    
C80   F12   S    
C85   H14   S    
C94   H35   S    
C5    C11   S    
C84   O40   S    
C75   C79   A    
C75   H11   S    
C92   H32   S    
O6    V2    S    
C2    C59   S    
C64   C76   A    
C44   C71   A    
C105  H64   S    
C108  H71   S    
C73   H9    S    
C100  H52   S    
C88   H22   S    
C26   O33   S    
O12   V4    S    
C107  H68   S    
N3    C39   S    
C13   N1    A    
C101  C102  S    
C42   C54   A    
C68   C72   A    
N2    C38   S    
C63   C71   A    
C103  C104  S    
C15   N3    A    
C87   H18   S    
O16   V4    S    
C102  H57   S    
C43   C55   A    
C16   N4    A    
C74   C78   A    
C3    O13   A    
C97   H44   S    
O39   C105  S    
C89   H24   S    
C34   F6    S    
C44   C48   A    
C32   O32   S    
C85   C86   S    
O6    C2    A    
C67   C71   A    
O11   V3    S    
C91   H28   S    
C83   O39   S    
C90   H27   S    
C106  H67   S    
C105  C106  S    
C6    C12   S    
O29   C85   S    
N2    C18   A    
C19   C55   A    
C101  H54   S    
C65   C82   A    
C62   C70   A    
C62   C65   A    
C104  H61   S    
C35   F7    S    
O10   C6    A    
C56   C79   A    
C88   H21   S    
C102  H56   S    
C106  H66   S    
C91   H29   S    
C86   H15   S    
C42   C69   A    
C47   C51   A    
C36   F8    S    
C3    C58   S    
C29   O29   S    
C96   H40   S    
C34   C38   A    
C27   O36   S    
C33   C37   A    
C30   C58   A    
O20   V2    S    
C93   H34   S    
C94   H36   S    
N1    C17   A    
C74   H10   S    
C35   C39   A    
C101  H53   S    
C13   O21   S    
O35   C97   S    
C95   H39   S    
C14   N2    A    
C85   H13   S    
C18   C54   A    
C20   O27   S    
C29   C33   A    
C16   O24   S    
C24   C28   A    
C23   H8    S    
C15   O23   S    
C41   C45   A    
C92   H31   S    
C105  H63   S    
C42   C46   A    
C108  H72   S    
C33   F5    S    
C32   C60   A    
C99   H49   S    
C98   H46   S    
C51   C83   A    
O31   C89   S    
N4    C20   A    
C43   C47   A    
C95   C96   S    
C23   C39   A    
C15   C47   A    
