data_mof_unit_9147.cif
_audit_creation_date              2012-12-10T19:01:22-0500
_audit_creation_method            fapswitch 2.2
_symmetry_space_group_name_H-M    P1
_symmetry_Int_Tables_number       1
_space_group_crystal_system       triclinic
_cell_length_a                    9.556171
_cell_length_b                    10.8323
_cell_length_c                    15.469547
_cell_angle_alpha                 89.605938
_cell_angle_beta                  74.518202
_cell_angle_gamma                 90.166907
_cell_volume                      1543.17577855

loop_
_atom_site_label
_atom_site_type_symbol
_atom_type_description
_atom_site_fract_x
_atom_site_fract_y
_atom_site_fract_z
_atom_type_partial_charge
C1    C     C_R   0.999268 0.262360 0.501011 0.806349
C2    C     C_R   0.675166 0.508681 0.908595 0.127673
C3    C     C_R   0.775319 0.475740 0.957785 0.144905
C4    C     C_R   0.526673 0.529411 0.954487 -0.018420
C5    C     C_R   0.477720 0.504236 0.048204 0.064271
C6    C     C_R   0.581571 0.470989 0.094537 -0.182409
C7    C     C_R   0.727515 0.458926 0.050208 -0.237609
C8    C     C_R   0.426617 0.577503 0.910168 -0.305444
C9    C     C_R   0.282147 0.596488 0.955161 0.554920
C10   C     C_R   0.230993 0.566678 0.045997 0.034239
C11   C     C_R   0.327441 0.517765 0.093040 0.017004
C12   C     C_R   0.918299 0.499480 0.672192 0.807526
C13   C     C_R   0.084714 0.587439 0.091034 -0.162494
C14   C     C_R   0.033643 0.562739 0.182458 -0.230401
C15   C     C_R   0.269972 0.485583 0.183909 -0.211907
C16   C     C_R   0.118957 0.064306 0.512551 0.085926
C17   C     C_R   0.994868 0.129206 0.509155 -0.094724
C18   C     C_R   0.864145 0.063780 0.519223 -0.210409
C19   C     C_R   0.864344 0.935022 0.520080 -0.196183
C20   C     C_R   0.994984 0.870723 0.511909 -0.119304
C21   C     C_R   0.118554 0.937168 0.516341 0.083456
C22   C     C_3   0.272115 0.931048 0.459023 -0.040821
C23   C     C_R   0.999237 0.737672 0.502210 0.800245
C24   C     C_3   0.269770 0.071317 0.452296 -0.446369
C25   C     C_R   0.595541 0.584910 0.450268 0.269898
C26   C     C_R   0.550403 0.425051 0.556182 -0.138494
C27   C     C_R   0.400961 0.425148 0.556781 0.242074
C28   C     C_R   0.448553 0.584525 0.449988 0.203730
C29   C     C_3   0.486286 0.601418 0.350859 -0.479528
C30   C     C_3   0.644676 0.601648 0.351138 -0.505734
C31   C     C_R   0.081620 0.501266 0.327817 0.789337
C32   C     C_R   0.872938 0.496667 0.770725 -0.078261
C33   C     C_R   0.126714 0.513239 0.229614 -0.042574
C34   C     C_R   0.922552 0.458469 0.913785 -0.147582
C35   C     C_R   0.971419 0.470249 0.820871 -0.115946
C36   C     C_R   0.726548 0.515963 0.814679 -0.251804
Cu1   Cu    Cu3+1 0.140670 0.499980 0.500000 0.962994
Cu2   Cu    Cu3+1 0.859330 0.500020 0.500000 0.942947
H1    H     H_    0.803266 0.434364 0.088593 0.144771
H2    H     H_    0.010354 0.626296 0.056278 0.194066
H3    H     H_    0.763505 0.111314 0.521951 0.164764
H4    H     H_    0.763960 0.886567 0.522693 0.174809
H5    H     H_    0.284615 0.882679 0.394221 0.159868
H6    H     H_    0.346264 0.119339 0.483752 0.200147
H7    H     H_    0.272270 0.105323 0.383898 0.172854
H8    H     H_    0.587708 0.362801 0.600242 0.144339
H9    H     H_    0.457226 0.519730 0.316621 0.204918
H10   H     H_    0.334086 0.438348 0.221113 0.130607
H11   H     H_    0.448891 0.691598 0.330835 0.201644
H12   H     H_    0.703989 0.520004 0.316772 0.207439
H13   H     H_    0.699421 0.692165 0.331500 0.199165
H14   H     H_    0.922835 0.585784 0.216427 0.150686
H15   H     H_    0.999603 0.433905 0.951182 0.149066
H16   H     H_    0.085084 0.455120 0.788259 0.167092
H17   H     H_    0.653567 0.532253 0.773641 0.155640
H18   H     H_    0.554837 0.456915 0.165925 0.133503
H19   H     H_    0.457558 0.606556 0.840943 0.172992
N1    N     N_R   0.648210 0.500930 0.499430 -0.195577
N2    N     N_R   0.352300 0.500890 0.499430 -0.184380
O1    O     O_R   0.118810 0.319640 0.500000 -0.552008
O2    O     O_R   0.881230 0.319680 0.499990 -0.589199
O3    O     O_R   0.055580 0.499970 0.629840 -0.553483
O4    O     O_R   0.818000 0.500010 0.629830 -0.589904
O5    O     O_R   0.118770 0.680320 0.500010 -0.586826
O6    O     O_R   0.881190 0.680360 0.500000 -0.580004
O7    O     O_R   0.182000 0.499990 0.370170 -0.588457
O8    O     O_R   0.944420 0.500030 0.370160 -0.581535
N3    N     N_3   0.372852 0.887293 0.509170 -0.580761
H20   H     H_    0.345415 0.796127 0.528805 0.240039
H21   H     H_    0.358452 0.937249 0.568587 0.229888
N4    N     N_3   0.301303 0.345107 0.617172 -0.525504
H22   H     H_    0.303838 0.367475 0.682354 0.189062
H23   H     H_    0.339036 0.254728 0.605336 0.184469
F1    F     F_    0.192368 0.645810 0.909328 -0.685270

loop_
_geom_bond_atom_site_label_1
_geom_bond_atom_site_label_2
_ccdc_geom_bond_type
C8    C9    A    
C31   O7    A    
C30   H13   S    
C16   C21   A    
C19   C20   A    
C4    C8    A    
C14   C33   A    
Cu1   O3    S    
C29   H11   S    
C25   C28   A    
C31   O8    A    
C26   C27   A    
Cu1   Cu2   S    
C29   H9    S    
C24   H7    S    
C32   C36   A    
C28   C29   S    
C5    C11   A    
C3    C7    A    
C5    C6    A    
C34   C35   A    
C18   C19   A    
C13   H2    S    
Cu2   N1    S    
C11   C15   A    
C14   H14   S    
C16   C17   A    
C31   C33   S    
C9    C10   A    
C19   H4    S    
Cu2   O2    S    
C30   H12   S    
C16   C24   S    
C13   C14   A    
C12   C32   S    
C35   H16   S    
C15   H10   S    
C32   C35   A    
C18   H3    S    
N4    H23   S    
C12   O4    A    
N3    H20   S    
C3    C34   A    
C2    C4    A    
C29   C30   S    
C8    H19   S    
C12   O3    A    
C22   H5    S    
C20   C23   S    
Cu1   O7    S    
C17   C18   A    
C20   C21   A    
C26   N1    A    
C22   N3    S    
Cu1   N2    S    
C23   O5    A    
C24   H6    S    
C22   C24   S    
C1    O1    A    
C9    F1    S    
Cu1   O5    S    
C27   N4    S    
Cu2   O4    S    
C28   N2    A    
C2    C36   A    
C25   C30   S    
C6    H18   S    
C4    C5    A    
C10   C13   A    
C1    O2    A    
C6    C7    A    
C1    C17   S    
C23   O6    A    
C2    C3    A    
N4    H22   S    
C36   H17   S    
C27   N2    A    
Cu1   O1    S    
C10   C11   A    
C26   H8    S    
Cu2   O8    S    
C34   H15   S    
N3    H21   S    
C25   N1    A    
C7    H1    S    
C21   C22   S    
Cu2   O6    S    
C15   C33   A    
