data_mof_unit_57821.cif
_audit_creation_date              2012-12-10T18:14:38-0500
_audit_creation_method            fapswitch 2.2
_symmetry_space_group_name_H-M    P1
_symmetry_Int_Tables_number       1
_space_group_crystal_system       triclinic
_cell_length_a                    10.819711
_cell_length_b                    9.512756
_cell_length_c                    27.902917
_cell_angle_alpha                 90.359495
_cell_angle_beta                  86.797421
_cell_angle_gamma                 88.891976
_cell_volume                      2866.81609526

loop_
_atom_site_label
_atom_site_type_symbol
_atom_type_description
_atom_site_fract_x
_atom_site_fract_y
_atom_site_fract_z
_atom_type_partial_charge
C1    C     C_R   0.260273 0.501465 0.501351 0.827453
C2    C     C_R   0.407737 0.604022 0.280842 -0.066803
C3    C     C_R   0.474297 0.497799 0.253908 0.226219
C4    C     C_R   0.475052 0.497306 0.102378 -0.036199
C5    C     C_R   0.364955 0.474720 0.129997 -0.048641
C6    C     C_R   0.253216 0.470517 0.107456 -0.170070
C7    C     C_R   0.583920 0.526533 0.125689 -0.032325
C8    C     C_R   0.482127 0.502999 0.354951 -0.101758
C9    C     C_R   0.497494 0.499929 0.646308 -0.202293
C10   C     C_R   0.367556 0.469224 0.977200 0.053941
C11   C     C_R   0.596206 0.478641 0.974187 -0.020508
C12   C     C_R   0.493536 0.500568 0.407785 0.902479
C13   C     C_R   0.483511 0.475015 0.950546 0.069043
C14   C     C_R   0.261976 0.439873 0.951504 -0.123886
C15   C     C_R   0.264561 0.448471 0.901793 -0.101350
C16   C     C_R   0.376069 0.469803 0.875518 -0.042463
C17   C     C_R   0.486717 0.472990 0.899598 -0.039542
C18   C     C_R   0.600274 0.471605 0.872595 -0.042626
C19   C     C_R   0.600837 0.473222 0.822221 0.573560
C20   C     C_R   0.380301 0.481700 0.825370 0.598693
C21   C     C_R   0.439494 0.388104 0.722491 -0.128753
C22   C     C_R   0.435181 0.392104 0.672665 -0.047333
C23   C     C_R   0.740491 0.498860 0.499754 0.853786
C24   C     C_R   0.558601 0.606105 0.672122 -0.112735
C25   C     C_R   0.551930 0.606047 0.723147 -0.042643
C26   C     C_R   0.494181 0.494224 0.747970 0.234463
C27   C     C_R   0.362599 0.481944 0.028335 -0.016056
C28   C     C_R   0.475997 0.492470 0.051525 0.070728
C29   C     C_R   0.590559 0.502956 0.024533 0.061097
C30   C     C_R   0.249740 0.489877 0.057839 -0.044525
C31   C     C_R   0.691891 0.557174 0.098292 -0.099658
C32   C     C_R   0.709634 0.454085 0.946246 -0.051723
C33   C     C_R   0.710429 0.459524 0.896127 -0.170512
C34   C     C_R   0.499294 0.500275 0.592650 0.870717
C35   C     C_R   0.694420 0.548117 0.048554 -0.122361
C36   C     C_3   0.068708 0.655363 0.502148 -0.381587
C37   C     C_3   0.066042 0.422903 0.544476 -0.367677
C38   C     C_3   0.928734 0.651411 0.495661 -0.386835
C39   C     C_3   0.923865 0.440631 0.547326 -0.358583
C40   C     C_3   0.086940 0.433293 0.453593 -0.425321
C41   C     C_3   0.123237 0.503561 0.500691 0.077179
C42   C     C_3   0.880236 0.497025 0.498692 0.001174
C43   C     C_3   0.944018 0.409634 0.454152 -0.067472
C44   C     C_3   0.605158 0.079937 0.470115 -0.112775
C45   C     C_3   0.610713 0.913185 0.472834 -0.103487
C46   C     C_3   0.513578 0.083572 0.549884 -0.216571
C47   C     C_3   0.507224 0.917063 0.550162 -0.209724
C48   C     C_3   0.382041 0.085196 0.485165 -0.170711
C49   C     C_3   0.385979 0.919551 0.481843 -0.176345
C50   C     C_R   0.367802 0.468209 0.180171 0.630997
C51   C     C_R   0.580739 0.529749 0.176027 0.629285
C52   C     C_R   0.542523 0.393916 0.277491 -0.011849
C53   C     C_R   0.547971 0.401124 0.327282 -0.176636
C54   C     C_R   0.410037 0.606161 0.331704 -0.193079
Cu1   Cu    Cu3+1 0.499860 0.642410 0.500020 0.975073
Cu2   Cu    Cu3+1 0.499860 0.357590 0.500020 0.973251
H1    H     H_    0.778162 0.580626 0.029237 0.163542
H2    H     H_    0.356076 0.131623 0.450784 0.211737
H3    H     H_    0.376514 0.885814 0.444270 0.233668
H4    H     H_    0.395069 0.303631 0.742400 0.190995
N1    N     N_R   0.474390 0.497400 0.202230 -0.438199
N2    N     N_R   0.491869 0.485161 0.799641 -0.448779
N3    N     N_3   0.500250 0.143650 0.501060 -0.184721
N4    N     N_3   0.500250 0.856350 0.501060 -0.190293
O1    O     O_R   0.317570 0.620260 0.500030 -0.592557
O2    O     O_R   0.317570 0.379740 0.500030 -0.600389
O3    O     O_R   0.499900 0.620250 0.430280 -0.565924
O4    O     O_R   0.499900 0.379750 0.430280 -0.563569
O5    O     O_R   0.682190 0.620260 0.500010 -0.576457
O6    O     O_R   0.682190 0.379740 0.500010 -0.576175
O7    O     O_R   0.499860 0.620280 0.569750 -0.585905
O8    O     O_R   0.499860 0.379720 0.569750 -0.580740
O9    O     O_2   0.264729 0.434465 0.206759 -0.493410
O10   O     O_2   0.273688 0.490538 0.802559 -0.506390
O11   O     O_2   0.683077 0.564128 0.198667 -0.513125
O12   O     O_2   0.709308 0.462245 0.796003 -0.511097
C55   C     C_2   0.334812 0.713981 0.360060 0.977725
O13   O     O_2   0.266445 0.677389 0.393650 -0.600073
O14   O     O_R   0.339085 0.857032 0.348794 -0.671043
H5    H     H_    0.406110 0.879597 0.323365 0.334598
C56   C     C_2   0.607441 0.275220 0.250960 0.916096
O15   O     O_2   0.698055 0.218270 0.267337 -0.564125
O16   O     O_R   0.563766 0.225851 0.207848 -0.748466
H6    H     H_    0.615708 0.144575 0.193512 0.356022
H7    H     H_    0.775102 0.588131 0.115126 0.209666
C57   C     C_2   0.824394 0.398267 0.966769 0.845779
O17   O     O_2   0.925860 0.432490 0.949657 -0.608604
O18   O     O_R   0.816371 0.302304 0.004540 -0.724296
H8    H     H_    0.900653 0.270516 0.014967 0.360849
C58   C     C_2   0.632015 0.715773 0.646620 0.884955
O19   O     O_2   0.713060 0.681802 0.616236 -0.630814
O20   O     O_R   0.611149 0.857624 0.658637 -0.735874
H9    H     H_    0.672239 0.921806 0.641279 0.330697
H10   H     H_    0.797473 0.445455 0.875297 0.220439
C59   C     C_2   0.605961 0.720670 0.751313 0.953250
O21   O     O_2   0.712482 0.756897 0.742152 -0.532327
O22   O     O_R   0.535513 0.784161 0.789332 -0.740351
H11   H     H_    0.582554 0.859096 0.806289 0.343921
H12   H     H_    0.113085 0.720570 0.473284 0.220858
H13   H     H_    0.091433 0.309244 0.541249 0.195027
H14   H     H_    0.086235 0.706261 0.537100 0.183683
H15   H     H_    0.102307 0.463989 0.578223 0.206817
H16   H     H_    0.880721 0.720526 0.523477 0.209609
H17   H     H_    0.896397 0.517430 0.576422 0.214775
C60   C     C_2   0.333479 0.709722 0.255129 0.869119
O23   O     O_2   0.224928 0.732821 0.267835 -0.510019
O24   O     O_R   0.387631 0.781384 0.215970 -0.753409
H18   H     H_    0.327689 0.849487 0.201180 0.354565
H19   H     H_    0.911712 0.696665 0.460300 0.241610
H20   H     H_    0.878984 0.341867 0.558942 0.216226
H21   H     H_    0.120029 0.500636 0.423651 0.255493
H22   H     H_    0.140936 0.333100 0.447538 0.177563
C61   C     C_2   0.890546 0.458003 0.407011 0.858454
O25   O     O_2   0.781078 0.440667 0.400607 -0.611788
O26   O     O_R   0.964740 0.520066 0.370600 -0.710276
H23   H     H_    0.917133 0.545336 0.341473 0.365067
C62   C     C_2   0.930226 0.250051 0.456364 0.874083
O27   O     O_2   0.892753 0.191354 0.492903 -0.652140
O28   O     O_R   0.973601 0.168436 0.416742 -0.698140
H24   H     H_    0.965551 0.063790 0.422570 0.359212
H25   H     H_    0.691159 0.115769 0.485102 0.170995
H26   H     H_    0.694598 0.886677 0.492714 0.120280
C63   C     C_2   0.613748 0.129647 0.418501 0.906568
O29   O     O_2   0.523953 0.127541 0.393786 -0.565459
O30   O     O_R   0.730858 0.153046 0.396977 -0.739365
H27   H     H_    0.732635 0.152771 0.360680 0.373166
C64   C     C_2   0.638200 0.843490 0.423913 0.921907
O31   O     O_2   0.564725 0.853274 0.392420 -0.584943
O32   O     O_R   0.751968 0.775994 0.413490 -0.783837
H28   H     H_    0.760579 0.737697 0.379453 0.352673
H29   H     H_    0.602159 0.117264 0.564394 0.161943
H30   H     H_    0.590699 0.874119 0.566457 0.185338
H31   H     H_    0.304448 0.117241 0.511080 0.136897
H32   H     H_    0.303034 0.879704 0.502331 0.144609
H33   H     H_    0.438656 0.125542 0.574807 0.195716
H34   H     H_    0.426082 0.884223 0.573416 0.181752
H35   H     H_    0.167036 0.468478 0.129221 0.219991
C65   C     C_2   0.357900 0.285139 0.650513 0.856152
O33   O     O_2   0.357970 0.164560 0.665558 -0.579144
O34   O     O_R   0.280420 0.322917 0.614175 -0.782462
H36   H     H_    0.231760 0.240466 0.602647 0.315514
H37   H     H_    0.179344 0.433439 0.883946 0.211371
H38   H     H_    0.176185 0.407067 0.968905 0.180774
C66   C     C_2   0.130301 0.544685 0.041020 0.837180
O35   O     O_2   0.032496 0.496528 0.056985 -0.600619
O36   O     O_R   0.129507 0.655599 0.008356 -0.727604
H39   H     H_    0.042692 0.684310 0.999911 0.351271
H40   H     H_    0.605167 0.326647 0.344821 0.216979

loop_
_geom_bond_atom_site_label_1
_geom_bond_atom_site_label_2
_ccdc_geom_bond_type
C10   C27   A    
C21   C26   A    
C31   H7    S    
C47   H34   S    
C23   O5    A    
C59   O21   D    
C51   N1    A    
Cu1   Cu2   S    
C33   H10   S    
O32   H28   S    
C56   O15   D    
C63   O29   D    
C40   H22   S    
C55   O13   D    
C52   C53   A    
C12   O4    A    
C23   C42   S    
C28   C29   A    
C51   O11   S    
C38   C42   S    
C62   O28   S    
C5    C6    A    
C3    C52   A    
C57   O18   S    
C9    C22   A    
C63   O30   S    
C19   N2    A    
C15   C16   A    
C44   H25   S    
C30   C66   S    
C2    C60   S    
C18   C19   A    
C49   H32   S    
C56   O16   S    
C46   H33   S    
C46   C47   S    
C40   C43   S    
C16   C17   A    
Cu2   O8    S    
C1    O1    A    
O24   H18   S    
Cu2   O2    S    
C40   H21   S    
C8    C12   S    
C54   C55   S    
C3    N1    S    
C49   N4    S    
C21   C22   A    
C27   C30   A    
C37   C41   S    
C23   O6    A    
C36   C41   S    
C4    C7    A    
C4    C28   A    
O22   H11   S    
C39   C42   S    
C55   O14   S    
C44   N3    S    
C12   O3    A    
C7    C31   A    
O36   H39   S    
C48   H31   S    
C39   H17   S    
O34   H36   S    
C21   H4    S    
C66   O36   S    
C10   C14   A    
C50   O9    S    
C8    C54   A    
C46   H29   S    
C57   O17   D    
C66   O35   D    
C48   N3    S    
C25   C26   A    
Cu2   O4    S    
C53   H40   S    
C36   H14   S    
C1    O2    A    
C64   O32   S    
C38   H16   S    
C15   H37   S    
C60   O24   S    
C58   O20   S    
O16   H6    S    
C16   C20   A    
C32   C57   S    
Cu1   N4    S    
C17   C18   A    
Cu2   N3    S    
C20   O10   S    
C24   C25   A    
C38   H19   S    
Cu1   O5    S    
C65   O34   S    
C43   C62   S    
C1    C41   S    
C40   C41   S    
C6    C30   A    
C11   C32   A    
C25   C59   S    
Cu2   O6    S    
C2    C54   A    
O30   H27   S    
C31   C35   A    
C5    C50   A    
C39   H20   S    
C42   C43   S    
C64   O31   D    
C34   O8    A    
C47   N4    S    
C44   C45   S    
C61   O25   D    
C22   C65   S    
C14   H38   S    
C19   O12   S    
C45   N4    S    
Cu1   O1    S    
C4    C5    A    
C10   C13   A    
C24   C58   S    
C8    C53   A    
Cu1   O3    S    
O28   H24   S    
C59   O22   S    
C9    C24   A    
C48   H2    S    
C45   H26   S    
C60   O23   D    
C29   C35   A    
C44   C63   S    
C49   H3    S    
C13   C17   A    
C47   H30   S    
C35   H1    S    
C32   C33   A    
C6    H35   S    
C36   C38   S    
C2    C3    A    
C26   N2    S    
C7    C51   A    
C37   C39   S    
C62   O27   D    
C43   C61   S    
C11   C13   A    
C58   O19   D    
C37   H15   S    
C46   N3    S    
C45   C64   S    
C48   C49   S    
O20   H9    S    
C9    C34   S    
C36   H12   S    
C20   N2    A    
C52   C56   S    
C18   C33   A    
C65   O33   D    
O14   H5    S    
O18   H8    S    
C11   C29   A    
C27   C28   A    
C50   N1    A    
C14   C15   A    
C34   O7    A    
C37   H13   S    
Cu1   O7    S    
O26   H23   S    
C61   O26   S    
