data_mof_unit_26262.cif
_audit_creation_date              2012-12-10T17:21:19-0500
_audit_creation_method            fapswitch 2.2
_symmetry_space_group_name_H-M    P1
_symmetry_Int_Tables_number       1
_space_group_crystal_system       triclinic
_cell_length_a                    9.693738
_cell_length_b                    10.849058
_cell_length_c                    13.863307
_cell_angle_alpha                 94.335682
_cell_angle_beta                  84.546427
_cell_angle_gamma                 89.156773
_cell_volume                      1446.86997005

loop_
_atom_site_label
_atom_site_type_symbol
_atom_type_description
_atom_site_fract_x
_atom_site_fract_y
_atom_site_fract_z
_atom_type_partial_charge
C1    C     C_R   0.497072 0.738478 0.503025 0.794863
C2    C     C_1   0.463792 0.515246 0.786191 -0.190932
C3    C     C_R   0.229145 0.897047 0.549949 -0.172004
C4    C     C_R   0.116461 0.963885 0.599219 0.165006
C5    C     C_R   0.132314 0.088433 0.632023 0.190085
C6    C     C_R   0.259682 0.143239 0.610720 -0.116029
C7    C     C_R   0.373599 0.075811 0.559978 0.055352
C8    C     C_R   0.363787 0.946820 0.539638 0.048872
C9    C     C_R   0.489529 0.875019 0.513592 -0.146771
C10   C     C_R   0.616643 0.934716 0.511676 -0.187090
C11   C     C_R   0.623250 0.061913 0.523490 0.137471
C12   C     C_R   0.477156 0.502666 0.682684 0.792231
C13   C     C_R   0.499568 0.133763 0.533439 -0.146279
C14   C     C_R   0.885730 0.391087 0.334371 0.130818
C15   C     C_R   0.968843 0.394175 0.245008 -0.098795
C16   C     C_R   0.113663 0.389986 0.248212 0.038877
C17   C     C_R   0.164190 0.384588 0.338829 0.052727
C18   C     C_R   0.085609 0.441950 0.421971 0.056041
C19   C     C_R   0.937629 0.443897 0.420755 0.129645
C20   C     C_R   0.916224 0.558848 0.573338 0.250677
C21   C     C_R   0.062157 0.557922 0.573673 0.242368
C22   C     C_R   0.499815 0.264865 0.511831 0.792667
C23   C     C_R   0.522524 0.500156 0.317435 0.808602
C24   C     C_1   0.534063 0.495963 0.214021 -0.195931
C25   C     C_2   0.538133 0.482364 0.023206 -0.174402
C26   C     C_2   0.448391 0.547220 0.977224 0.187218
C27   C     C_1   0.455423 0.529308 0.873263 0.010580
C28   C     C_1   0.538103 0.490471 0.127000 0.009805
Cu1   Cu    Cu3+1 0.359340 0.500010 0.500010 0.937678
Cu2   Cu    Cu3+1 0.640660 0.499990 0.499990 0.941100
H1    H     H_    0.612351 0.418050 0.981653 0.145356
H2    H     H_    0.713622 0.882373 0.501194 0.181537
H3    H     H_    0.204035 0.807595 0.519574 0.197163
H4    H     H_    0.270356 0.238065 0.638830 0.161909
N1    N     N_R   0.852210 0.498790 0.499090 -0.218578
N2    N     N_R   0.148080 0.498710 0.499060 -0.231592
O1    O     O_R   0.381190 0.680360 0.500010 -0.605043
O2    O     O_R   0.618760 0.680340 0.500000 -0.590054
O3    O     O_R   0.364420 0.499990 0.637850 -0.602218
O4    O     O_R   0.601990 0.499960 0.637840 -0.595436
O5    O     O_R   0.381240 0.319660 0.500000 -0.566917
O6    O     O_R   0.618810 0.319640 0.499990 -0.554276
O7    O     O_R   0.398010 0.500040 0.362160 -0.581007
O8    O     O_R   0.635580 0.500010 0.362150 -0.554434
N3    N     N_3   0.348926 0.636575 0.026232 -0.562061
H5    H     H_    0.250094 0.605849 0.013525 0.229113
H6    H     H_    0.352818 0.643711 0.101431 0.233322
N4    N     N_3   0.785209 0.295777 0.341388 -0.531772
H7    H     H_    0.713747 0.302551 0.290359 0.194485
H8    H     H_    0.837884 0.211336 0.322217 0.195177
C29   C     C_2   0.902920 0.382979 0.151893 0.377039
H9    H     H_    0.792758 0.369171 0.152049 0.068528
O9    O     O_2   0.968921 0.393155 0.073581 -0.557790
N5    N     N_3   0.208087 0.364353 0.162616 -0.591914
H10   H     H_    0.203829 0.438212 0.118882 0.269435
H11   H     H_    0.179245 0.283191 0.124858 0.259134
C30   C     C_2   0.249142 0.272636 0.345612 0.480346
H12   H     H_    0.346616 0.257245 0.300525 0.056085
O10   O     O_2   0.205370 0.191880 0.396430 -0.567113
N6    N     N_3   0.115765 0.619255 0.656769 -0.553200
H13   H     H_    0.203143 0.669089 0.636490 0.258878
H14   H     H_    0.136996 0.553540 0.704924 0.241412
N7    N     N_3   0.989019 0.900650 0.616973 -0.594289
H15   H     H_    0.911398 0.946948 0.586196 0.245711
H16   H     H_    0.963574 0.901284 0.691986 0.238094
N8    N     N_3   0.022510 0.162401 0.685861 -0.593897
H17   H     H_    0.994003 0.230567 0.641644 0.225780
H18   H     H_    0.934513 0.111006 0.702274 0.221028
N9    N     N_3   0.756117 0.113542 0.535704 -0.619163
H19   H     H_    0.793104 0.155199 0.473791 0.271364
H20   H     H_    0.747925 0.177646 0.596296 0.230979
N10   N     N_3   0.838703 0.626101 0.654014 -0.556650
H21   H     H_    0.802947 0.564890 0.704857 0.239650
H22   H     H_    0.759284 0.679030 0.631305 0.261432

loop_
_geom_bond_atom_site_label_1
_geom_bond_atom_site_label_2
_ccdc_geom_bond_type
C12   O4    A    
N8    H18   S    
C23   C24   S    
N7    H16   S    
C25   H1    S    
Cu1   Cu2   S    
C15   C29   S    
C24   C28   T    
C9    C10   A    
N5    H10   S    
Cu1   N2    S    
C1    O1    A    
Cu2   O6    S    
C2    C12   S    
Cu1   O3    S    
C12   O3    A    
N4    H8    S    
C17   C18   A    
C30   H12   S    
Cu2   O4    S    
C7    C8    A    
C21   N2    A    
C19   N1    A    
N3    H5    S    
C5    N8    S    
C25   C28   S    
C4    C5    A    
C11   C13   A    
C4    N7    S    
Cu2   O8    S    
C26   C27   S    
C2    C27   T    
C18   N2    A    
Cu2   N1    S    
N6    H13   S    
C5    C6    A    
C1    O2    A    
N10   H22   S    
N4    H7    S    
C13   C22   S    
C3    C8    A    
C6    C7    A    
N5    H11   S    
N9    H19   S    
N3    H6    S    
C11   N9    S    
C16   N5    S    
C30   O10   D    
C22   O5    A    
C16   C17   A    
C10   C11   A    
C3    H3    S    
C29   O9    D    
Cu1   O1    S    
C29   H9    S    
C1    C9    S    
C10   H2    S    
C7    C13   A    
C23   O7    A    
C20   C21   A    
Cu2   O2    S    
C21   N6    S    
N6    H14   S    
C18   C19   A    
C22   O6    A    
N8    H17   S    
N9    H20   S    
C14   C15   A    
C8    C9    A    
C14   N4    S    
C26   N3    S    
Cu1   O5    S    
C25   C26   D    
N7    H15   S    
C20   N1    A    
C20   N10   S    
C14   C19   A    
C15   C16   A    
Cu1   O7    S    
C3    C4    A    
C6    H4    S    
C17   C30   S    
N10   H21   S    
C23   O8    A    
