data_mof_unit_29462.cif
_audit_creation_date              2012-12-10T17:31:56-0500
_audit_creation_method            fapswitch 2.2
_symmetry_space_group_name_H-M    P1
_symmetry_Int_Tables_number       1
_space_group_crystal_system       triclinic
_cell_length_a                    12.135665
_cell_length_b                    11.514717
_cell_length_c                    12.771823
_cell_angle_alpha                 90.74381
_cell_angle_beta                  93.119123
_cell_angle_gamma                 86.263784
_cell_volume                      1778.20730125

loop_
_atom_site_label
_atom_site_type_symbol
_atom_type_description
_atom_site_fract_x
_atom_site_fract_y
_atom_site_fract_z
_atom_type_partial_charge
C1    C     C_R   0.478415 0.498509 0.300192 0.985780
C2    C     C_R   0.521688 0.500349 0.699696 1.034510
C3    C     C_R   0.042058 0.631899 0.568991 -0.373626
C4    C     C_R   0.958641 0.363807 0.438349 -0.380947
C5    C     C_R   0.157596 0.615567 0.569023 0.011990
C6    C     C_R   0.843070 0.380092 0.438169 0.032457
C7    C     C_R   0.143636 0.439296 0.471874 0.629860
C8    C     C_R   0.856623 0.565622 0.519210 0.618213
C9    C     C_R   0.025930 0.449925 0.477521 -0.072222
C10   C     C_R   0.974575 0.550084 0.521951 -0.062852
C11   C     C_R   0.499904 0.282231 0.499921 0.954542
C12   C     C_R   0.500262 0.717754 0.501536 0.897985
C13   C     C_1   0.499816 0.161699 0.500086 -0.142722
C14   C     C_1   0.500250 0.838338 0.501354 -0.193848
C15   C     C_1   0.499938 0.059389 0.500390 -0.007648
C16   C     C_1   0.500140 0.940634 0.500927 -0.014474
C17   C     C_R   0.534619 0.515778 0.810220 -0.350273
C18   C     C_R   0.468285 0.480015 0.189642 -0.342548
C19   C     C_R   0.516428 0.344056 0.051297 0.463827
C20   C     C_R   0.525999 0.648881 0.956558 0.561955
C21   C     C_R   0.487409 0.364922 0.154511 0.378728
C22   C     C_R   0.539003 0.629211 0.850298 0.355712
C23   C     C_R   0.472282 0.575474 0.123306 0.449765
C24   C     C_R   0.526667 0.419956 0.874202 0.443590
C25   C     C_R   0.504914 0.554848 0.021118 -0.259299
C26   C     C_R   0.517519 0.438479 0.982214 -0.274720
H1    H     H_    0.005478 0.707756 0.608370 0.189614
H2    H     H_    0.995354 0.284065 0.405512 0.186570
N1    N     N_R   0.792200 0.479100 0.480660 -0.152081
N2    N     N_R   0.207800 0.520900 0.519340 -0.156630
O1    O     O_R   0.578300 0.494420 0.341180 -0.581261
O2    O     O_R   0.421700 0.505580 0.658820 -0.580951
O3    O     O_R   0.390690 0.507830 0.353590 -0.623770
O4    O     O_R   0.609310 0.492170 0.646410 -0.621738
O5    O     O_R   0.593810 0.327740 0.493800 -0.607064
O6    O     O_R   0.406190 0.672260 0.506200 -0.616842
O7    O     O_R   0.406190 0.341150 0.506220 -0.579023
O8    O     O_R   0.593810 0.658850 0.493780 -0.598435
Zn1   Zn    Zn3+2 0.625270 0.491050 0.491710 1.004524
Zn2   Zn    Zn3+2 0.374730 0.508950 0.508290 1.011577
O9    O     O_3   0.527638 0.309318 0.829613 -0.581338
C27   C     C_3   0.417820 0.276111 0.813689 -0.191988
H3    H     H_    0.420332 0.185119 0.783876 0.191693
H4    H     H_    0.370354 0.330987 0.753996 0.153464
H5    H     H_    0.373156 0.278741 0.887534 0.165939
O10   O     O_3   0.420892 0.683443 0.147432 -0.551409
C28   C     C_3   0.476469 0.740655 0.231062 -0.230899
H6    H     H_    0.561884 0.703746 0.251554 0.110091
H7    H     H_    0.425680 0.740262 0.300349 0.153396
H8    H     H_    0.482367 0.833007 0.209629 0.195208
O11   O     O_3   0.539185 0.723025 0.783466 -0.558323
C29   C     C_3   0.648846 0.742981 0.760274 -0.210911
H9    H     H_    0.708117 0.664884 0.767691 0.150212
H10   H     H_    0.679108 0.814749 0.810370 0.163559
H11   H     H_    0.648669 0.773118 0.678367 0.213637
O12   O     O_3   0.489497 0.274855 0.226114 -0.575542
C30   C     C_3   0.408013 0.196537 0.196991 -0.244477
H12   H     H_    0.444712 0.122734 0.151029 0.216508
H13   H     H_    0.334463 0.237881 0.152387 0.116832
H14   H     H_    0.378229 0.159894 0.269417 0.178871
O13   O     O_3   0.544810 0.231328 0.019220 -0.573793
C31   C     C_3   0.659853 0.209248 0.037371 -0.193171
H15   H     H_    0.683940 0.212471 0.122547 0.192521
H16   H     H_    0.707080 0.270945 0.993864 0.155095
H17   H     H_    0.683007 0.120157 0.008570 0.172029
O14   O     O_3   0.532496 0.760886 0.995837 -0.518377
C32   C     C_3   0.641029 0.772422 0.039031 -0.313325
H18   H     H_    0.703454 0.760141 0.978922 0.135142
H19   H     H_    0.663243 0.709555 0.103216 0.139786
H20   H     H_    0.646246 0.861505 0.072268 0.188512
O15   O     O_3   0.806261 0.667570 0.556672 -0.616838
C33   C     C_3   0.805532 0.752971 0.477964 -0.335981
H21   H     H_    0.757202 0.832036 0.504357 0.191649
H22   H     H_    0.765393 0.723354 0.402617 0.167867
H23   H     H_    0.890137 0.778720 0.464226 0.149040
O16   O     O_3   0.194856 0.344280 0.422709 -0.591159
C34   C     C_3   0.176591 0.352905 0.312532 -0.328077
H24   H     H_    0.163245 0.264824 0.280016 0.167702
H25   H     H_    0.250873 0.383206 0.277735 0.214672
H26   H     H_    0.104013 0.411384 0.285525 0.137808
C35   C     C_2   0.780966 0.287966 0.386750 0.485820
H27   H     H_    0.801988 0.197617 0.406797 0.011829
O17   O     O_2   0.712312 0.310629 0.315680 -0.544312
C36   C     C_2   0.220653 0.705925 0.622418 0.521075
H28   H     H_    0.202580 0.796491 0.601515 0.017581
O18   O     O_2   0.286546 0.681998 0.695504 -0.515840

loop_
_geom_bond_atom_site_label_1
_geom_bond_atom_site_label_2
_ccdc_geom_bond_type
C18   C21   A    
C6    C35   S    
O9    C27   S    
C35   H27   S    
C1    O3    A    
C28   H7    S    
C34   H24   S    
C1    C18   S    
C8    N1    A    
C20   O14   S    
C19   C21   A    
C24   C26   A    
O7    Zn2   S    
O8    Zn1   S    
C30   H13   S    
C20   C25   A    
C15   C16   S    
C1    O1    A    
O12   C30   S    
C2    O2    A    
C11   O7    A    
C19   C26   A    
C31   H16   S    
C4    H2    S    
O4    Zn1   S    
C12   O6    A    
C9    C10   A    
C29   H11   S    
C2    O4    A    
O2    Zn2   S    
O14   C32   S    
C23   O10   S    
C2    C17   S    
C24   O9    S    
C27   H4    S    
C33   H23   S    
C35   O17   D    
C29   H10   S    
C28   H8    S    
C34   H25   S    
C17   C24   A    
C32   H18   S    
O3    Zn2   S    
O6    Zn2   S    
O16   C34   S    
C33   H22   S    
C5    C36   S    
C30   H14   S    
C25   C26   A    
C18   C23   A    
C32   H19   S    
C27   H5    S    
O5    Zn1   S    
C31   H15   S    
C28   H6    S    
N1    Zn1   S    
N2    Zn2   S    
C36   H28   S    
C4    C6    A    
C12   C14   S    
C13   C15   T    
C14   C16   T    
C27   H3    S    
C20   C22   A    
C29   H9    S    
C5    N2    A    
C34   H26   S    
C7    C9    A    
O10   C28   S    
C8    O15   S    
C31   H17   S    
C36   O18   D    
C33   H21   S    
C3    C5    A    
C21   O12   S    
C7    O16   S    
C17   C22   A    
C32   H20   S    
C11   O5    A    
O11   C29   S    
C3    C10   A    
C11   C13   S    
C30   H12   S    
C19   O13   S    
C3    H1    S    
O1    Zn1   S    
C23   C25   A    
C12   O8    A    
O13   C31   S    
O15   C33   S    
C6    N1    A    
C8    C10   A    
C7    N2    A    
C4    C9    A    
C22   O11   S    
