data_mof_unit_25034.cif
_audit_creation_date              2012-12-10T19:06:25-0500
_audit_creation_method            fapswitch 2.2
_symmetry_space_group_name_H-M    P1
_symmetry_Int_Tables_number       1
_space_group_crystal_system       triclinic
_cell_length_a                    23.507386
_cell_length_b                    10.858558
_cell_length_c                    9.538928
_cell_angle_alpha                 90.022816
_cell_angle_beta                  89.68914
_cell_angle_gamma                 90.106112
_cell_volume                      2434.83140785

loop_
_atom_site_label
_atom_site_type_symbol
_atom_type_description
_atom_site_fract_x
_atom_site_fract_y
_atom_site_fract_z
_atom_type_partial_charge
C1    C     C_R   0.500309 0.262679 0.499829 0.805720
C2    C     C_R   0.969615 0.290330 0.410907 -0.161179
C3    C     C_R   0.028975 0.290214 0.409902 -0.160243
C4    C     C_R   0.059436 0.392985 0.458606 -0.014832
C5    C     C_R   0.029640 0.496432 0.509202 -0.016973
C6    C     C_R   0.059745 0.599906 0.558431 -0.015087
C7    C     C_R   0.029611 0.702600 0.608687 -0.160418
C8    C     C_R   0.970264 0.702675 0.609804 -0.161428
C9    C     C_R   0.119123 0.395127 0.458267 0.533782
C10   C     C_R   0.119410 0.598023 0.555559 0.534266
C11   C     C_R   0.238459 0.497587 0.376719 -0.100592
C12   C     C_R   0.390889 0.499651 0.500416 0.801868
C13   C     C_R   0.297789 0.498496 0.375144 -0.215756
C14   C     C_R   0.328220 0.498754 0.501621 -0.040863
C15   C     C_R   0.298192 0.497875 0.629509 -0.217509
C16   C     C_R   0.238892 0.496963 0.630768 -0.100841
C17   C     C_R   0.208805 0.496902 0.504479 0.355020
C18   C     C_R   0.759133 0.421041 0.595119 -0.096615
C19   C     C_R   0.699906 0.422893 0.592244 -0.274079
C20   C     C_R   0.671268 0.502364 0.500760 -0.045935
C21   C     C_R   0.702548 0.583449 0.414090 0.124743
C22   C     C_R   0.762194 0.580295 0.417321 -0.128524
C23   C     C_R   0.500494 0.737310 0.499858 0.806710
C24   C     C_R   0.790461 0.499295 0.507315 0.319598
C25   C     C_R   0.497967 0.062027 0.620859 0.135750
C26   C     C_R   0.501754 0.130082 0.498194 -0.103018
C27   C     C_R   0.507102 0.064554 0.370895 -0.210763
C28   C     C_R   0.507273 0.935337 0.370961 -0.214522
C29   C     C_R   0.502044 0.869897 0.498321 -0.106865
C30   C     C_R   0.498185 0.938055 0.620969 0.133662
C31   C     C_3   0.489499 0.929284 0.775494 -0.464656
C32   C     C_3   0.489217 0.071110 0.775296 -0.475957
C33   C     C_R   0.525966 0.592962 0.073186 0.241998
C34   C     C_R   0.608897 0.501271 0.499855 0.815242
C35   C     C_R   0.469599 0.415370 0.074839 -0.078075
C36   C     C_R   0.469550 0.415443 0.925896 -0.080079
C37   C     C_R   0.526073 0.592758 0.925765 0.253409
C38   C     C_3   0.587464 0.626682 0.918748 -0.502552
C39   C     C_3   0.587333 0.627269 0.077679 -0.471456
C40   C     C_R   0.880142 0.598405 0.559845 0.537054
C41   C     C_R   0.879794 0.395900 0.461498 0.539313
C42   C     C_R   0.939473 0.393180 0.460740 -0.016801
C43   C     C_R   0.969593 0.496527 0.510279 -0.017512
C44   C     C_R   0.939812 0.600114 0.560536 -0.015694
Cu1   Cu    Cu3+1 0.500000 0.499980 0.640670 0.941304
Cu2   Cu    Cu3+1 0.500000 0.500020 0.359330 0.950852
H1    H     H_    0.947469 0.209708 0.372312 0.190202
H2    H     H_    0.676320 0.361226 0.660450 0.159317
H3    H     H_    0.786891 0.641453 0.350977 0.143191
H4    H     H_    0.510756 0.112344 0.271597 0.166728
H5    H     H_    0.511058 0.887470 0.271701 0.164868
H6    H     H_    0.447657 0.887946 0.803448 0.205276
H7    H     H_    0.526822 0.889101 0.829639 0.192429
H8    H     H_    0.447160 0.111209 0.802968 0.194852
H9    H     H_    0.526365 0.112851 0.829209 0.203017
H10   H     H_    0.445873 0.345447 0.130974 0.140271
H11   H     H_    0.050869 0.209484 0.370621 0.190922
H12   H     H_    0.445713 0.345738 0.870334 0.136988
H13   H     H_    0.614451 0.552473 0.873647 0.227058
H14   H     H_    0.594377 0.719333 0.872296 0.191411
H15   H     H_    0.614289 0.553370 0.122672 0.245514
H16   H     H_    0.593812 0.720588 0.122835 0.202670
H17   H     H_    0.051753 0.783274 0.647157 0.191020
H18   H     H_    0.948372 0.783428 0.649040 0.190302
H19   H     H_    0.215452 0.497929 0.278677 0.143393
H20   H     H_    0.319746 0.499123 0.275043 0.158979
H21   H     H_    0.320442 0.497836 0.728627 0.158790
H22   H     H_    0.216234 0.496071 0.729911 0.143223
H23   H     H_    0.780765 0.358938 0.665744 0.154260
N1    N     N_R   0.851472 0.497570 0.510235 -0.463967
N2    N     N_R   0.147769 0.496672 0.506065 -0.469834
N3    N     N_R   0.500360 0.500930 0.147930 -0.183762
N4    N     N_R   0.500360 0.500890 0.852020 -0.182933
O1    O     O_R   0.500000 0.319640 0.618810 -0.583800
O2    O     O_2   0.850276 0.298390 0.412542 -0.535159
O3    O     O_2   0.148342 0.296280 0.411593 -0.534037
O4    O     O_2   0.148898 0.697002 0.600709 -0.533301
O5    O     O_R   0.500010 0.319680 0.381230 -0.590107
O6    O     O_R   0.417880 0.499940 0.618820 -0.584423
O7    O     O_R   0.417880 0.499980 0.381240 -0.582896
O8    O     O_R   0.499990 0.680320 0.618770 -0.579021
O9    O     O_R   0.500000 0.680360 0.381190 -0.583682
O10   O     O_R   0.582120 0.500020 0.618760 -0.589912
O11   O     O_R   0.582120 0.500060 0.381180 -0.557176
O12   O     O_2   0.850946 0.696400 0.608919 -0.537829
N5    N     N_3   0.673698 0.671282 0.327443 -0.600109
H24   H     H_    0.653540 0.734460 0.393795 0.212033
H25   H     H_    0.702887 0.721351 0.267002 0.223774

loop_
_geom_bond_atom_site_label_1
_geom_bond_atom_site_label_2
_ccdc_geom_bond_type
C23   O9    A    
C41   C42   A    
C35   C36   A    
C31   H6    S    
C18   H23   S    
C24   N1    S    
C7    C8    A    
Cu1   Cu2   S    
C26   C27   A    
C29   C30   A    
C40   N1    A    
C18   C24   A    
C1    O1    A    
C23   C29   S    
C28   C29   A    
C36   H12   S    
C5    C6    A    
C28   H5    S    
N5    H25   S    
C15   C16   A    
C12   O6    A    
Cu1   N4    S    
C18   C19   A    
C33   N3    A    
Cu2   O9    S    
C19   C20   A    
C16   C17   A    
C16   H22   S    
C9    O3    S    
C32   H9    S    
Cu2   N3    S    
C27   H4    S    
C20   C34   S    
C10   N2    A    
C25   C32   S    
C5    C43   A    
C21   C22   A    
C1    O5    A    
Cu1   O10   S    
C34   O11   A    
C32   H8    S    
C10   O4    S    
C13   H20   S    
C39   H15   S    
C9    N2    A    
Cu2   O5    S    
N5    H24   S    
C25   C26   A    
C33   C37   A    
Cu1   O1    S    
C40   O12   S    
C43   C44   A    
C37   C38   S    
C41   O2    S    
C31   C32   S    
C30   C31   S    
C15   H21   S    
Cu1   O6    S    
C33   C39   S    
C31   H7    S    
C7    H17   S    
C8    H18   S    
C22   H3    S    
C38   H14   S    
C3    H11   S    
C12   C14   S    
C35   N3    A    
C17   N2    S    
C1    C26   S    
Cu2   O11   S    
C42   C43   A    
C3    C4    A    
C25   C30   A    
C39   H16   S    
C37   N4    A    
C21   N5    S    
C11   C17   A    
C23   O8    A    
C35   H10   S    
C19   H2    S    
Cu1   O8    S    
C8    C44   A    
C4    C5    A    
C6    C10   A    
C6    C7    A    
C2    H1    S    
C2    C3    A    
Cu2   O7    S    
C11   C13   A    
C38   C39   S    
C2    C42   A    
C12   O7    A    
C22   C24   A    
C36   N4    A    
C38   H13   S    
C40   C44   A    
C20   C21   A    
C34   O10   A    
C27   C28   A    
C14   C15   A    
C4    C9    A    
C13   C14   A    
C11   H19   S    
C41   N1    A    
