data_mof_unit_32597.cif
_audit_creation_date              2012-12-11T17:02:23-0500
_audit_creation_method            fapswitch 2.2
_symmetry_space_group_name_H-M    P1
_symmetry_Int_Tables_number       1
_space_group_crystal_system       triclinic
_cell_length_a                    21.749704
_cell_length_b                    7.186145
_cell_length_c                    15.239684
_cell_angle_alpha                 90.4369
_cell_angle_beta                  109.176343
_cell_angle_gamma                 89.536055
_cell_volume                      2249.63760892

loop_
_atom_site_label
_atom_site_type_symbol
_atom_type_description
_atom_site_fract_x
_atom_site_fract_y
_atom_site_fract_z
_atom_type_partial_charge
O1    O     O_R   0.585850 0.505770 0.002130 -0.526646
O2    O     O_R   0.414150 0.005770 0.997870 -0.525174
O3    O     O_R   0.467530 0.173560 0.861970 -0.527617
O4    O     O_R   0.532470 0.673560 0.138030 -0.542679
C1    C     C_R   0.453216 0.343382 0.826683 0.708383
C2    C     C_R   0.546585 0.844148 0.173716 0.750777
O5    O     O_R   0.588690 0.175900 0.993250 -0.565583
O6    O     O_R   0.411310 0.675900 0.006750 -0.554249
O7    O     O_R   0.536170 0.007950 0.130090 -0.545278
O8    O     O_R   0.463830 0.507950 0.869910 -0.546153
C3    C     C_R   0.615404 0.343805 0.001034 0.716552
C4    C     C_R   0.384365 0.845245 0.995950 0.767843
O9    O     O_3   0.482630 0.339970 0.044740 -0.382190
O10   O     O_3   0.517370 0.839970 0.955260 -0.392661
V1    V     V_3+5 0.503220 0.064200 0.991700 1.431063
V2    V     V_3+5 0.496780 0.564200 0.008300 1.421428
C5    C     C_R   0.282847 0.026223 0.987138 0.011643
C6    C     C_R   0.720267 0.517076 0.028648 0.003639
C7    C     C_R   0.313488 0.858133 0.980591 -0.114610
C8    C     C_R   0.685692 0.351251 0.009903 -0.082728
C9    C     C_R   0.273921 0.700099 0.962173 -0.276621
C10   C     C_R   0.718565 0.196060 0.991656 -0.288438
H1    H     H_    0.294891 0.568162 0.953856 0.137877
H2    H     H_    0.692897 0.068915 0.974863 0.112462
C11   C     C_R   0.211369 0.705758 0.972383 0.451605
C12   C     C_R   0.779923 0.211518 0.979375 0.399435
C13   C     C_R   0.180181 0.875139 0.979792 -0.139136
C14   C     C_R   0.817319 0.375519 0.007256 -0.169100
C15   C     C_R   0.219750 0.028268 0.991530 -0.101294
C16   C     C_R   0.785797 0.527662 0.032815 -0.095286
C17   C     C_3   0.237607 0.154903 0.071251 0.097745
C18   C     C_3   0.771712 0.709880 0.983778 0.235537
C19   C     C_3   0.302964 0.180527 0.056506 0.382713
C20   C     C_3   0.700303 0.693817 0.977272 0.220858
H3    H     H_    0.199518 0.257247 0.050546 0.156428
H4    H     H_    0.798166 0.823936 0.029915 0.125951
H5    H     H_    0.306765 0.307416 0.018568 -0.009158
H6    H     H_    0.682426 0.791879 0.020379 0.026970
C21   C     C_R   0.942138 0.882728 0.721890 -0.137160
C22   C     C_R   0.060705 0.381164 0.278631 -0.096754
C23   C     C_R   0.582249 0.855451 0.273459 -0.119263
C24   C     C_R   0.418776 0.349674 0.727241 -0.156050
C25   C     C_R   0.950401 0.709507 0.589821 -0.161416
C26   C     C_R   0.051828 0.230227 0.415800 -0.150940
C27   C     C_R   0.974229 0.752749 0.683913 -0.227372
C28   C     C_R   0.029321 0.256524 0.319636 -0.223985
C29   C     C_R   0.891170 0.990815 0.661655 0.362227
C30   C     C_R   0.112484 0.486642 0.337510 0.372900
C31   C     C_R   0.858866 0.926375 0.567845 -0.053188
C32   C     C_R   0.147070 0.416269 0.427490 -0.093087
C33   C     C_R   0.890453 0.783613 0.532652 -0.095453
C34   C     C_R   0.113134 0.300463 0.470316 -0.042250
C35   C     C_R   0.793343 0.978203 0.512883 0.032476
C36   C     C_R   0.215627 0.437161 0.469961 -0.020702
C37   C     C_R   0.757406 0.866507 0.434696 -0.103923
C38   C     C_R   0.246377 0.384105 0.564248 -0.026795
C39   C     C_R   0.791128 0.722720 0.404261 0.317846
C40   C     C_R   0.207793 0.301779 0.613179 0.304491
C41   C     C_R   0.858251 0.699582 0.445604 0.340795
C42   C     C_R   0.142632 0.250058 0.564439 0.248477
C43   C     C_R   0.760288 0.130917 0.535606 -0.125517
C44   C     C_R   0.255358 0.484123 0.416330 -0.132430
C45   C     C_R   0.693071 0.141331 0.505585 -0.233266
C46   C     C_R   0.321732 0.448799 0.447786 -0.198944
C47   C     C_R   0.656620 0.017756 0.439071 0.113042
C48   C     C_R   0.352212 0.395468 0.539104 0.066957
C49   C     C_R   0.688546 0.900145 0.392846 0.112849
C50   C     C_R   0.316120 0.391748 0.601301 0.129138
C51   C     C_R   0.588521 0.020212 0.413508 -0.285542
C52   C     C_R   0.417938 0.340953 0.568952 -0.236493
C53   C     C_R   0.550736 0.920413 0.334597 0.439614
C54   C     C_R   0.450214 0.304996 0.662768 0.425703
C55   C     C_R   0.650425 0.836351 0.303864 -0.314184
C56   C     C_R   0.352024 0.390999 0.696744 -0.212649
H7    H     H_    0.673077 0.786843 0.254602 0.170005
H8    H     H_    0.329261 0.423545 0.748302 0.171383
H9    H     H_    0.669729 0.251493 0.532124 0.129056
H10   H     H_    0.349353 0.464935 0.400661 0.119602
H11   H     H_    0.975270 0.599184 0.566051 0.145344
H12   H     H_    0.023221 0.142545 0.444651 0.140375
H13   H     H_    0.015744 0.675982 0.728384 0.142374
H14   H     H_    0.986491 0.182545 0.277379 0.144204
H15   H     H_    0.784124 0.243114 0.578479 0.173270
H16   H     H_    0.235961 0.531052 0.346358 0.171873
H17   H     H_    0.565793 0.104168 0.453519 0.121094
H18   H     H_    0.443201 0.318524 0.519121 0.128203
O11   O     O_R   0.036080 0.231270 0.130120 -0.556013
O12   O     O_R   0.963920 0.731270 0.869880 -0.546942
O13   O     O_R   0.911300 0.558970 0.006750 -0.524257
O14   O     O_R   0.088700 0.058970 0.993250 -0.555165
C57   C     C_R   0.884978 0.389954 0.002216 0.716187
C58   C     C_R   0.114294 0.888482 0.993876 0.683122
O15   O     O_R   0.032450 0.561140 0.138040 -0.526321
O16   O     O_R   0.967550 0.061140 0.861960 -0.524721
O17   O     O_R   0.085870 0.728910 0.002130 -0.515870
O18   O     O_R   0.914130 0.228910 0.997870 -0.513060
C59   C     C_R   0.040458 0.392460 0.175388 0.677921
C60   C     C_R   0.958997 0.892361 0.824829 0.737931
O19   O     O_3   0.017320 0.394650 0.955270 -0.387120
O20   O     O_3   0.982680 0.894650 0.044730 -0.367589
V3    V     V_3+5 0.996780 0.670490 0.008300 1.484694
V4    V     V_3+5 0.003220 0.170490 0.991700 1.452542
O21   O     O_3   0.866605 0.133879 0.701053 -0.581688
C61   C     C_3   0.895885 0.303279 0.690691 0.090398
H19   H     H_    0.891342 0.328245 0.616668 0.127333
H20   H     H_    0.948428 0.304909 0.732926 0.153200
C62   C     C_3   0.860861 0.460463 0.723368 -0.708179
H21   H     H_    0.879141 0.470373 0.800276 0.224156
H22   H     H_    0.867770 0.593591 0.693125 0.197658
H23   H     H_    0.807530 0.438002 0.700159 0.190059
O22   O     O_3   0.130934 0.646881 0.303671 -0.580568
C63   C     C_3   0.133328 0.801025 0.362597 0.085456
H24   H     H_    0.161358 0.772728 0.436609 0.129956
H25   H     H_    0.083140 0.845567 0.357268 0.133814
C64   C     C_3   0.167246 0.958837 0.331360 -0.697255
H26   H     H_    0.135246 0.014545 0.263961 0.213424
H27   H     H_    0.179125 0.071194 0.384013 0.193521
H28   H     H_    0.213524 0.908069 0.323418 0.231862
O23   O     O_3   0.759891 0.591551 0.338844 -0.621277
H29   H     H_    0.722629 0.545748 0.356325 0.289361
O24   O     O_3   0.236949 0.244986 0.703995 -0.657803
H30   H     H_    0.203550 0.211660 0.732227 0.330634
O25   O     O_3   0.194062 0.554148 0.010641 -0.570729
C65   C     C_3   0.221170 0.573567 0.109052 -0.009481
H31   H     H_    0.236337 0.716377 0.136509 0.170203
H32   H     H_    0.265914 0.490644 0.134849 0.110957
C66   C     C_3   0.171849 0.506213 0.150862 -0.635259
H33   H     H_    0.194666 0.417374 0.211793 0.164773
H34   H     H_    0.148155 0.631634 0.166580 0.259124
H35   H     H_    0.133798 0.421915 0.100435 0.235822
O26   O     O_3   0.796101 0.081319 0.923377 -0.535077
C67   C     C_3   0.769794 0.142950 0.830344 0.126033
H36   H     H_    0.801449 0.252835 0.818842 0.136146
H37   H     H_    0.719530 0.201004 0.813283 0.075738
C68   C     C_3   0.766896 0.984110 0.762494 -0.559419
H38   H     H_    0.728765 0.882211 0.759701 0.202191
H39   H     H_    0.753277 0.041157 0.692073 0.182445
H40   H     H_    0.814468 0.910909 0.780449 0.251397
O27   O     O_3   0.243591 0.064548 0.155113 -0.634530
H41   H     H_    0.200034 0.069902 0.162647 0.275275
O28   O     O_3   0.783292 0.703249 0.898276 -0.616354
H42   H     H_    0.760498 0.594610 0.861452 0.298357
O29   O     O_3   0.358221 0.141467 0.135223 -0.516050
C69   C     C_3   0.378435 0.308954 0.186644 0.156265
H43   H     H_    0.349648 0.331226 0.234141 0.117480
H44   H     H_    0.373103 0.433644 0.141483 0.091579
C70   C     C_3   0.450081 0.300474 0.244883 -0.626507
H45   H     H_    0.477618 0.214751 0.209944 0.263496
H46   H     H_    0.471065 0.442536 0.254614 0.173045
H47   H     H_    0.455806 0.243932 0.314467 0.184662
O30   O     O_3   0.656767 0.659056 0.886104 -0.552746
C71   C     C_3   0.630367 0.828293 0.843110 0.105153
H48   H     H_    0.669198 0.927092 0.845715 0.136608
H49   H     H_    0.597762 0.892658 0.877397 0.163460
C72   C     C_3   0.592232 0.796767 0.740956 -0.727633
H50   H     H_    0.542939 0.743219 0.732440 0.220907
H51   H     H_    0.586370 0.929040 0.702695 0.221387
H52   H     H_    0.619218 0.701023 0.709438 0.220727
O31   O     O_3   0.888770 0.571807 0.405447 -0.616246
H53   H     H_    0.933817 0.614935 0.416175 0.278754
O32   O     O_3   0.110182 0.142884 0.609745 -0.654062
H54   H     H_    0.091988 0.033844 0.569825 0.282402
O33   O     O_3   0.483310 0.900603 0.308501 -0.563940
C73   C     C_3   0.459688 0.881401 0.384509 0.135655
H55   H     H_    0.405876 0.870041 0.355179 0.166152
H56   H     H_    0.468517 0.006661 0.429757 0.105850
C74   C     C_3   0.484811 0.705459 0.441543 -0.805707
H57   H     H_    0.538321 0.710372 0.476108 0.221592
H58   H     H_    0.461667 0.693780 0.496247 0.204320
H59   H     H_    0.472216 0.580468 0.396369 0.216328
O34   O     O_3   0.506084 0.196688 0.688085 -0.564924
C75   C     C_3   0.562110 0.306165 0.726877 0.107557
H60   H     H_    0.595849 0.228809 0.786266 0.129848
H61   H     H_    0.552675 0.440761 0.756150 0.132365
C76   C     C_3   0.595933 0.334438 0.655005 -0.798307
H62   H     H_    0.566499 0.428473 0.599296 0.219606
H63   H     H_    0.644888 0.395184 0.688336 0.188903
H64   H     H_    0.601996 0.198629 0.623730 0.224762

loop_
_geom_bond_atom_site_label_1
_geom_bond_atom_site_label_2
_ccdc_geom_bond_type
C68   H40   S    
C48   C50   A    
C1    C24   S    
C45   C47   A    
O18   V4    S    
C64   H27   S    
C72   H51   S    
C5    C15   A    
O22   C63   S    
O1    C3    A    
O34   C75   S    
O2    C4    A    
C2    O7    A    
C61   H20   S    
O12   V3    S    
O3    V1    S    
O25   C65   S    
C29   C31   A    
C19   O29   S    
C22   C28   A    
C73   H56   S    
C32   C36   A    
C53   O33   S    
C18   H4    S    
C65   H32   S    
C73   H55   S    
C70   H46   S    
C31   C35   A    
C39   C41   A    
C13   C15   A    
O16   C60   A    
C50   C56   A    
O29   C69   S    
C43   C45   A    
C51   C53   A    
C39   O23   S    
O14   V4    S    
C44   C46   A    
C34   C42   A    
C70   H45   S    
C57   O18   A    
C28   H14   S    
C35   C43   A    
O33   C73   S    
C75   H61   S    
C67   H36   S    
C47   C49   A    
C2    C23   S    
C32   C34   A    
O30   C71   S    
C17   C19   S    
C6    C16   A    
C38   C40   A    
O13   C57   A    
C68   H38   S    
C6    C8    A    
C75   C76   S    
C23   C53   A    
C26   C34   A    
O5    V1    S    
O6    V2    S    
C68   H39   S    
C72   H52   S    
C55   H7    S    
C44   H16   S    
C5    C19   S    
C69   C70   S    
C24   C54   A    
C61   H19   S    
C26   C28   A    
O32   H54   S    
C76   H64   S    
C35   C37   A    
C36   C38   A    
C3    C8    S    
C24   C56   A    
C29   O21   S    
C54   O34   S    
C26   H12   S    
C70   H47   S    
C76   H63   S    
C43   H15   S    
O15   V3    S    
C22   C59   S    
C21   C60   S    
C36   C44   A    
C31   C33   A    
C38   C50   A    
C58   O17   A    
C19   H5    S    
C74   H58   S    
C18   C20   S    
O4    V2    S    
O5    C3    A    
C66   H34   S    
C62   H22   S    
O11   V4    S    
C6    C20   S    
O14   C58   A    
O31   H53   S    
C71   C72   S    
O6    C4    A    
C64   H28   S    
C30   O22   S    
O20   V4    S    
C42   O32   S    
C18   O28   S    
C13   C58   S    
O1    V2    S    
O23   H29   S    
O2    V1    S    
C11   O25   S    
O24   H30   S    
C25   H11   S    
C56   H8    S    
C65   C66   S    
C49   C55   A    
C74   H59   S    
C20   O30   S    
C69   H44   S    
O19   V3    S    
C71   H49   S    
C37   C39   A    
C62   H23   S    
C17   H3    S    
O4    C2    A    
C33   C41   A    
C62   H21   S    
C17   O27   S    
C66   H33   S    
C52   H18   S    
O15   C59   A    
C74   H57   S    
C51   H17   S    
C75   H60   S    
C21   C29   A    
C45   H9    S    
C41   O31   S    
C22   C30   A    
C9    C11   A    
C40   O24   S    
O13   V3    S    
C20   H6    S    
C46   H10   S    
C73   C74   S    
C27   H13   S    
C8    C10   A    
C69   H43   S    
O3    C1    A    
C37   C49   A    
O27   H41   S    
C11   C13   A    
C63   H24   S    
C12   C14   A    
C21   C27   A    
C9    H1    S    
O7    V1    S    
C66   H35   S    
C1    O8    A    
C15   C17   S    
C76   H62   S    
O8    V2    S    
O28   H42   S    
C16   C18   S    
C25   C33   A    
C48   C52   A    
C67   C68   S    
C47   C51   A    
C4    C7    S    
C30   C32   A    
O20   V3    S    
C5    C7    A    
C14   C16   A    
C14   C57   S    
C10   H2    S    
C61   C62   S    
O26   C67   S    
C23   C55   A    
C63   H25   S    
O17   V3    S    
O19   V4    S    
O21   C61   S    
C71   H48   S    
O16   V4    S    
C67   H37   S    
C10   C12   A    
O9    V2    S    
C72   H50   S    
O10   V1    S    
C52   C54   A    
O11   C59   A    
C40   C42   A    
C25   C27   A    
C63   C64   S    
O12   C60   A    
C12   O26   S    
C64   H26   S    
C46   C48   A    
C65   H31   S    
C7    C9    A    
