data_mof_unit_39143.cif
_audit_creation_date              2013-03-05T15:48:35-0500
_audit_creation_method            fapswitch 2.2
_symmetry_space_group_name_H-M    P1
_symmetry_Int_Tables_number       1
_space_group_crystal_system       triclinic
_cell_length_a                    8.580055
_cell_length_b                    19.266055
_cell_length_c                    19.173052
_cell_angle_alpha                 100.061569
_cell_angle_beta                  94.454461
_cell_angle_gamma                 91.999563
_cell_volume                      3107.41568199

loop_
_atom_site_label
_atom_site_type_symbol
_atom_site_description
_atom_site_fract_x
_atom_site_fract_y
_atom_site_fract_z
_atom_type_partial_charge
P1    P     P_3+3 0.947550 0.663200 0.567530 0.604353
O1    O     O_2   0.118870 0.674530 0.547560 -0.362071
O2    O     O_3   0.870460 0.585330 0.542110 -0.296605
O3    O     O_3   0.354280 0.631750 0.418430 -0.373955
O4    O     O_2   0.259970 0.754039 0.482327 -0.394200
O5    O     O_3   0.940256 0.676657 0.660670 -0.461463
O6    O     O_3   0.318314 0.756188 0.354679 -0.564594
C1    C     C_3   0.445074 0.821681 0.277955 -0.928329
H1    H     H_    0.327776 0.834403 0.256985 0.307386
H2    H     H_    0.491153 0.866342 0.319871 0.245082
P2    P     P_3+3 0.354660 0.445020 0.336980 0.610703
P3    P     P_3+3 0.902730 0.587544 0.288541 0.593444
O7    O     O_2   0.180880 0.466650 0.327890 -0.301757
O8    O     O_3   0.939000 0.596010 0.380670 -0.391363
O9    O     O_2   0.049778 0.556964 0.255597 -0.344412
O10   O     O_3   0.362046 0.355032 0.299055 -0.559639
O11   O     O_3   0.896432 0.672243 0.266398 -0.479921
C2    C     C_3   0.919917 0.723817 0.328601 0.265415
H3    H     H_    0.039928 0.721203 0.353506 0.176654
H4    H     H_    0.835528 0.714359 0.367437 0.053567
C3    C     C_3   0.894612 0.798684 0.312182 -0.068513
C4    C     C_3   0.797441 0.350394 0.293682 0.919797
H5    H     H_    0.684855 0.372382 0.308181 -0.053958
C5    C     C_3   0.775455 0.305406 0.217490 0.531122
Ba1   Ba    Ba6+2 0.152460 0.535140 0.468980 1.738173
C6    C     C_3   0.931180 0.748886 0.690975 0.365966
H6    H     H_    0.011674 0.782001 0.667900 0.043396
C7    C     C_3   0.764983 0.775164 0.683567 -0.933912
H7    H     H_    0.692474 0.745549 0.636672 0.266217
H8    H     H_    0.770436 0.832730 0.680799 0.240961
H9    H     H_    0.702291 0.769152 0.730540 0.236128
C8    C     C_3   0.303213 0.305416 0.336398 1.328138
C9    C     C_3   0.296355 0.233682 0.285801 -0.719905
H10   H     H_    0.201594 0.231973 0.242570 0.244761
H11   H     H_    0.273500 0.189841 0.314988 0.220043
H12   H     H_    0.407442 0.225346 0.260728 0.283755
P4    P     P_3+3 0.862750 0.336790 0.432410 0.572421
O12   O     O_2   0.691430 0.325420 0.452420 -0.320142
O13   O     O_3   0.939830 0.414660 0.457830 -0.372830
O14   O     O_3   0.456020 0.368240 0.581510 -0.291453
O15   O     O_3   0.843178 0.304983 0.339627 -0.547990
P5    P     P_3+3 0.909115 0.412691 0.713365 0.527075
O16   O     O_3   0.374170 0.535780 0.585810 -0.388285
O17   O     O_3   0.871300 0.403980 0.619270 -0.393431
O18   O     O_2   0.789836 0.462900 0.747968 -0.306912
O19   O     O_3   0.864026 0.331362 0.737751 -0.512629
Ba2   Ba    Ba6+2 0.657710 0.464850 0.530960 1.727592
P6    P     P_3+3 0.382264 0.725529 0.432232 0.452846
C10   C     C_3   0.437775 0.753405 0.308217 0.363483
H13   H     H_    0.555885 0.747812 0.334157 0.003002
H14   H     H_    0.523932 0.816901 0.234329 0.263875
O20   O     O_3   0.436130 0.464210 0.414140 -0.390964
C11   C     C_3   0.424971 0.693178 0.755134 0.006663
C12   C     C_3   0.528324 0.700770 0.826991 0.046077
H15   H     H_    0.647207 0.723518 0.822442 0.165783
H16   H     H_    0.543796 0.648622 0.841801 0.170926
P7    P     P_3+3 0.459407 0.561243 0.676289 0.617578
O21   O     O_2   0.629420 0.533310 0.672080 -0.223932
O22   O     O_3   0.502549 0.653981 0.697967 -0.582971
H17   H     H_    0.770278 0.809885 0.317798 0.122475
C13   C     C_3   0.862684 0.278169 0.677017 0.418675
H18   H     H_    0.751363 0.277388 0.643841 0.157228
H19   H     H_    0.957725 0.286271 0.642865 0.059896
C14   C     C_3   0.880711 0.206835 0.699575 -0.834337
H20   H     H_    0.775861 0.192146 0.725006 0.315912
H21   H     H_    0.895022 0.165810 0.652458 0.206246
H22   H     H_    0.985357 0.208857 0.737846 0.286080
P8    P     P_3+3 0.420615 0.276395 0.573816 0.523003
C15   C     C_3   0.404534 0.285003 0.715667 0.583289
O23   O     O_2   0.547584 0.245730 0.525831 -0.349640
O24   O     O_3   0.477379 0.249602 0.655895 -0.589208
H23   H     H_    0.332102 0.264483 0.816989 0.064230
C16   C     C_3   0.389112 0.235413 0.771005 0.595947
C17   C     C_R   0.991801 0.953995 0.539794 0.042570
C18   C     C_R   0.093412 0.902181 0.556824 -0.133143
C19   C     C_R   0.184622 0.055585 0.583534 -0.222975
C20   C     C_R   0.041386 0.027366 0.546231 0.043388
C21   C     C_R   0.254706 0.117528 0.567642 -0.187855
C22   C     C_R   0.162014 0.166762 0.537949 -0.060388
C23   C     C_R   0.006388 0.144307 0.509155 0.038349
C24   C     C_R   0.949307 0.072983 0.510981 0.009418
C25   C     C_R   0.221418 0.236385 0.533427 0.222691
C26   C     C_R   0.123172 0.281397 0.502881 -0.381652
C27   C     C_R   0.968912 0.263409 0.474565 0.172828
C28   C     C_R   0.915442 0.189635 0.471338 -0.181312
C29   C     C_R   0.838363 0.930436 0.511865 0.115107
C30   C     C_R   0.785377 0.857970 0.508954 0.068844
C31   C     C_R   0.888836 0.808034 0.531893 -0.037725
C32   C     C_R   0.040791 0.833153 0.557193 -0.075416
H24   H     H_    0.174113 0.330070 0.494611 0.162214
H25   H     H_    0.123865 0.799671 0.576922 0.203406
C33   C     C_R   0.789926 0.155041 0.423953 -0.141274
C34   C     C_R   0.733024 0.085677 0.426554 0.516938
C35   C     C_R   0.802685 0.046418 0.475591 -0.165639
C36   C     C_R   0.739880 0.978061 0.483711 0.090184
C37   C     C_R   0.581494 0.955360 0.464496 -0.183947
C38   C     C_R   0.629140 0.835781 0.482822 0.025769
C39   C     C_R   0.527336 0.886286 0.464713 -0.183271
C40   C     C_R   0.580814 0.763567 0.474194 0.101001
C41   C     C_R   0.687774 0.715979 0.494185 -0.442621
C42   C     C_R   0.837945 0.734837 0.526057 0.048356
H26   H     H_    0.405091 0.872612 0.448384 0.186292
H27   H     H_    0.217740 0.912683 0.567651 0.149678
H28   H     H_    0.496058 0.990289 0.448426 0.215407
C43   C     C_R   0.623150 0.506981 0.295659 0.156300
C44   C     C_R   0.465156 0.488382 0.274318 0.208126
C45   C     C_R   0.409238 0.486445 0.201677 -0.325310
C46   C     C_R   0.512107 0.507429 0.153041 -0.088878
C47   C     C_R   0.668456 0.532402 0.178553 0.514414
C48   C     C_R   0.719436 0.535759 0.250621 0.024553
C49   C     C_R   0.446664 0.563325 0.044269 0.568978
C50   C     C_R   0.394021 0.556581 0.971632 -0.354701
C51   C     C_R   0.351753 0.490126 0.929995 0.120730
C52   C     C_R   0.359218 0.430127 0.961811 -0.108267
C53   C     C_R   0.411761 0.436161 0.033639 -0.251631
C54   C     C_R   0.456735 0.502404 0.075764 0.051372
C55   C     C_R   0.156401 0.453156 0.824707 -0.273077
C56   C     C_R   0.105308 0.451357 0.753106 0.227302
C57   C     C_R   0.348446 0.514440 0.736776 0.135083
C58   C     C_R   0.405902 0.511110 0.806833 0.413580
C59   C     C_R   0.305341 0.483886 0.852684 -0.083639
C60   C     C_R   0.199400 0.483725 0.711343 -0.453003
H29   H     H_    0.387470 0.603126 0.947125 0.186243
H30   H     H_    0.327259 0.378385 0.930642 0.150751
H31   H     H_    0.416548 0.388686 0.056272 0.208377
H32   H     H_    0.079917 0.431485 0.858718 0.175209
C61   C     C_2   0.401742 0.692040 0.249305 1.082901
O25   O     O_2   0.503131 0.650787 0.234213 -0.671133
O26   O     O_R   0.253792 0.681986 0.212058 -0.690602
H33   H     H_    0.244489 0.638118 0.173845 0.370619
O27   O     O_3   0.671362 0.247488 0.217779 -0.758501
H34   H     H_    0.661502 0.217994 0.169514 0.320849
C62   C     C_2   0.707704 0.347824 0.164383 0.734108
O28   O     O_2   0.567364 0.356459 0.160342 -0.653403
O29   O     O_R   0.803238 0.374061 0.118122 -0.771385
H35   H     H_    0.742460 0.399165 0.083347 0.322220
O30   O     O_3   0.922611 0.281455 0.198763 -0.687073
H36   H     H_    0.907652 0.250848 0.151145 0.328550
C63   C     C_2   0.985067 0.760501 0.768776 1.005542
O31   O     O_2   0.931298 0.722926 0.807152 -0.623662
O32   O     O_R   0.092083 0.816162 0.797544 -0.766907
H37   H     H_    0.119137 0.818823 0.850380 0.369843
O33   O     O_3   0.153773 0.321690 0.354849 -0.730525
H38   H     H_    0.106891 0.277289 0.364820 0.291696
O34   O     O_3   0.403114 0.301300 0.396622 -0.738192
H39   H     H_    0.387473 0.343007 0.433100 0.318191
C64   C     C_2   0.399760 0.765853 0.735372 1.041315
O35   O     O_2   0.423230 0.819644 0.779982 -0.514950
O36   O     O_R   0.353354 0.772927 0.665372 -0.788564
H40   H     H_    0.344138 0.726466 0.631037 0.339807
C65   C     C_2   0.265436 0.660972 0.761840 0.852544
O37   O     O_2   0.183354 0.640066 0.706841 -0.626119
O38   O     O_R   0.216368 0.648154 0.827116 -0.749886
H41   H     H_    0.112675 0.619202 0.820682 0.349502
O39   O     O_3   0.458399 0.743359 0.882285 -0.660499
H42   H     H_    0.527419 0.743425 0.926373 0.341516
O40   O     O_3   0.255381 0.306963 0.696573 -0.833822
H43   H     H_    0.192735 0.263610 0.674390 0.316091
C66   C     C_2   0.505220 0.348917 0.749921 0.999735
O41   O     O_2   0.531597 0.394195 0.715067 -0.546964
O42   O     O_R   0.569218 0.356814 0.820529 -0.811064
H44   H     H_    0.643206 0.399770 0.835482 0.355242
O43   O     O_3   0.537039 0.215360 0.795179 -0.726006
H45   H     H_    0.520271 0.191164 0.835833 0.350888
O44   O     O_3   0.293520 0.175372 0.742244 -0.760033
H46   H     H_    0.359596 0.144230 0.711836 0.372316
C67   C     C_2   0.420943 0.114145 0.554163 1.109977
O45   O     O_2   0.455232 0.113048 0.493471 -0.623844
O46   O     O_R   0.537659 0.112339 0.608715 -0.744876
H47   H     H_    0.646184 0.110888 0.591402 0.321313
C68   C     C_2   0.763628 0.173225 0.353590 1.198144
O47   O     O_2   0.633154 0.187421 0.332076 -0.544416
O48   O     O_R   0.884817 0.163907 0.308535 -0.811074
H48   H     H_    0.849380 0.164283 0.257125 0.364770
C69   C     C_2   0.641879 0.643451 0.476594 1.122563
O49   O     O_2   0.652939 0.613649 0.416327 -0.635966
O50   O     O_R   0.563386 0.612282 0.524203 -0.733411
H49   H     H_    0.507295 0.567683 0.498073 0.387433
C70   C     C_2   0.250713 0.025900 0.645474 1.028330
O51   O     O_2   0.166417 0.017295 0.692171 -0.566412
O52   O     O_R   0.405003 0.004945 0.649366 -0.772281
H50   H     H_    0.433582 0.984516 0.693668 0.360400
O53   O     O_3   0.625277 0.053657 0.371930 -0.721095
H51   H     H_    0.658814 0.005347 0.354731 0.321036
O54   O     O_3   0.562264 0.529304 0.826345 -0.741014
H52   H     H_    0.592671 0.518036 0.873706 0.316529
O55   O     O_3   0.489701 0.628521 0.085006 -0.703534
H53   H     H_    0.475661 0.665372 0.055151 0.329071
C71   C     C_2   0.248300 0.458181 0.173922 1.167807
O56   O     O_2   0.198607 0.401695 0.186116 -0.545039
O57   O     O_R   0.156641 0.494535 0.130072 -0.778262
H54   H     H_    0.051335 0.469377 0.112920 0.357160
O58   O     O_3   0.774325 0.554821 0.135346 -0.666944
H55   H     H_    0.740462 0.536093 0.084929 0.308672
C72   C     C_2   0.142239 0.481242 0.638440 1.161496
O59   O     O_2   0.054608 0.525097 0.622161 -0.526509
O60   O     O_R   0.184960 0.426451 0.588378 -0.792549
H56   H     H_    0.161690 0.436202 0.539156 0.327232
O61   O     O_3   0.982735 0.850067 0.362238 -0.754983
H57   H     H_    0.095107 0.843426 0.355579 0.363776
O62   O     O_3   0.681450 0.492028 0.360275 -0.686040
H58   H     H_    0.795964 0.492907 0.364195 0.370083
C73   C     C_2   0.926070 0.806177 0.237374 1.176444
O63   O     O_2   0.055088 0.795087 0.216320 -0.597983
O64   O     O_R   0.806229 0.825556 0.192063 -0.808779
H59   H     H_    0.840784 0.828579 0.143250 0.341483
O65   O     O_3   0.917132 0.402153 0.297137 -0.698003
H60   H     H_    0.895805 0.428071 0.257536 0.261334

loop_
_geom_bond_atom_site_label_1
_geom_bond_atom_site_label_2
_geom_bond_distance
_ccdc_geom_bond_type
C5    C62   1.508153 S    
O14   Ba2   2.839808 S    
C18   H27   1.076025 S    
C68   O47   1.219525 D    
O44   H46   0.987002 S    
C23   C24   1.449789 A    
C2    C3    1.548115 S    
P2    O7    1.567040 D    
O46   H47   1.012226 S    
C3    C73   1.510189 S    
C49   C50   1.412579 A    
C60   C72   1.437059 S    
C43   C48   1.407731 A    
C19   C70   1.488046 S    
C58   O54   1.380619 S    
Ba1   O16   2.821913 S    
P3    C48   1.859230 S    
O3    Ba1   2.840492 S    
C11   O22   1.440087 S    
O29   H35   1.013240 S    
C67   O46   1.396594 S    
C11   C12   1.560972 S    
C73   O64   1.397413 S    
C6    H6    1.093204 S    
O40   H43   0.988167 S    
C26   C27   1.399029 A    
C7    H7    1.109090 S    
C64   O36   1.401106 S    
P4    O12   1.565368 D    
C19   C21   1.408567 A    
C2    H3    1.107462 S    
C56   C60   1.386209 A    
C1    H2    1.108073 S    
P7    O22   1.781163 S    
C4    O15   1.391032 S    
C44   C45   1.431120 A    
P2    Ba1   3.433138 S    
C33   C68   1.454995 S    
C53   C54   1.409639 A    
O52   H50   1.013775 S    
C11   C64   1.531202 S    
C9    H12   1.104645 S    
C46   C47   1.428675 A    
C71   O57   1.399063 S    
P1    O1    1.564990 D    
P5    O19   1.750756 S    
C15   O24   1.427270 S    
C55   C59   1.414594 A    
C41   C42   1.390328 A    
C8    O33   1.388254 S    
P2    O20   1.563373 S    
C64   O35   1.222726 D    
C15   C66   1.499650 S    
C36   C37   1.413585 A    
C1    H1    1.106075 S    
C17   C20   1.443372 A    
C37   C39   1.395003 A    
P3    O11   1.758028 S    
C15   O40   1.403526 S    
C65   O37   1.219266 D    
C66   O42   1.401448 S    
P4    C27   1.963778 S    
C47   O58   1.382922 S    
C49   C54   1.412909 A    
C32   H25   1.068970 S    
C55   H32   1.082895 S    
Ba1   Ba2   4.712818 S    
O58   H55   0.988013 S    
O17   Ba2   2.821768 S    
P7    C57   1.881875 S    
C52   H30   1.083231 S    
C31   C32   1.394647 A    
O30   H36   0.993042 S    
O61   H57   0.992116 S    
P1    Ba1   3.455176 S    
O7    Ba1   2.827724 S    
O60   H56   1.000532 S    
P5    O17   1.785408 S    
C3    O61   1.405644 S    
C55   C56   1.402429 A    
C50   C51   1.404828 A    
C38   C40   1.415496 A    
C28   C33   1.419767 A    
C38   C39   1.400204 A    
P7    O21   1.575399 D    
C10   C61   1.490906 S    
O4    P6    1.528945 D    
C12   H16   1.100366 S    
C17   C18   1.411953 A    
O19   C13   1.409414 S    
O65   H60   0.988217 S    
C14   H22   1.109666 S    
O2    Ba1   2.995301 S    
C27   C28   1.467614 A    
O6    C10   1.405690 S    
C3    H17   1.105442 S    
C69   O50   1.380644 S    
C6    C63   1.502661 S    
C12   O39   1.409376 S    
O16   P7    1.807057 S    
C21   C22   1.423843 A    
P5    C56   1.866578 S    
C8    O34   1.399025 S    
O48   H48   1.010030 S    
C26   H24   1.062852 S    
C61   O25   1.216218 D    
C17   C29   1.410609 A    
P1    O5    1.765453 S    
P1    O2    1.597176 S    
P5    O18   1.540648 D    
C14   H21   1.109236 S    
C13   C14   1.520491 S    
O53   H51   0.991977 S    
C61   O26   1.397372 S    
C23   C28   1.441573 A    
C39   H26   1.080942 S    
C68   O48   1.399289 S    
P2    O10   1.764331 S    
C43   O62   1.380785 S    
C66   O41   1.213331 D    
P3    O9    1.543873 D    
C20   C24   1.423515 A    
C45   C46   1.430634 A    
C45   C71   1.489501 S    
C41   C69   1.413400 S    
C13   H19   1.108096 S    
O11   C2    1.408861 S    
C21   C67   1.470813 S    
C35   C36   1.443661 A    
C34   C35   1.416341 A    
C19   C20   1.413672 A    
C57   C58   1.407397 A    
C15   C16   1.556672 S    
C1    H14   1.109621 S    
O12   Ba2   2.876773 S    
C70   O51   1.223233 D    
C50   H29   1.083855 S    
C16   O44   1.398393 S    
P3    O8    1.747562 S    
O50   H49   1.002099 S    
C37   H28   1.075606 S    
C62   O28   1.219671 D    
C10   H13   1.110847 S    
C4    C5    1.556985 S    
C22   C23   1.427102 A    
P4    Ba2   3.455820 S    
O27   H34   0.993551 S    
P1    C42   1.944074 S    
O34   H39   0.989222 S    
C67   O45   1.219075 D    
C58   C59   1.428188 A    
O13   Ba2   2.996183 S    
C51   C52   1.399245 A    
O3    P6    1.784605 S    
C57   C60   1.404575 A    
C71   O56   1.221786 D    
P6    C40   1.892209 S    
O64   H59   1.013964 S    
C12   H15   1.111805 S    
C29   C30   1.443454 A    
C6    C7    1.534256 S    
C7    H9    1.105084 S    
C31   C42   1.444369 A    
H23   C16   1.115258 S    
C22   C25   1.437485 A    
C63   O31   1.222205 D    
C52   C53   1.399035 A    
Ba2   O20   2.821091 S    
C5    O30   1.410393 S    
O10   C8    1.393841 S    
C43   C44   1.400773 A    
C49   O55   1.379903 S    
C53   H31   1.079408 S    
C40   C41   1.398768 A    
P8    C25   1.899700 S    
C8    C9    1.539996 S    
C46   C54   1.505875 S    
C7    H8    1.119105 S    
O26   H33   1.013568 S    
Ba1   O20   3.004070 S    
O55   H53   0.991713 S    
C16   O43   1.407275 S    
C69   O49   1.209488 D    
O42   H44   1.011063 S    
O36   H40   1.010915 S    
O6    P6    1.750340 S    
Ba2   O21   2.827857 S    
C24   C35   1.416370 A    
C63   O32   1.394011 S    
C5    O27   1.405770 S    
O54   H52   0.987812 S    
O5    C6    1.418527 S    
P2    C44   1.874172 S    
P8    O24   1.778350 S    
C14   H20   1.107124 S    
O2    Ba2   2.869838 S    
C33   C34   1.417143 A    
C9    H11   1.111606 S    
C9    H10   1.110447 S    
C4    O65   1.395828 S    
O1    Ba1   2.876209 S    
C2    H4    1.110786 S    
C65   O38   1.409677 S    
O8    Ba1   2.821083 S    
P4    O15   1.770262 S    
C13   H18   1.103807 S    
O57   H54   1.013430 S    
O43   H45   0.992601 S    
C29   C36   1.415483 A    
C18   C32   1.390833 A    
C72   O59   1.215167 D    
P4    O13   1.597146 S    
C51   C59   1.487596 S    
O62   H58   0.978897 S    
C30   C31   1.433101 A    
P8    O23   1.546915 D    
C25   C26   1.399071 A    
O14   P8    1.763365 S    
C47   C48   1.406311 A    
O39   H42   0.993502 S    
C11   C65   1.507025 S    
C62   O29   1.398133 S    
C4    H5    1.104090 S    
C70   O52   1.397693 S    
C73   O63   1.220566 D    
C72   O60   1.377523 S    
O38   H41   1.020871 S    
O32   H37   1.013523 S    
C34   O53   1.384249 S    
O16   Ba2   3.003182 S    
C1    C10   1.528865 S    
Ba1   O13   2.869220 S    
O33   H38   0.987527 S    
C30   C38   1.418319 A    
