data_mof_unit_67456.cif
_audit_creation_date              2013-03-05T15:40:58-0500
_audit_creation_method            fapswitch 2.2
_symmetry_space_group_name_H-M    P1
_symmetry_Int_Tables_number       1
_space_group_crystal_system       triclinic
_cell_length_a                    10.755755
_cell_length_b                    8.71408
_cell_length_c                    7.503091
_cell_angle_alpha                 101.890392
_cell_angle_beta                  94.549983
_cell_angle_gamma                 93.863982
_cell_volume                      683.448858814

loop_
_atom_site_label
_atom_site_type_symbol
_atom_site_description
_atom_site_fract_x
_atom_site_fract_y
_atom_site_fract_z
_atom_type_partial_charge
O1    O     O_R   0.509140 0.286130 0.619770 -0.531996
O2    O     O_R   0.485380 0.256770 0.308360 -0.588380
C1    C     C_R   0.495276 0.200252 0.454104 0.845825
O3    O     O_R   0.329570 0.514650 0.655700 -0.582229
O4    O     O_R   0.305810 0.485300 0.344290 -0.636314
C2    C     C_R   0.260192 0.493105 0.500184 0.755060
Cu1   Cu    Cu3+1 0.514070 0.517380 0.684380 1.006947
Cu2   Cu    Cu3+1 0.485930 0.482620 0.315620 1.006288
O5    O     O_R   0.514620 0.743230 0.691640 -0.611583
O6    O     O_R   0.490860 0.713870 0.380230 -0.582430
O7    O     O_R   0.694190 0.514700 0.655710 -0.590295
O8    O     O_R   0.670430 0.485350 0.344300 -0.536422
C3    C     C_R   0.503669 0.799566 0.545683 0.937844
C4    C     C_R   0.739986 0.499750 0.497521 0.810331
C5    C     C_3   0.073002 0.405692 0.641192 -0.417981
H1    H     H_    0.111179 0.468553 0.781529 0.144774
H2    H     H_    0.105109 0.284944 0.618939 0.189703
C6    C     C_3   0.928668 0.397907 0.626392 0.286392
H3    H     H_    0.903448 0.448718 0.765919 0.126457
H4    H     H_    0.140161 0.729680 0.675360 0.157775
H5    H     H_    0.931650 0.710823 0.707282 0.097541
C7    C     C_3   0.088274 0.665460 0.544255 -0.398789
C8    C     C_3   0.058001 0.407762 0.306960 -0.437779
C9    C     C_3   0.122562 0.492936 0.498867 0.078798
H6    H     H_    0.101235 0.451293 0.194919 0.195674
H7    H     H_    0.073081 0.280166 0.283475 0.166008
C10   C     C_3   0.878772 0.501399 0.491795 -0.068075
C11   C     C_3   0.945290 0.672255 0.559915 -0.220298
C12   C     C_3   0.916314 0.427076 0.295585 -0.120181
H8    H     H_    0.866952 0.307095 0.251954 0.166329
H9    H     H_    0.120898 0.723521 0.435617 0.240200
C13   C     C_2   0.490449 0.032574 0.427888 -0.355518
H10   H     H_    0.472403 0.962585 0.289218 0.183402
C14   C     C_2   0.508065 0.966912 0.570840 -0.396848
H11   H     H_    0.528508 0.037144 0.708824 0.189805
N1    N     N_2   0.464720 0.456420 0.038520 0.065089
N2    N     N_2   0.535280 0.543580 0.961480 -0.098821
H12   H     H_    0.572299 0.647362 0.046899 0.207219
C15   C     C_2   0.880119 0.515668 0.147195 0.809746
O9    O     O_2   0.784571 0.471384 0.045468 -0.604330
O10   O     O_R   0.958135 0.642104 0.119736 -0.769173
H13   H     H_    0.921760 0.692010 0.018941 0.319888
C16   C     C_2   0.892059 0.797361 0.468098 0.883177
O11   O     O_2   0.779101 0.805687 0.449226 -0.641471
O12   O     O_R   0.971732 0.907193 0.410151 -0.751198
H14   H     H_    0.924470 0.982244 0.349511 0.355474
O13   O     O_3   0.441491 0.308722 0.936840 -0.464637
C17   C     C_3   0.323165 0.244902 0.968230 0.179900
H15   H     H_    0.249214 0.283844 0.880441 0.088630
H16   H     H_    0.302323 0.280652 0.110140 0.183380
C18   C     C_3   0.318467 0.064627 0.923293 -0.407598
H17   H     H_    0.298467 0.020553 0.773191 0.211638
H18   H     H_    0.410530 0.026826 0.967457 0.241876
C19   C     C_3   0.218742 0.989904 0.020818 -0.911121
H19   H     H_    0.238307 0.029583 0.171665 0.261001
H20   H     H_    0.219147 0.859747 0.985771 0.269768
H21   H     H_    0.124826 0.022514 0.978734 0.253241
O14   O     O_3   0.880153 0.238864 0.560332 -0.634008
C20   C     C_3   0.811224 0.179566 0.687648 0.080558
H22   H     H_    0.749772 0.077630 0.609282 0.207675
H23   H     H_    0.747485 0.263535 0.754714 0.203228
C21   C     C_3   0.897823 0.124112 0.828821 -0.384304
H24   H     H_    0.966687 0.050587 0.757869 0.244797
H25   H     H_    0.950584 0.227072 0.922699 0.197674
C22   C     C_3   0.823690 0.027794 0.939230 -0.904273
H26   H     H_    0.753705 0.098802 0.011634 0.275902
H27   H     H_    0.888843 0.990859 0.041198 0.253754
H28   H     H_    0.774500 0.920522 0.848066 0.267281

loop_
_geom_bond_atom_site_label_1
_geom_bond_atom_site_label_2
_geom_bond_distance
_ccdc_geom_bond_type
C5    C6    1.543462 S    
C16   O11   1.220753 D    
O6    C3    1.301815 A    
C5    H2    1.113552 S    
C21   H24   1.108369 S    
C4    C10   1.495956 S    
C10   C12   1.576861 S    
C18   C19   1.528623 S    
O10   H13   1.012744 S    
C1    C13   1.430418 S    
C11   C16   1.523786 S    
O13   C17   1.410895 S    
C22   H27   1.107618 S    
Cu2   O8    1.977027 S    
C8    C9    1.561373 S    
C22   H28   1.110874 S    
C2    C9    1.479460 S    
C13   H10   1.087519 S    
C12   C15   1.520885 S    
C10   C11   1.573092 S    
C17   H16   1.091615 S    
O2    C1    1.288495 A    
Cu1   N2    2.036903 S    
C3    C14   1.428378 S    
C15   O10   1.398868 S    
C7    C11   1.555806 S    
O12   H14   1.011863 S    
Cu1   O7    1.967284 S    
C16   O12   1.399804 S    
C12   H8    1.112981 S    
O3    Cu1   1.977028 S    
C8    C12   1.542043 S    
Cu2   O6    1.969146 S    
C17   H15   1.107726 S    
N2    H12   1.029225 S    
C6    O14   1.420263 S    
C14   H11   1.086005 S    
C7    C9    1.547849 S    
C8    H6    1.111979 S    
O4    C2    1.294726 A    
O7    C4    1.306148 A    
C19   H20   1.110633 S    
C20   H23   1.108702 S    
O4    Cu2   1.967284 S    
Cu1   Cu2   2.710752 S    
C7    H9    1.111278 S    
C18   H17   1.111018 S    
O8    C4    1.299440 A    
C20   H22   1.102554 S    
C6    H3    1.111677 S    
N1    O13   1.350094 S    
O3    C2    1.306259 A    
C22   H26   1.110748 S    
Cu2   N1    2.036903 S    
C8    H7    1.114333 S    
C15   O9    1.219989 D    
Cu1   O5    1.957172 S    
O5    C3    1.289589 A    
C19   H19   1.111757 S    
N1    N2    1.288331 D    
C20   C21   1.529097 S    
C21   H25   1.109359 S    
C21   C22   1.525658 S    
C18   H18   1.111621 S    
O14   C20   1.411849 S    
O1    Cu1   1.969146 S    
C5    C9    1.540370 S    
H5    C11   1.111895 S    
C17   C18   1.533744 S    
O2    Cu2   1.957173 S    
C6    C10   1.573457 S    
C5    H1    1.113920 S    
H4    C7    1.111861 S    
O1    C1    1.303674 A    
C19   H21   1.107199 S    
C13   C14   1.322501 D    
