data_mof_unit_58208.cif
_audit_creation_date              2012-12-10T17:29:21-0500
_audit_creation_method            fapswitch 2.2
_symmetry_space_group_name_H-M    P1
_symmetry_Int_Tables_number       1
_space_group_crystal_system       triclinic
_cell_length_a                    12.107688
_cell_length_b                    12.90617
_cell_length_c                    13.002549
_cell_angle_alpha                 85.574251
_cell_angle_beta                  113.985335
_cell_angle_gamma                 94.37631
_cell_volume                      1848.59043077

loop_
_atom_site_label
_atom_site_type_symbol
_atom_type_description
_atom_site_fract_x
_atom_site_fract_y
_atom_site_fract_z
_atom_type_partial_charge
Br1   Br    Br    0.730483 0.635561 0.339788 -0.506887
Br2   Br    Br    0.253172 0.341967 0.630143 -0.457512
C1    C     C_R   0.474761 0.299927 0.491842 0.886961
C2    C     C_R   0.615053 0.538245 0.826720 -0.152450
C3    C     C_R   0.546498 0.811809 0.517846 -0.150395
C4    C     C_R   0.568749 0.510527 0.707421 0.912263
C5    C     C_R   0.458241 0.188099 0.482199 -0.145032
C6    C     C_R   0.360795 0.026407 0.514115 -0.170632
C7    C     C_R   0.365024 0.134017 0.504555 -0.147066
C8    C     C_R   0.543446 0.133479 0.461629 -0.074346
C9    C     C_R   0.548096 0.026735 0.485810 0.074333
C10   C     C_R   0.453913 0.972958 0.508224 0.163996
C11   C     C_R   0.452397 0.866000 0.521421 -0.236934
C12   C     C_R   0.552601 0.533863 0.981720 0.118899
C13   C     C_R   0.651456 0.866539 0.515259 -0.020603
C14   C     C_R   0.647548 0.973394 0.492488 -0.144941
C15   C     C_R   0.020616 0.615372 0.407363 -0.101326
C16   C     C_R   0.526091 0.700139 0.507854 0.883007
C17   C     C_R   0.136110 0.597402 0.413146 -0.072664
C18   C     C_R   0.158874 0.458074 0.548177 0.344759
C19   C     C_R   0.042731 0.473661 0.548835 -0.104494
C20   C     C_R   0.967236 0.547041 0.469377 -0.077323
C21   C     C_R   0.842654 0.547198 0.455335 0.314115
C22   C     C_R   0.875128 0.418549 0.605242 0.070304
C23   C     C_R   0.530669 0.562919 0.869139 0.064400
C24   C     C_R   0.999473 0.418497 0.625537 -0.127362
C25   C     C_R   0.431666 0.504019 0.290036 0.863437
C26   C     C_R   0.266149 0.607953 0.990158 -0.170045
C27   C     C_R   0.385668 0.515360 0.166233 -0.236640
C28   C     C_R   0.737669 0.529999 0.903462 -0.019121
C29   C     C_R   0.764062 0.514919 0.018630 -0.185875
C30   C     C_R   0.671842 0.511903 0.056923 -0.054805
C31   C     C_2   0.187029 0.594510 0.138442 0.406901
C32   C     C_2   0.767835 0.817365 0.542152 0.481650
C33   C     C_2   0.616482 0.183410 0.401608 0.387688
C34   C     C_R   0.456410 0.535425 0.016627 0.104405
C35   C     C_2   0.828311 0.352902 0.678637 0.589980
C36   C     C_2   0.970775 0.714882 0.348944 0.461698
C37   C     C_2   0.085345 0.373562 0.735109 0.540917
C38   C     C_2   0.517971 0.381100 0.156508 0.397941
C39   C     C_2   0.841290 0.549773 0.870672 0.548323
C40   C     C_R   0.354099 0.592958 0.949948 0.091311
C41   C     C_R   0.341048 0.635124 0.843893 -0.229150
C42   C     C_R   0.427194 0.618640 0.802901 -0.149917
C43   C     C_R   0.458617 0.482146 0.115770 -0.059626
C44   C     C_R   0.282245 0.572927 0.099624 -0.001609
H1    H     H_    0.287773 0.985338 0.530720 0.161787
H2    H     H_    0.375628 0.824949 0.531716 0.162797
H3    H     H_    0.164737 0.540133 0.195622 0.090475
H4    H     H_    0.790733 0.746614 0.595216 0.132189
H5    H     H_    0.578348 0.186083 0.310408 0.091942
H6    H     H_    0.761963 0.290249 0.644976 0.123921
H7    H     H_    0.930234 0.764357 0.386178 0.155757
H8    H     H_    0.166057 0.419135 0.785231 0.072162
H9    H     H_    0.535105 0.349419 0.240495 0.070184
H10   H     H_    0.928969 0.520617 0.925246 0.081033
H11   H     H_    0.725450 0.015495 0.485974 0.222431
H12   H     H_    0.296538 0.174594 0.516345 0.215779
H13   H     H_    0.177011 0.648992 0.367269 0.190391
H14   H     H_    0.263518 0.679719 0.792016 0.158041
H15   H     H_    0.186727 0.650099 0.937338 0.185151
H16   H     H_    0.696451 0.500030 0.146579 0.173576
H17   H     H_    0.856576 0.507068 0.079450 0.155865
H18   H     H_    0.415069 0.654159 0.721069 0.162249
N1    N     N_R   0.798200 0.480260 0.519790 -0.143990
N2    N     N_R   0.201820 0.519740 0.480210 -0.135544
O1    O     O_R   0.579910 0.341070 0.505280 -0.633569
O2    O     O_2   0.842579 0.858105 0.508979 -0.577996
O3    O     O_2   0.720834 0.215208 0.453256 -0.566148
O4    O     O_2   0.868794 0.364384 0.779747 -0.603841
O5    O     O_2   0.978423 0.744352 0.260407 -0.509254
O6    O     O_2   0.069335 0.284777 0.768042 -0.491909
O7    O     O_2   0.540855 0.328753 0.093937 -0.539448
O8    O     O_2   0.832710 0.604398 0.787087 -0.592097
O9    O     O_R   0.388440 0.353740 0.492580 -0.567896
O10   O     O_R   0.643280 0.490550 0.663120 -0.581798
O11   O     O_R   0.451810 0.503220 0.650420 -0.589259
O12   O     O_R   0.611560 0.646260 0.507420 -0.599600
O13   O     O_R   0.420090 0.658930 0.494720 -0.639684
O14   O     O_R   0.548190 0.496780 0.349580 -0.571832
O15   O     O_R   0.356720 0.509450 0.336880 -0.635641
O16   O     O_2   0.128711 0.672353 0.103296 -0.528783
Zn1   Zn    Zn3+2 0.627850 0.491540 0.508480 1.016243
Zn2   Zn    Zn3+2 0.372150 0.508460 0.491520 0.975785

loop_
_geom_bond_atom_site_label_1
_geom_bond_atom_site_label_2
_ccdc_geom_bond_type
C5    C8    A    
C19   C24   A    
O1    Zn1   S    
C25   C27   S    
C34   C40   A    
C2    C23   A    
C42   H18   S    
C26   C44   A    
C18   N2    A    
C22   C24   A    
C1    C5    S    
C12   C34   A    
O13   Zn2   S    
O9    Zn2   S    
N1    Zn1   S    
C37   H8    S    
C31   H3    S    
C13   C14   A    
C38   O7    D    
O10   Zn1   S    
C17   N2    A    
C7    H12   S    
C39   O8    D    
O12   Zn1   S    
C6    C7    A    
C37   O6    D    
C28   C39   S    
C8    C33   S    
C1    O9    A    
C31   O16   D    
C13   C32   S    
C3    C11   A    
C16   O12   A    
C14   H11   S    
C26   H15   S    
C35   O4    D    
C31   C44   S    
O14   Zn1   S    
C23   C42   A    
C38   C43   S    
C32   H4    S    
Br2   C18   S    
C29   H17   S    
C25   O15   A    
C2    C4    S    
C25   O14   A    
C32   O2    D    
C35   H6    S    
C16   O13   A    
C4    O11   A    
C3    C16   S    
O11   Zn2   S    
C17   H13   S    
C27   C43   A    
C41   C42   A    
C39   H10   S    
C9    C14   A    
C29   C30   A    
C6    C10   A    
C38   H9    S    
C22   C35   S    
C34   C43   A    
C10   C11   A    
C41   H14   S    
C22   N1    A    
Br1   C21   S    
C33   H5    S    
C40   C41   A    
O15   Zn2   S    
C5    C7    A    
C36   O5    D    
C1    O1    A    
C12   C30   A    
C11   H2    S    
C9    C10   A    
C4    O10   A    
C15   C20   A    
C27   C44   A    
C21   N1    A    
C6    H1    S    
C30   H16   S    
C28   C29   A    
C36   H7    S    
C26   C40   A    
C15   C17   A    
C15   C36   S    
C12   C23   A    
C24   C37   S    
C3    C13   A    
C8    C9    A    
N2    Zn2   S    
C18   C19   A    
C33   O3    D    
C20   C21   A    
C19   C20   A    
C2    C28   A    
