data_mof_unit_30181.cif
_audit_creation_date              2012-12-11T16:50:59-0500
_audit_creation_method            fapswitch 2.2
_symmetry_space_group_name_H-M    P1
_symmetry_Int_Tables_number       1
_space_group_crystal_system       triclinic
_cell_length_a                    6.921998
_cell_length_b                    28.860053
_cell_length_c                    32.125081
_cell_angle_alpha                 100.789413
_cell_angle_beta                  89.956741
_cell_angle_gamma                 90.434
_cell_volume                      6303.96908574

loop_
_atom_site_label
_atom_site_type_symbol
_atom_type_description
_atom_site_fract_x
_atom_site_fract_y
_atom_site_fract_z
_atom_type_partial_charge
O1    O     O_R   0.494350 0.453170 0.452520 -0.539944
O2    O     O_R   0.820980 0.455850 0.538220 -0.541143
O3    O     O_R   0.994300 0.546830 0.547480 -0.539524
C1    C     C_R   0.651904 0.445795 0.551709 0.730773
O4    O     O_R   0.823860 0.447590 0.452270 -0.542237
O5    O     O_R   0.997200 0.538510 0.460920 -0.537978
C2    C     C_R   0.654470 0.434873 0.436504 0.693991
O6    O     O_R   0.491440 0.461490 0.539080 -0.536210
O7    O     O_3   0.661790 0.529840 0.502940 -0.369111
V1    V     V_3+5 0.935470 0.494460 0.499450 1.408815
O8    O     O_R   0.327090 0.544150 0.461780 -0.540743
C3    C     C_R   0.158659 0.554260 0.448304 0.706524
O9    O     O_R   0.324210 0.552410 0.547730 -0.543424
C4    C     C_R   0.155553 0.565289 0.563414 0.690726
V2    V     V_3+5 0.435840 0.505540 0.500550 1.407103
O10   O     O_3   0.159650 0.470160 0.497060 -0.365558
C5    C     C_R   0.219010 0.888304 0.875729 -0.216584
H1    H     H_    0.344790 0.910206 0.885397 0.177721
C6    C     C_R   0.233295 0.852974 0.839582 -0.135672
H2    H     H_    0.368966 0.848798 0.822529 0.129044
C7    C     C_R   0.073540 0.824229 0.824996 0.029055
C8    C     C_R   0.899554 0.831379 0.847818 -0.225801
H3    H     H_    0.774621 0.809386 0.837527 0.118890
C9    C     C_R   0.885075 0.865967 0.884861 0.408987
C10   C     C_R   0.045337 0.895680 0.898825 -0.162982
C11   C     C_R   0.934925 0.778598 0.756877 -0.146985
H4    H     H_    0.805857 0.799903 0.761720 0.112724
C12   C     C_R   0.947644 0.743333 0.720575 -0.150697
H5    H     H_    0.827970 0.738692 0.698476 0.108556
C13   C     C_R   0.113445 0.715059 0.712585 0.083952
C14   C     C_R   0.266977 0.723509 0.741841 -0.149982
H6    H     H_    0.395663 0.702077 0.737287 0.110128
C15   C     C_R   0.254640 0.758998 0.778036 -0.150377
H7    H     H_    0.374273 0.763967 0.800171 0.109277
C16   C     C_R   0.088059 0.786867 0.786137 0.107237
C17   C     C_R   0.301532 0.665739 0.652867 -0.135682
H8    H     H_    0.431789 0.685424 0.663465 0.100220
C18   C     C_R   0.311853 0.629643 0.617065 -0.158506
H9    H     H_    0.450063 0.622258 0.601510 0.121783
C19   C     C_R   0.145727 0.603783 0.601383 -0.055797
C20   C     C_R   0.969355 0.614858 0.622600 -0.154484
H10   H     H_    0.838567 0.595520 0.611722 0.121250
C21   C     C_R   0.959328 0.650649 0.658533 -0.138123
H11   H     H_    0.821579 0.657306 0.674421 0.102124
C22   C     C_R   0.125066 0.676752 0.674187 0.095497
C23   C     C_R   0.969761 0.670991 0.296653 0.580595
N1    N     N_R   0.122104 0.675661 0.324654 -0.553986
C24   C     C_R   0.265021 0.708672 0.323047 0.577105
C25   C     C_R   0.259255 0.737875 0.292465 -0.029904
C26   C     C_R   0.102471 0.733799 0.264102 -0.021527
C27   C     C_R   0.955708 0.700325 0.266301 -0.025009
C28   C     C_R   0.405804 0.771216 0.289769 -0.146882
C29   C     C_R   0.395704 0.800334 0.259616 -0.144366
C30   C     C_R   0.238872 0.796842 0.231347 -0.024504
C31   C     C_R   0.092373 0.763287 0.233477 -0.021324
C32   C     C_R   0.935736 0.759169 0.205079 -0.028756
C33   C     C_R   0.789237 0.725808 0.207756 -0.147880
C34   C     C_R   0.799030 0.696785 0.237990 -0.144498
C35   C     C_R   0.224250 0.826361 0.201156 0.579204
N2    N     N_R   0.072059 0.821654 0.173099 -0.553597
C36   C     C_R   0.929897 0.788395 0.174516 0.574057
O11   O     O_2   0.833163 0.637620 0.297660 -0.531826
O12   O     O_2   0.411301 0.713825 0.351311 -0.527704
H12   H     H_    0.529006 0.774931 0.310932 0.170634
H13   H     H_    0.511450 0.825545 0.258526 0.168308
O13   O     O_2   0.360040 0.859981 0.200409 -0.533741
O14   O     O_2   0.784203 0.783032 0.146102 -0.530174
H14   H     H_    0.666131 0.722063 0.186565 0.170170
H15   H     H_    0.683164 0.671615 0.239112 0.168453
C37   C     C_R   0.893079 0.878257 0.138189 -0.087085
H16   H     H_    0.770617 0.876097 0.158749 0.164103
C38   C     C_R   0.882112 0.907579 0.108134 -0.217951
H17   H     H_    0.750430 0.927005 0.105967 0.130600
C39   C     C_R   0.041050 0.912736 0.082035 -0.062669
C40   C     C_R   0.209303 0.886831 0.085889 -0.215683
H18   H     H_    0.333547 0.889638 0.065960 0.131182
C41   C     C_R   0.218123 0.856421 0.115080 -0.088823
H19   H     H_    0.348112 0.836225 0.116811 0.155329
C42   C     C_R   0.060946 0.852147 0.141962 0.355952
C43   C     C_R   0.298045 0.618690 0.359678 -0.086971
H20   H     H_    0.419683 0.619973 0.338698 0.163744
C44   C     C_R   0.307972 0.589775 0.390100 -0.205996
H21   H     H_    0.437774 0.569549 0.392020 0.134109
C45   C     C_R   0.150282 0.586082 0.416963 -0.056868
C46   C     C_R   0.983680 0.612582 0.413151 -0.207173
H22   H     H_    0.860200 0.610712 0.433518 0.136686
C47   C     C_R   0.975679 0.642395 0.383443 -0.087236
H23   H     H_    0.847063 0.663085 0.381728 0.156997
C48   C     C_R   0.132097 0.645526 0.356077 0.354957
C49   C     C_R   0.623822 0.223194 0.837593 0.581548
N3    N     N_R   0.586895 0.175895 0.824457 -0.545633
C50   C     C_R   0.556228 0.157393 0.782361 0.569420
C51   C     C_R   0.560012 0.186687 0.751828 -0.028261
C52   C     C_R   0.597042 0.235265 0.764921 -0.011041
C53   C     C_R   0.630000 0.253764 0.808110 -0.034580
C54   C     C_R   0.527360 0.168602 0.708614 -0.138009
C55   C     C_R   0.531568 0.198317 0.678867 -0.142346
C56   C     C_R   0.568725 0.246867 0.691558 -0.063210
C57   C     C_R   0.601066 0.265410 0.734757 -0.023796
C58   C     C_R   0.637854 0.314006 0.747855 -0.034216
C59   C     C_R   0.670672 0.332080 0.791058 -0.138914
C60   C     C_R   0.666770 0.302349 0.820801 -0.141824
C61   C     C_R   0.574627 0.277436 0.662095 0.609217
N4    N     N_R   0.611743 0.324746 0.675237 -0.547177
C62   C     C_R   0.642630 0.343265 0.717300 0.552153
O15   O     O_2   0.651862 0.240789 0.879111 -0.519541
O16   O     O_2   0.523216 0.110711 0.769977 -0.531166
H24   H     H_    0.498288 0.131402 0.697606 0.169750
H25   H     H_    0.505776 0.183076 0.645881 0.172460
O17   O     O_2   0.542006 0.260030 0.620703 -0.504802
O18   O     O_2   0.680961 0.389723 0.729505 -0.526547
H26   H     H_    0.699653 0.369284 0.802064 0.170327
H27   H     H_    0.692584 0.317604 0.853783 0.171433
C63   C     C_R   0.489951 0.391740 0.645022 -0.193543
H28   H     H_    0.378450 0.397437 0.669047 0.144065
C64   C     C_R   0.496899 0.420467 0.614440 -0.204116
H29   H     H_    0.390773 0.448067 0.615584 0.138742
C65   C     C_R   0.641829 0.414333 0.583281 -0.106005
C66   C     C_R   0.778737 0.378512 0.583076 -0.276523
H30   H     H_    0.891385 0.373028 0.559268 0.149839
C67   C     C_R   0.770148 0.349034 0.613244 0.483739
C68   C     C_R   0.623514 0.355240 0.644280 0.287873
C69   C     C_R   0.400533 0.122368 0.861263 -0.172654
H31   H     H_    0.274768 0.127876 0.842782 0.141588
C70   C     C_R   0.386831 0.091735 0.890386 0.374474
C71   C     C_R   0.548431 0.085219 0.915770 -0.167529
C72   C     C_R   0.722705 0.108640 0.909702 -0.252096
H32   H     H_    0.849469 0.104278 0.928276 0.196410
C73   C     C_R   0.735904 0.138148 0.879763 -0.084029
H33   H     H_    0.872029 0.155405 0.875515 0.148800
C74   C     C_R   0.574691 0.145365 0.855380 0.313244
C75   C     C_R   0.714247 0.109629 0.128622 0.290766
C76   C     C_R   0.721972 0.147186 0.163470 -0.207415
H34   H     H_    0.848954 0.151341 0.183576 0.110825
C77   C     C_R   0.565606 0.177873 0.173647 0.061846
C78   C     C_R   0.399946 0.170739 0.147963 -0.145896
H35   H     H_    0.277379 0.194026 0.154831 0.116236
C79   C     C_R   0.392058 0.134149 0.112551 -0.230078
H36   H     H_    0.263692 0.130494 0.092933 0.144312
C80   C     C_R   0.548227 0.103150 0.102123 -0.080497
C81   C     C_R   0.417296 0.226429 0.239014 -0.147667
H37   H     H_    0.284761 0.206104 0.232927 0.108962
C82   C     C_R   0.430155 0.261539 0.275497 -0.146203
H38   H     H_    0.306817 0.267078 0.296525 0.107060
C83   C     C_R   0.601243 0.288168 0.285201 0.084438
C84   C     C_R   0.758639 0.278689 0.257184 -0.148409
H39   H     H_    0.891302 0.298976 0.262901 0.108656
C85   C     C_R   0.746268 0.243301 0.220951 -0.146000
H40   H     H_    0.870046 0.237091 0.200056 0.108595
C86   C     C_R   0.575715 0.216628 0.211468 0.100095
C87   C     C_R   0.791058 0.334736 0.346560 -0.133729
H41   H     H_    0.918418 0.314176 0.336333 0.101541
C88   C     C_R   0.804283 0.370102 0.382883 -0.156593
H42   H     H_    0.941730 0.376131 0.399158 0.123393
C89   C     C_R   0.641758 0.396965 0.398158 -0.054164
C90   C     C_R   0.466050 0.387668 0.376044 -0.153340
H43   H     H_    0.338083 0.407877 0.386602 0.121570
C91   C     C_R   0.453300 0.352695 0.339541 -0.137967
H44   H     H_    0.316508 0.347511 0.322952 0.102773
C92   C     C_R   0.615420 0.325597 0.324238 0.095294
O19   O     O_R   0.699170 0.038480 0.960880 -0.544707
O20   O     O_R   0.366800 0.052460 0.047690 -0.545354
O21   O     O_R   0.193520 0.961530 0.039110 -0.543732
C93   C     C_R   0.536207 0.064931 0.063734 0.711837
O22   O     O_R   0.369630 0.044100 0.961740 -0.511641
O23   O     O_R   0.196370 0.953120 0.952550 -0.544085
C94   C     C_R   0.538454 0.053830 0.947793 0.730196
O24   O     O_R   0.696320 0.046890 0.047450 -0.512994
O25   O     O_3   0.528890 0.970170 0.997080 -0.376457
V3    V     V_3+5 0.255190 0.005530 0.000540 1.451859
O26   O     O_R   0.866460 0.947530 0.952310 -0.516034
C95   C     C_R   0.035118 0.934243 0.936890 0.708326
O27   O     O_R   0.863630 0.955880 0.038270 -0.540724
C96   C     C_R   0.032213 0.945325 0.051350 0.697518
V4    V     V_3+5 0.754830 0.994440 0.999470 1.455163
O28   O     O_3   0.031000 0.029830 0.002920 -0.354199
O29   O     O_3   0.901424 0.312870 0.611309 -0.534432
C97   C     C_3   0.053719 0.327286 0.640297 0.088001
H45   H     H_    0.026471 0.360588 0.663552 0.103718
H46   H     H_    0.184621 0.332799 0.621873 0.158350
C98   C     C_3   0.094844 0.288518 0.665256 -0.616578
H47   H     H_    0.144943 0.256227 0.643659 0.242059
H48   H     H_    0.207154 0.300790 0.689485 0.162237
H49   H     H_    0.963642 0.279834 0.682000 0.206084
O30   O     O_3   0.212094 0.069538 0.894425 -0.553081
C99   C     C_3   0.204302 0.027126 0.864221 0.096435
H50   H     H_    0.296411 0.000063 0.874771 0.111693
H51   H     H_    0.252485 0.032015 0.832148 0.132269
C100  C     C_3   0.996963 0.009014 0.860145 -0.693047
H52   H     H_    0.905533 0.033599 0.846142 0.224882
H53   H     H_    0.991485 0.973683 0.839303 0.180238
H54   H     H_    0.938721 0.006224 0.891748 0.223871
N5    N     N_2   0.872548 0.077969 0.121405 -0.509239
H55   H     H_    0.004408 0.093925 0.129639 0.247181
C101  C     C_3   0.846609 0.036004 0.139379 -0.508279
H56   H     H_    0.715234 0.016276 0.126161 0.184262
H57   H     H_    0.973631 0.012759 0.131605 0.187029
H58   H     H_    0.833634 0.045553 0.174427 0.190013
O31   O     O_3   0.710812 0.871352 0.906208 -0.555377
C102  C     C_3   0.703645 0.839182 0.934346 0.108355
H59   H     H_    0.815777 0.848269 0.959480 0.107189
H60   H     H_    0.725318 0.802214 0.917344 0.111651
C103  C     C_3   0.506294 0.841641 0.955510 -0.695934
H61   H     H_    0.392011 0.830801 0.931343 0.216784
H62   H     H_    0.501636 0.817538 0.978690 0.172445
H63   H     H_    0.477667 0.878080 0.972450 0.233443

loop_
_geom_bond_atom_site_label_1
_geom_bond_atom_site_label_2
_ccdc_geom_bond_type
O24   V4    S    
C47   H23   S    
N2    C42   S    
O23   C95   A    
C71   C72   A    
C101  H57   S    
C20   C21   A    
C20   H10   S    
C13   C22   S    
C6    H2    S    
C1    O6    A    
C97   H45   S    
C33   C34   A    
C77   C78   A    
V3    O28   S    
C41   H19   S    
C32   C33   A    
C59   H26   S    
C103  H62   S    
C58   C62   A    
C59   C60   A    
C23   O11   S    
C61   O17   S    
C12   H5    S    
C6    C7    A    
C85   C86   A    
C39   C96   S    
C81   C82   A    
C35   O13   S    
O5    C3    A    
C18   H9    S    
O19   V4    S    
C69   C70   A    
N3    C74   S    
C56   C61   A    
C55   C56   A    
C64   H29   S    
C3    C45   S    
C70   O30   S    
C88   H42   S    
O25   V3    S    
C43   C48   A    
C25   C26   A    
O21   V3    S    
C65   C66   A    
C50   C51   A    
C15   C16   A    
C23   N1    A    
O8    V2    S    
C75   C80   A    
V4    O28   S    
C9    O31   S    
C64   C65   A    
C102  H59   S    
N5    C101  S    
C87   H41   S    
C14   C15   A    
C37   H16   S    
O1    V2    S    
C88   C89   A    
C29   H13   S    
O7    V1    S    
C84   C85   A    
C49   N3    A    
C53   C60   A    
C101  H58   S    
C41   C42   A    
C70   C71   A    
C62   O18   S    
O31   C102  S    
O22   C94   A    
O27   C96   A    
O9    C4    A    
C91   C92   A    
N1    C48   S    
C1    C65   S    
C52   C53   A    
C8    H3    S    
N4    C62   A    
C81   C86   A    
C83   C84   A    
O20   C93   A    
C30   C35   A    
C66   C67   A    
C12   C13   A    
C103  H63   S    
C39   C40   A    
C84   H39   S    
C46   C47   A    
C49   C53   A    
N4    C68   S    
C9    C10   A    
C49   O15   S    
C38   C39   A    
C71   C94   S    
C28   H12   S    
C98   H48   S    
N3    C50   A    
O4    C2    A    
C83   C92   S    
C43   H20   S    
C24   O12   S    
C67   O29   S    
C26   C27   A    
C46   H22   S    
O26   V4    S    
C23   C27   A    
C44   H21   S    
N2    C36   A    
C90   H43   S    
C98   H47   S    
C100  H54   S    
O2    C1    A    
C40   H18   S    
C72   C73   A    
C76   H34   S    
C55   H25   S    
C36   O14   S    
C50   O16   S    
C63   C64   A    
N1    C24   A    
O20   V3    S    
C93   O24   A    
C13   C14   A    
O8    C3    A    
C25   C28   A    
C54   C55   A    
C31   C32   A    
C5    H1    S    
O25   V4    S    
C17   C22   A    
C27   C34   A    
C45   C46   A    
C40   C41   A    
O26   C95   A    
C67   C68   A    
O19   C94   A    
O3    C4    A    
C79   C80   A    
O29   C97   S    
C10   C95   S    
C43   C44   A    
C19   C20   A    
C56   C57   A    
C51   C54   A    
C69   H31   S    
O9    V2    S    
C21   H11   S    
C11   H4    S    
C75   N5    S    
C8    C9    A    
C80   C93   S    
C33   H14   S    
C99   H51   S    
C72   H32   S    
O2    V1    S    
C89   C90   A    
C28   C29   A    
C78   C79   A    
C76   C77   A    
C73   H33   S    
C98   H49   S    
O22   V3    S    
C82   C83   A    
C30   C31   A    
C17   H8    S    
C69   C74   A    
C37   C42   A    
O1    C2    A    
C11   C12   A    
C14   H6    S    
C38   H17   S    
C63   H28   S    
O5    V1    S    
C97   H46   S    
C66   H30   S    
C34   H15   S    
C29   C30   A    
C7    C16   S    
O6    V2    S    
C77   C86   S    
C51   C52   A    
C44   C45   A    
C26   C31   A    
C57   C58   A    
C5    C10   A    
C87   C92   A    
C99   C100  S    
C17   C18   A    
C82   H38   S    
O7    V2    S    
O4    V1    S    
C21   C22   A    
C60   H27   S    
V1    O10   S    
C81   H37   S    
C18   C19   A    
O27   V4    S    
O30   C99   S    
C91   H44   S    
C52   C57   A    
C102  C103  S    
C24   C25   A    
C90   C91   A    
C58   C59   A    
C5    C6    A    
O23   V3    S    
C15   H7    S    
C75   C76   A    
C85   H40   S    
C87   C88   A    
C54   H24   S    
C100  H52   S    
C97   C98   S    
C79   H36   S    
C4    C19   S    
C101  H56   S    
C63   C68   A    
C11   C16   A    
C35   N2    A    
C2    C89   S    
C102  H60   S    
N5    H55   S    
C61   N4    A    
O3    V1    S    
C47   C48   A    
C32   C36   A    
C78   H35   S    
C37   C38   A    
C103  H61   S    
C100  H53   S    
C99   H50   S    
C7    C8    A    
O21   C96   A    
V2    O10   S    
C73   C74   A    
