data_mof_unit_28129.cif
_audit_creation_date              2012-12-10T17:44:36-0500
_audit_creation_method            fapswitch 2.2
_symmetry_space_group_name_H-M    P1
_symmetry_Int_Tables_number       1
_space_group_crystal_system       triclinic
_cell_length_a                    9.999434
_cell_length_b                    10.709295
_cell_length_c                    15.359104
_cell_angle_alpha                 92.526889
_cell_angle_beta                  67.791103
_cell_angle_gamma                 86.725669
_cell_volume                      1516.40853878

loop_
_atom_site_label
_atom_site_type_symbol
_atom_type_description
_atom_site_fract_x
_atom_site_fract_y
_atom_site_fract_z
_atom_type_partial_charge
C1    C     C_R   0.494713 0.741138 0.501838 0.868391
C2    C     C_R   0.748232 0.521696 0.027616 0.171916
C3    C     C_R   0.604790 0.570273 0.084109 0.095203
C4    C     C_R   0.409069 0.501748 0.676332 0.828051
C5    C     C_R   0.844583 0.483028 0.069678 -0.220167
C6    C     C_R   0.795332 0.479605 0.167210 -0.204765
C7    C     C_R   0.559538 0.569917 0.182159 -0.246882
C8    C     C_R   0.214142 0.909873 0.591895 -0.197246
C9    C     C_R   0.095658 0.983683 0.656807 -0.132994
C10   C     C_R   0.113346 0.103505 0.686965 -0.162226
C11   C     C_R   0.245477 0.154422 0.644562 -0.181933
C12   C     C_R   0.432170 0.564571 0.908782 0.085362
C13   C     C_R   0.364514 0.081411 0.576962 0.090913
C14   C     C_R   0.354079 0.953647 0.557980 0.098214
C15   C     C_R   0.485057 0.877081 0.508016 -0.142091
C16   C     C_R   0.498745 0.261948 0.509503 0.872017
C17   C     C_R   0.618862 0.929292 0.480553 -0.260898
C18   C     C_R   0.626001 0.054958 0.498089 -0.019468
C19   C     C_R   0.496825 0.132283 0.531496 -0.201946
C20   C     C_R   0.773383 0.651712 0.636813 -0.146318
C21   C     C_R   0.796317 0.715847 0.709970 -0.200713
C22   C     C_R   0.931879 0.706185 0.714775 -0.219222
C23   C     C_R   0.293159 0.624560 0.962196 0.174185
C24   C     C_R   0.046694 0.637405 0.643915 -0.199101
C25   C     C_R   0.026704 0.567298 0.570989 0.133096
C26   C     C_R   0.883859 0.571122 0.569062 0.165210
C27   C     C_R   0.970289 0.436399 0.431741 -0.144006
C28   C     C_R   0.591159 0.502960 0.324197 0.884838
C29   C     C_R   0.114150 0.439041 0.428639 0.020365
C30   C     C_R   0.354661 0.523212 0.778982 -0.055647
C31   C     C_R   0.650453 0.517579 0.223022 -0.055619
C32   C     C_R   0.185685 0.630864 0.923937 -0.214398
C33   C     C_R   0.217329 0.582518 0.831736 -0.221778
C34   C     C_R   0.542721 0.562452 0.945467 0.057293
C35   C     C_R   0.455580 0.506038 0.820721 -0.262777
C36   C     C_R   0.762757 0.097291 0.500766 0.174236
C37   C     C_R   0.896121 0.065205 0.425956 -0.178748
C38   C     C_R   0.024188 0.099788 0.433162 -0.159391
C39   C     C_R   0.019110 0.168509 0.514003 -0.096209
C40   C     C_R   0.887239 0.201229 0.588328 -0.143172
C41   C     C_R   0.759912 0.163090 0.582922 -0.085173
C42   C     C_R   0.228645 0.384329 0.338661 0.183353
C43   C     C_R   0.233905 0.433099 0.253770 -0.214371
C44   C     C_R   0.323143 0.373116 0.166634 -0.124027
C45   C     C_R   0.505756 0.602693 0.041207 0.063188
C46   C     C_R   0.412574 0.266538 0.162617 -0.098996
C47   C     C_R   0.407705 0.216249 0.245822 -0.187882
C48   C     C_R   0.313557 0.272555 0.332994 -0.098356
C49   C     C_R   0.368394 0.667167 0.091803 -0.249407
C50   C     C_R   0.264164 0.678390 0.052400 -0.255897
C51   C     C_R   0.688744 0.521075 0.889917 -0.230269
C52   C     C_R   0.790849 0.505114 0.930288 -0.251772
H1    H     H_    0.159447 0.726979 0.093506 0.149749
H2    H     H_    0.708955 0.775081 0.762295 0.157510
H3    H     H_    0.449962 0.600943 0.228009 0.158508
H4    H     H_    0.950218 0.758065 0.770822 0.152952
H5    H     H_    0.151282 0.648152 0.644552 0.196978
H6    H     H_    0.868506 0.442499 0.198500 0.153533
H7    H     H_    0.900970 0.470984 0.885882 0.150103
H8    H     H_    0.079288 0.677209 0.963975 0.144386
H9    H     H_    0.137142 0.595958 0.800918 0.151405
H10   H     H_    0.554844 0.449577 0.781193 0.150365
H11   H     H_    0.339383 0.710523 0.161962 0.147582
H12   H     H_    0.955131 0.448106 0.026996 0.147539
H13   H     H_    0.727820 0.501252 0.814655 0.165625
H14   H     H_    0.900957 0.013057 0.362668 0.123763
H15   H     H_    0.127000 0.073469 0.376023 0.136532
H16   H     H_    0.116859 0.196909 0.519926 0.155235
H17   H     H_    0.883778 0.255190 0.650494 0.119114
H18   H     H_    0.658553 0.186176 0.642379 0.111086
H19   H     H_    0.165205 0.515739 0.255109 0.130219
H20   H     H_    0.322329 0.408687 0.102059 0.150816
H21   H     H_    0.482954 0.221255 0.095076 0.129527
H22   H     H_    0.473171 0.130868 0.242813 0.132973
H23   H     H_    0.719825 0.870607 0.450999 0.176402
H24   H     H_    0.303596 0.223851 0.394148 0.139381
H25   H     H_    0.191983 0.822398 0.566555 0.177500
H26   H     H_    0.989158 0.949175 0.682762 0.153129
H27   H     H_    0.022524 0.159579 0.739037 0.131287
H28   H     H_    0.255240 0.249875 0.666307 0.149618
H29   H     H_    0.949910 0.385241 0.376145 0.152900
H30   H     H_    0.669300 0.670833 0.634045 0.204512
N1    N     N_R   0.856800 0.501200 0.500850 -0.125319
N2    N     N_R   0.142390 0.501280 0.500880 -0.141264
O1    O     O_R   0.385310 0.683220 0.500000 -0.640363
O2    O     O_R   0.614640 0.683250 0.500010 -0.630901
O3    O     O_R   0.319840 0.499980 0.632240 -0.640814
O4    O     O_R   0.549160 0.500000 0.632250 -0.630581
O5    O     O_R   0.385360 0.316750 0.499990 -0.630358
O6    O     O_R   0.614690 0.316780 0.500000 -0.598230
O7    O     O_R   0.450840 0.500000 0.367750 -0.597116
O8    O     O_R   0.680160 0.500020 0.367760 -0.614736
Zn1   Zn    Zn3+2 0.346880 0.499980 0.499990 0.917768
Zn2   Zn    Zn3+2 0.653120 0.500020 0.500010 0.929723

loop_
_geom_bond_atom_site_label_1
_geom_bond_atom_site_label_2
_ccdc_geom_bond_type
C16   O6    A    
C26   N1    A    
C49   H11   S    
C20   H30   S    
C29   C42   S    
C27   C29   A    
C39   H16   S    
C6    H6    S    
C7    H3    S    
C4    O3    A    
C12   C23   A    
C34   C51   A    
C30   C35   A    
C36   C37   A    
C3    C7    A    
C38   C39   A    
C18   C19   A    
C51   H13   S    
C48   H24   S    
O2    Zn2   S    
O1    Zn1   S    
C24   H5    S    
C25   N2    A    
C43   H19   S    
C1    C15   S    
C28   O7    A    
C9    C10   A    
N2    Zn1   S    
C6    C31   A    
C16   O5    A    
C13   C14   A    
C36   C41   A    
C44   C46   A    
O6    Zn2   S    
C1    O1    A    
O4    Zn2   S    
C50   H1    S    
C7    C31   A    
C40   H17   S    
C13   C19   A    
C51   C52   A    
C27   H29   S    
C24   C25   A    
C29   N2    A    
C11   H28   S    
C39   C40   A    
C8    C9    A    
C23   C50   A    
C22   H4    S    
C25   C26   A    
N1    Zn2   S    
C3    C45   A    
C5    H12   S    
C43   C44   A    
C37   C38   A    
C52   H7    S    
O7    Zn1   S    
C47   C48   A    
C45   C49   A    
C37   H14   S    
O8    Zn2   S    
C17   C18   A    
C28   O8    A    
C34   C45   A    
C42   C48   A    
C38   H15   S    
C12   C35   A    
C2    C52   A    
C40   C41   A    
C8    H25   S    
C22   C24   A    
C2    C5    A    
C42   C43   A    
C32   H8    S    
C12   C34   A    
C1    O2    A    
C15   C17   A    
C46   C47   A    
C8    C14   A    
C30   C33   A    
C28   C31   S    
C47   H22   S    
C10   H27   S    
C4    O4    A    
C21   H2    S    
C23   C32   A    
C27   N1    A    
C2    C3    A    
C32   C33   A    
C11   C13   A    
C5    C6    A    
C20   C26   A    
C16   C19   S    
O3    Zn1   S    
C44   H20   S    
C35   H10   S    
C9    H26   S    
O5    Zn1   S    
C10   C11   A    
C20   C21   A    
C33   H9    S    
C49   C50   A    
C17   H23   S    
C14   C15   A    
C21   C22   A    
C18   C36   S    
C46   H21   S    
C4    C30   S    
C41   H18   S    
