data_mof_unit_42652.cif
_audit_creation_date              2012-12-10T17:33:49-0500
_audit_creation_method            fapswitch 2.2
_symmetry_space_group_name_H-M    P1
_symmetry_Int_Tables_number       1
_space_group_crystal_system       triclinic
_cell_length_a                    10.675543
_cell_length_b                    12.160582
_cell_length_c                    12.805918
_cell_angle_alpha                 94.069748
_cell_angle_beta                  93.139562
_cell_angle_gamma                 86.835286
_cell_volume                      1653.59415934

loop_
_atom_site_label
_atom_site_type_symbol
_atom_type_description
_atom_site_fract_x
_atom_site_fract_y
_atom_site_fract_z
_atom_type_partial_charge
C1    C     C_R   0.506635 0.522518 0.699987 0.931977
C2    C     C_R   0.560881 0.458056 0.976024 0.143811
C3    C     C_R   0.496481 0.550021 0.025464 0.148397
C4    C     C_R   0.741856 0.499987 0.500130 0.840174
C5    C     C_R   0.478100 0.551620 0.130551 -0.248777
C6    C     C_R   0.598679 0.376232 0.141771 0.176702
C7    C     C_R   0.612892 0.372315 0.034266 -0.199525
C8    C     C_R   0.429507 0.944677 0.377193 -0.200624
C9    C     C_R   0.409848 0.837311 0.398760 0.507201
C10   C     C_R   0.541411 0.860812 0.553752 0.268230
C11   C     C_R   0.530689 0.978881 0.549056 -0.154323
C12   C     C_3   0.122020 0.496700 0.509230 -0.107667
C13   C     C_R   0.478135 0.020157 0.455399 -0.165219
C14   C     C_R   0.464579 0.136233 0.444915 0.542995
C15   C     C_R   0.575772 0.169187 0.609310 -0.133237
C16   C     C_R   0.508545 0.477751 0.300144 0.943346
C17   C     C_R   0.568853 0.058029 0.631252 0.400434
C18   C     C_R   0.258482 0.499580 0.505094 0.962450
C19   C     C_3   0.936412 0.386339 0.539108 -0.406207
C20   C     C_3   0.077918 0.378719 0.527527 0.084701
C21   C     C_3   0.922113 0.515262 0.392174 -0.444826
C22   C     C_3   0.924728 0.593846 0.579134 -0.407220
C23   C     C_3   0.065179 0.525266 0.398723 -0.461795
C24   C     C_3   0.878508 0.498819 0.502499 0.046960
C25   C     C_3   0.068869 0.586605 0.592016 0.288232
C26   C     C_R   0.526172 0.464938 0.189089 -0.123603
C27   C     C_R   0.515140 0.538125 0.811860 -0.035267
C28   C     C_R   0.449640 0.638867 0.969021 -0.168811
C29   C     C_R   0.460055 0.633367 0.861855 -0.071312
C30   C     C_R   0.570369 0.452947 0.868846 -0.196682
H1    H     H_    0.896239 0.315169 0.491575 0.201039
H2    H     H_    0.914353 0.378548 0.622037 0.223117
H3    H     H_    0.610736 0.228036 0.669685 0.196400
H4    H     H_    0.393513 0.969606 0.302076 0.263784
H5    H     H_    0.096793 0.324551 0.455644 0.190238
H6    H     H_    0.896889 0.443792 0.337386 0.212418
H7    H     H_    0.107816 0.470003 0.335662 0.230799
H8    H     H_    0.895128 0.674314 0.546787 0.196108
H9    H     H_    0.879751 0.592344 0.655240 0.223835
H10   H     H_    0.352515 0.152869 0.171516 0.398842
H11   H     H_    0.525251 0.135517 0.907693 0.394035
H12   H     H_    0.102196 0.667997 0.574304 0.166601
H13   H     H_    0.124481 0.836598 0.228161 0.396009
H14   H     H_    0.150195 0.684824 0.862588 0.388013
H15   H     H_    0.875272 0.590889 0.360504 0.206238
H16   H     H_    0.084377 0.611003 0.383519 0.272444
H17   H     H_    0.427205 0.622302 0.166667 0.221835
H18   H     H_    0.401942 0.710572 0.007132 0.174299
H19   H     H_    0.666561 0.303764 0.996717 0.185691
H20   H     H_    0.418512 0.700135 0.817663 0.209797
H21   H     H_    0.616637 0.381184 0.829413 0.170459
I1    I     I_    0.704021 0.254050 0.225492 -0.246414
I2    I     I_    0.680133 0.789462 0.657492 -0.173793
I3    I     I_    0.168244 0.281582 0.649043 -0.069314
N1    N     N_R   0.523380 0.207800 0.519350 -0.188548
N2    N     N_R   0.476620 0.792180 0.480650 -0.189058
O1    O     O_R   0.506240 0.421700 0.658830 -0.615314
O2    O     O_2   0.310933 0.298509 0.341119 -0.292525
O3    O     O_3   0.422044 0.147010 0.225637 -0.552975
O4    O     O_2   0.488392 0.943673 0.786130 -0.266890
O5    O     O_2   0.703327 0.009394 0.806977 -0.253410
O6    O     O_3   0.516493 0.151693 0.832826 -0.555303
O7    O     O_2   0.278809 0.667215 0.302556 -0.340658
O8    O     O_2   0.174281 0.796885 0.428563 -0.317076
O9    O     O_3   0.210719 0.860983 0.244985 -0.534931
O10   O     O_2   0.031456 0.499386 0.778282 -0.277839
O11   O     O_2   0.248663 0.521219 0.736637 -0.332800
O12   O     O_R   0.491240 0.609310 0.646410 -0.609061
O13   O     O_3   0.113514 0.696831 0.791304 -0.514929
O14   O     O_R   0.692710 0.406190 0.506230 -0.637729
O15   O     O_R   0.677700 0.593810 0.493810 -0.629465
O16   O     O_R   0.508760 0.390690 0.353590 -0.538748
O17   O     O_R   0.493760 0.578300 0.341170 -0.603299
O18   O     O_R   0.322300 0.406190 0.506190 -0.557422
O19   O     O_R   0.307290 0.593810 0.493770 -0.561074
O20   O     O_2   0.239169 0.116041 0.343007 -0.286195
S1    S     S_3+6 0.355392 0.180238 0.340450 0.046327
S2    S     S_3+6 0.570871 0.035721 0.766890 0.055210
S3    S     S_3+6 0.267023 0.785294 0.343862 0.027838
S4    S     S_3+6 0.117680 0.571025 0.727638 0.026180
Zn1   Zn    Zn3+2 0.510020 0.374730 0.508290 1.056903
Zn2   Zn    Zn3+2 0.489980 0.625270 0.491710 1.049791

loop_
_geom_bond_atom_site_label_1
_geom_bond_atom_site_label_2
_ccdc_geom_bond_type
C30   H21   S    
C8    C13   A    
O9    S3    S    
C27   C29   A    
C25   S4    S    
C19   C20   S    
C16   O16   A    
C19   H1    S    
O3    S1    S    
C4    O14   A    
C21   H6    S    
O7    S3    D    
C5    H17   S    
C12   C23   S    
O4    S2    D    
C18   O19   A    
C28   C29   A    
C4    C24   S    
C22   H8    S    
C1    O12   A    
C9    S3    S    
C14   S1    S    
O14   Zn1   S    
C10   I2    S    
O2    S1    D    
C20   H5    S    
C28   H18   S    
C2    C7    A    
C8    C9    A    
C22   C25   S    
N1    Zn1   S    
C10   N2    A    
O16   Zn1   S    
O15   Zn2   S    
C14   N1    A    
C18   O18   A    
H10   O3    S    
C13   C14   A    
C27   C30   A    
H11   O6    S    
C19   H2    S    
C21   H15   S    
C29   H20   S    
C16   C26   S    
C16   O17   A    
O20   S1    D    
C7    H19   S    
C20   I3    S    
C23   H7    S    
C15   N1    A    
C1    O1    A    
O5    S2    D    
H13   O9    S    
C12   C20   S    
H14   O13   S    
C9    N2    A    
C8    H4    S    
C23   H16   S    
C21   C23   S    
O8    S3    D    
C22   C24   S    
O18   Zn1   S    
O17   Zn2   S    
C15   C17   A    
C3    C28   A    
O6    S2    S    
O11   S4    D    
C3    C5    A    
C11   C17   A    
C25   H12   S    
O19   Zn2   S    
N2    Zn2   S    
C6    C7    A    
O10   S4    D    
C12   C25   S    
C2    C30   A    
O12   Zn2   S    
C2    C3    A    
C11   C13   A    
C6    C26   A    
C22   H9    S    
C17   S2    S    
C19   C24   S    
O1    Zn1   S    
C10   C11   A    
C5    C26   A    
C21   C24   S    
C12   C18   S    
C1    C27   S    
O13   S4    S    
C6    I1    S    
C15   H3    S    
C4    O15   A    
