data_mof_unit_52282.cif
_audit_creation_date              2012-10-26T20:08:15-0400
_audit_creation_method            fapswitch 2.2
_symmetry_space_group_name_H-M    P1
_symmetry_Int_Tables_number       1
_space_group_crystal_system       triclinic
_cell_length_a                    10.827345
_cell_length_b                    10.818108
_cell_length_c                    9.534713
_cell_angle_alpha                 90.41251
_cell_angle_beta                  90.246875
_cell_angle_gamma                 91.074369
_cell_volume                      1116.57785873

loop_
_atom_site_label
_atom_site_type_symbol
_atom_type_description
_atom_site_fract_x
_atom_site_fract_y
_atom_site_fract_z
_atom_type_partial_charge
C1    C     C_R   0.499735 0.262136 0.499666 0.552346
C2    C     C_R   0.481543 0.064450 0.625474 -0.146474
C3    C     C_R   0.500447 0.871732 0.500441 0.022098
C4    C     C_R   0.499553 0.128268 0.499559 0.022098
C5    C     C_R   0.423582 0.421063 0.071731 0.329741
C6    C     C_R   0.576418 0.578937 0.928269 0.329741
C7    C     C_R   0.423986 0.421554 0.923473 -0.002094
C8    C     C_R   0.576014 0.578446 0.076527 -0.002094
C9    C     C_R   0.262361 0.503005 0.499623 0.553026
C10   C     C_R   0.737639 0.496995 0.500377 0.553026
C11   C     C_R   0.250993 0.784270 0.173336 -0.089946
C12   C     C_R   0.500265 0.737864 0.500334 0.552346
C13   C     C_R   0.749007 0.215730 0.826664 -0.089946
C14   C     C_R   0.190651 0.727808 0.286113 -0.061097
C15   C     C_R   0.809349 0.272192 0.713887 -0.061097
C16   C     C_R   0.122499 0.617312 0.265338 0.056843
C17   C     C_R   0.877501 0.382688 0.734662 0.056843
C18   C     C_R   0.114502 0.565089 0.130305 -0.059141
C19   C     C_R   0.885498 0.434911 0.869695 -0.059141
C20   C     C_R   0.175292 0.621652 0.017916 -0.101243
C21   C     C_R   0.824708 0.378348 0.982084 -0.101243
C22   C     C_R   0.243778 0.730961 0.039489 -0.093348
C23   C     C_R   0.871561 0.494486 0.500948 0.010438
C24   C     C_R   0.756222 0.269039 0.960511 -0.093348
C25   C     C_R   0.933820 0.547184 0.386985 -0.149452
C26   C     C_R   0.066180 0.452816 0.613015 -0.149452
C27   C     C_R   0.128439 0.505514 0.499052 0.010438
C28   C     C_R   0.938125 0.445421 0.614828 -0.021673
C29   C     C_R   0.061875 0.554579 0.385172 -0.021673
C30   C     C_R   0.517803 0.063379 0.374034 -0.121211
C31   C     C_R   0.482197 0.936621 0.625966 -0.121211
C32   C     C_R   0.518457 0.935550 0.374526 -0.146474
Cl1   Cl    Cl    0.321796 0.316266 0.153458 -0.622498
Cl2   Cl    Cl    0.678204 0.683734 0.846542 -0.622498
Cu1   Cu    Cu3+1 0.500000 0.500020 0.640660 1.006513
Cu2   Cu    Cu3+1 0.500000 0.499980 0.359340 1.006513
H1    H     H_    0.291334 0.774252 0.952547 0.118164
H2    H     H_    0.936332 0.520795 0.886980 0.126832
H3    H     H_    0.170292 0.580153 0.914355 0.112474
H4    H     H_    0.829708 0.419847 0.085644 0.112474
H5    H     H_    0.882477 0.586587 0.300717 0.126911
H6    H     H_    0.117523 0.413413 0.699283 0.126911
H7    H     H_    0.532345 0.111127 0.275817 0.154508
H8    H     H_    0.467655 0.888873 0.724183 0.154508
H9    H     H_    0.533533 0.886942 0.276529 0.132273
H10   H     H_    0.466466 0.113057 0.723471 0.132273
H11   H     H_    0.708666 0.225748 0.047453 0.118164
H12   H     H_    0.363136 0.359037 0.865580 0.139367
H13   H     H_    0.636863 0.640962 0.134420 0.139367
H14   H     H_    0.303582 0.869197 0.189724 0.122458
H15   H     H_    0.696418 0.130803 0.810275 0.122458
H16   H     H_    0.197836 0.769360 0.389602 0.099417
H17   H     H_    0.802163 0.230640 0.610398 0.099417
H18   H     H_    0.063668 0.479205 0.113020 0.126832
N1    N     N_R   0.500030 0.500030 0.852070 -0.245288
N2    N     N_R   0.499970 0.499970 0.147930 -0.245288
O1    O     O_R   0.499990 0.319660 0.618740 -0.525539
O2    O     O_R   0.500010 0.680340 0.381260 -0.525539
O3    O     O_R   0.499990 0.319630 0.381170 -0.456116
O4    O     O_R   0.500010 0.680370 0.618830 -0.456117
O5    O     O_R   0.319650 0.500020 0.618780 -0.533906
O6    O     O_R   0.680350 0.499980 0.381220 -0.533906
O7    O     O_R   0.319640 0.500000 0.381210 -0.434382
O8    O     O_R   0.680360 0.500000 0.618790 -0.434383

loop_
_geom_bond_atom_site_label_1
_geom_bond_atom_site_label_2
_ccdc_geom_bond_type
C2    C4    A    
Cu1   O8    S    
Cu2   N2    S    
C19   H2    S    
C1    O1    A    
C10   C23   S    
C27   C29   A    
Cu2   O7    S    
C5    C7    A    
C32   H9    S    
C5    N2    A    
Cu2   O2    S    
Cu1   Cu2   S    
C9    C27   S    
C7    N1    A    
C6    N1    A    
Cu1   O1    S    
Cu2   O3    S    
C12   O2    A    
C7    H12   S    
C1    C4    S    
C1    O3    A    
C16   C29   S    
C4    C30   A    
Cu1   O5    S    
C11   H14   S    
C9    O7    A    
C23   C28   A    
C2    H10   S    
C3    C31   A    
C17   C28   S    
C8    N2    A    
C26   C27   A    
C10   O6    A    
C21   H4    S    
C9    O5    A    
C15   H17   S    
C17   C19   A    
C20   C22   A    
C18   C20   A    
C13   C15   A    
C25   C29   A    
C3    C32   A    
C11   C14   A    
C14   H16   S    
C30   H7    S    
C31   H8    S    
C18   H18   S    
Cu1   N1    S    
C30   C32   A    
C23   C25   A    
C22   H1    S    
C26   H6    S    
C16   C18   A    
C21   C24   A    
C25   H5    S    
C15   C17   A    
C20   H3    S    
C2    C31   A    
C6    C8    A    
C3    C12   S    
C11   C22   A    
C19   C21   A    
C14   C16   A    
C13   H15   S    
C24   H11   S    
C26   C28   A    
C8    H13   S    
C10   O8    A    
C6    Cl2   S    
C13   C24   A    
C5    Cl1   S    
Cu1   O4    S    
Cu2   O6    S    
C12   O4    A    
