data_mof_unit_11075.cif
_audit_creation_date              2013-03-05T16:05:05-0500
_audit_creation_method            fapswitch 2.2
_symmetry_space_group_name_H-M    P1
_symmetry_Int_Tables_number       1
_space_group_crystal_system       triclinic
_cell_length_a                    6.926272
_cell_length_b                    23.28659
_cell_length_c                    25.803007
_cell_angle_alpha                 104.628491
_cell_angle_beta                  90.687829
_cell_angle_gamma                 90.246615
_cell_volume                      4026.43345753

loop_
_atom_site_label
_atom_site_type_symbol
_atom_site_description
_atom_site_fract_x
_atom_site_fract_y
_atom_site_fract_z
_atom_type_partial_charge
O1    O     O_R   0.505750 0.453350 0.547660 -0.569269
O2    O     O_R   0.170990 0.432220 0.437590 -0.608257
O3    O     O_R   0.005600 0.546650 0.452340 -0.581748
C1    C     C_R   0.339510 0.415053 0.417860 1.002790
O4    O     O_R   0.175720 0.446240 0.546340 -0.598082
O5    O     O_R   0.010370 0.560770 0.561860 -0.560413
C2    C     C_R   0.345176 0.435192 0.563457 0.975001
O6    O     O_R   0.500990 0.439230 0.438140 -0.604844
O7    O     O_3   0.340820 0.537560 0.504970 -0.223109
V1    V     V_3+5 0.064050 0.493030 0.499080 1.252663
O8    O     O_R   0.680940 0.567780 0.562410 -0.587781
C3    C     C_R   0.851282 0.585210 0.581919 1.062175
O9    O     O_R   0.676210 0.553760 0.453660 -0.531124
C4    C     C_R   0.844411 0.564874 0.436227 1.090268
V2    V     V_3+5 0.564640 0.506970 0.500920 1.293651
O10   O     O_3   0.837740 0.462440 0.495030 -0.304092
C5    C     C_R   0.778232 0.883985 0.122447 -0.171521
H1    H     H_    0.646222 0.903722 0.112395 0.133613
C6    C     C_R   0.768429 0.846921 0.157394 -0.054485
H2    H     H_    0.629695 0.839365 0.173549 0.128225
C7    C     C_R   0.935323 0.819788 0.171376 0.198170
C8    C     C_R   0.113504 0.831978 0.150764 -0.143998
H3    H     H_    0.244425 0.811668 0.160819 0.144478
C9    C     C_R   0.123619 0.869272 0.115843 -0.149940
H4    H     H_    0.262925 0.877153 0.100217 0.135410
C10   C     C_R   0.955668 0.895339 0.100812 -0.134607
C11   C     C_R   0.049112 0.784014 0.250456 -0.225587
H5    H     H_    0.158244 0.818698 0.258790 0.153522
C12   C     C_R   0.035038 0.746153 0.284558 -0.103603
H6    H     H_    0.133952 0.752141 0.318381 0.157333
C13   C     C_R   0.891665 0.701969 0.276247 0.095297
C14   C     C_R   0.764319 0.694643 0.231752 0.237624
C15   C     C_R   0.783163 0.731850 0.196003 0.381529
C16   C     C_R   0.921786 0.778104 0.206641 -0.029908
C17   C     C_R   0.731897 0.678703 0.355361 0.405084
C18   C     C_R   0.717260 0.644727 0.394096 0.397500
C19   C     C_R   0.854672 0.600265 0.395217 -0.448235
C20   C     C_R   0.997499 0.587300 0.355177 0.177021
C21   C     C_R   0.005386 0.618868 0.315211 0.194488
C22   C     C_R   0.873767 0.664988 0.315576 -0.151965
C23   C     C_R   0.722280 0.643492 0.669131 -0.088869
C24   C     C_R   0.865536 0.635938 0.630276 -0.286608
C25   C     C_R   0.020157 0.676757 0.637171 0.471755
C26   C     C_R   0.041177 0.722037 0.685771 -0.046449
C27   C     C_R   0.894282 0.728665 0.725037 -0.107026
C28   C     C_R   0.731240 0.690197 0.716025 -0.106371
C29   C     C_R   0.207365 0.759426 0.696968 0.500946
C30   C     C_R   0.220907 0.803660 0.745370 -0.352612
C31   C     C_R   0.075139 0.811215 0.783302 0.219697
C32   C     C_R   0.911200 0.773590 0.773587 0.040722
C33   C     C_R   0.765158 0.780970 0.812636 -0.116726
C34   C     C_R   0.605546 0.741238 0.803869 0.416293
C35   C     C_R   0.585315 0.697696 0.755430 0.493132
C36   C     C_R   0.092602 0.856033 0.831084 -0.146263
C37   C     C_R   0.944267 0.865846 0.868633 -0.161268
C38   C     C_R   0.780353 0.828782 0.858845 -0.177163
H7    H     H_    0.606343 0.611266 0.662542 0.193618
H8    H     H_    0.347966 0.832035 0.753764 0.131677
H9    H     H_    0.219347 0.884607 0.838300 0.125757
H10   H     H_    0.665450 0.837951 0.887713 0.143140
C39   C     C_R   0.293621 0.174509 0.138323 0.389365
C40   C     C_R   0.457880 0.136946 0.130514 -0.395663
C41   C     C_R   0.606618 0.147256 0.169970 0.435226
C42   C     C_R   0.582117 0.190038 0.220052 -0.212597
C43   C     C_R   0.415094 0.226323 0.227375 -0.096396
C44   C     C_R   0.270727 0.217916 0.186918 0.097765
C45   C     C_R   0.717212 0.197762 0.263650 0.520379
C46   C     C_R   0.698679 0.245417 0.308780 -0.260905
C47   C     C_R   0.537758 0.282358 0.315125 0.060218
C48   C     C_R   0.392227 0.271803 0.275293 0.112272
C49   C     C_R   0.224430 0.307221 0.283253 0.161412
C50   C     C_R   0.081556 0.297550 0.243200 -0.194275
C51   C     C_R   0.105037 0.253943 0.195510 -0.112962
C52   C     C_R   0.518455 0.328935 0.361442 -0.211205
C53   C     C_R   0.351953 0.364391 0.369649 -0.162626
C54   C     C_R   0.203402 0.352325 0.330782 -0.171291
H11   H     H_    0.807192 0.251718 0.340402 0.162223
H12   H     H_    0.632780 0.337205 0.391555 0.136074
H13   H     H_    0.074318 0.379224 0.336721 0.165307
H14   H     H_    0.951890 0.324180 0.248499 0.155076
H15   H     H_    0.991427 0.248444 0.165415 0.175500
C55   C     C_R   0.295779 0.137536 0.895413 -0.159963
H16   H     H_    0.183100 0.140785 0.924754 0.160021
C56   C     C_R   0.281534 0.172173 0.858359 -0.035080
H17   H     H_    0.158305 0.200966 0.859640 0.129519
C57   C     C_R   0.425130 0.169799 0.819990 0.084687
C58   C     C_R   0.584193 0.132625 0.819784 -0.149669
H18   H     H_    0.694847 0.129699 0.789966 0.208689
C59   C     C_R   0.598417 0.096572 0.855714 0.524489
C60   C     C_R   0.454140 0.099707 0.895192 -0.313214
C61   C     C_R   0.566116 0.243775 0.776278 -0.224690
H19   H     H_    0.692540 0.244619 0.801625 0.187432
C62   C     C_R   0.564268 0.278974 0.739323 0.380626
C63   C     C_R   0.396726 0.279654 0.707326 -0.113030
C64   C     C_R   0.242055 0.241546 0.710781 -0.217525
H20   H     H_    0.115624 0.240879 0.685562 0.212949
C65   C     C_R   0.248686 0.203464 0.745398 0.363698
C66   C     C_R   0.410976 0.206069 0.780017 -0.094045
C67   C     C_R   0.306122 0.299543 0.618365 -0.061235
H21   H     H_    0.262430 0.253572 0.603376 0.126407
C68   C     C_R   0.293449 0.337489 0.584109 -0.182343
H22   H     H_    0.238175 0.320203 0.543681 0.127289
C69   C     C_R   0.356711 0.396701 0.601148 -0.270887
C70   C     C_R   0.426665 0.418332 0.654316 0.347936
C71   C     C_R   0.431307 0.380483 0.688992 -0.102462
H23   H     H_    0.482203 0.397739 0.729858 0.168214
C72   C     C_R   0.377968 0.320366 0.671015 0.144763
O11   O     O_R   0.308350 0.060850 0.061810 -0.585623
O12   O     O_R   0.633860 0.053770 0.953650 -0.591046
O13   O     O_R   0.798960 0.939210 0.938150 -0.609534
C73   C     C_R   0.464779 0.064179 0.935771 0.922432
O14   O     O_R   0.638360 0.067800 0.062400 -0.531053
O15   O     O_R   0.803500 0.953330 0.047670 -0.593327
C74   C     C_R   0.469802 0.085627 0.081908 1.016212
O16   O     O_R   0.303810 0.046730 0.952290 -0.589046
O17   O     O_3   0.468430 0.962490 0.995010 -0.290976
V3    V     V_3+5 0.745300 0.006960 0.000930 1.214740
O18   O     O_R   0.132880 0.946160 0.046390 -0.603082
C75   C     C_R   0.964686 0.934202 0.063017 0.961131
O19   O     O_R   0.128380 0.932130 0.937650 -0.596234
C76   C     C_R   0.958255 0.915502 0.917569 0.949367
V4    V     V_3+5 0.244670 0.992930 0.999140 1.186915
O20   O     O_3   0.971670 0.037510 0.005000 -0.242093
O21   O     O_3   0.571579 0.654338 0.431314 -0.711525
H24   H     H_    0.455196 0.667799 0.415187 0.339172
N1    N     N_R   0.124009 0.537969 0.351669 0.262060
O22   O     O_R   0.287817 0.545539 0.377795 -0.344677
O23   O     O_R   0.091072 0.488657 0.315560 -0.375507
N2    N     N_R   0.147007 0.603338 0.273867 0.286793
O24   O     O_R   0.096508 0.595464 0.223817 -0.285685
O25   O     O_R   0.323998 0.592638 0.285753 -0.273267
O26   O     O_3   0.144665 0.672351 0.595135 -0.703749
H25   H     H_    0.150659 0.712116 0.587821 0.347199
O27   O     O_3   0.359747 0.750541 0.661755 -0.751463
H26   H     H_    0.464372 0.779621 0.676123 0.315056
O28   O     O_3   0.462941 0.743910 0.841319 -0.687965
H27   H     H_    0.523858 0.753864 0.877392 0.321716
O29   O     O_3   0.422591 0.661976 0.749316 -0.649881
H28   H     H_    0.379465 0.652608 0.711444 0.327040
O30   O     O_3   0.155869 0.171136 0.098436 -0.735672
H29   H     H_    0.221428 0.161391 0.063412 0.316718
O31   O     O_3   0.775130 0.115696 0.157832 -0.725770
H30   H     H_    0.884124 0.143552 0.170377 0.357427
O32   O     O_3   0.863444 0.158405 0.265447 -0.754629
H31   H     H_    0.810739 0.117861 0.250700 0.343479
O33   O     O_3   0.751733 0.057900 0.849457 -0.726531
H32   H     H_    0.711643 0.022178 0.860850 0.312082
N3    N     N_R   0.736550 0.311298 0.733213 0.233744
O34   O     O_R   0.852796 0.331034 0.773886 -0.380481
O35   O     O_R   0.792376 0.313511 0.685769 -0.407240
N4    N     N_R   0.094067 0.161138 0.742925 0.228490
O36   O     O_R   0.127825 0.109552 0.751937 -0.374380
O37   O     O_R   0.926525 0.169866 0.722973 -0.418204
N5    N     N_R   0.493274 0.478371 0.673837 0.222562
O38   O     O_R   0.634191 0.497723 0.649880 -0.417946
O39   O     O_R   0.443337 0.509008 0.721179 -0.337737
N6    N     N_R   0.614007 0.650623 0.223375 0.255182
O40   O     O_R   0.654279 0.595810 0.222255 -0.286153
O41   O     O_R   0.437532 0.664797 0.214351 -0.329899
O42   O     O_3   0.673885 0.722870 0.149404 -0.731761
H33   H     H_    0.624924 0.681516 0.139243 0.369119
O43   O     O_3   0.613474 0.726497 0.356061 -0.743302
H34   H     H_    0.570465 0.743578 0.393179 0.320666

loop_
_geom_bond_atom_site_label_1
_geom_bond_atom_site_label_2
_geom_bond_distance
_ccdc_geom_bond_type
C37   C38   1.404373 A    
C37   C76   1.483052 S    
C62   C63   1.418551 A    
C11   C12   1.397939 A    
C23   C24   1.398906 A    
C64   H20   1.082417 S    
C54   H13   1.083880 S    
C1    O6    1.293619 A    
O14   C74   1.304400 A    
C65   C66   1.418839 A    
O12   V3    1.982074 S    
C27   C28   1.418278 A    
C26   C27   1.425713 A    
C71   C72   1.405292 A    
N6    O40   1.300952 A    
O17   V4    1.700304 S    
C5    C10   1.407179 A    
C11   H5    1.083073 S    
C25   O26   1.377578 S    
C18   O21   1.380993 S    
C19   C20   1.416591 A    
C56   C57   1.403163 A    
N2    O24   1.301071 A    
C47   C48   1.406480 A    
O12   C73   1.299619 A    
O13   C76   1.294354 A    
O5    C3    1.294702 A    
C49   C54   1.408355 A    
C31   C36   1.403336 A    
C50   H14   1.083866 S    
O17   V3    2.160825 S    
C28   C35   1.422108 A    
C62   N3    1.439471 S    
C33   C38   1.413412 A    
O18   V4    1.989526 S    
O11   C74   1.296813 A    
O18   C75   1.299342 A    
C1    C53   1.486241 S    
C3    C24   1.487828 S    
C13   C22   1.493420 S    
O15   C75   1.297833 A    
O8    V2    1.999033 S    
C39   C44   1.408936 A    
C17   C18   1.427015 A    
C10   C75   1.490203 S    
N4    O36   1.301548 A    
C9    H4    1.082793 S    
C48   C49   1.414759 A    
O1    V2    1.986961 S    
O7    V1    2.160900 S    
N5    O39   1.301118 A    
C26   C29   1.422259 A    
N6    O41   1.301027 A    
O16   V4    1.992780 S    
C2    C69   1.481462 S    
C7    C8    1.405520 A    
C12   C13   1.401918 A    
C63   C64   1.406116 A    
C60   C73   1.490798 S    
C45   O32   1.377053 S    
O13   V3    1.994969 S    
C51   H15   1.082964 S    
C70   C71   1.405808 A    
C20   N1    1.433062 S    
C68   H22   1.083421 S    
O19   V4    1.998888 S    
C32   C33   1.416500 A    
C36   H9    1.084687 S    
C11   C16   1.404027 A    
C59   O33   1.379720 S    
C63   C72   1.496766 S    
C17   O43   1.381975 S    
C52   C53   1.407919 A    
C45   C46   1.398612 A    
C42   C45   1.429854 A    
C56   H17   1.083305 S    
C20   C21   1.410943 A    
O30   H29   0.990737 S    
C59   C60   1.424464 A    
C61   H19   1.083751 S    
O4    C2    1.298607 A    
C57   C58   1.403274 A    
O26   H25   0.991434 S    
C7    C16   1.492128 S    
C21   N2    1.436788 S    
C44   C51   1.410831 A    
C55   H16   1.083401 S    
C33   C34   1.417349 A    
C43   C48   1.421341 A    
O2    C1    1.302637 A    
C53   C54   1.404910 A    
C12   H6    1.083438 S    
C61   C62   1.405649 A    
C29   C30   1.405766 A    
C23   C28   1.408462 A    
C40   C41   1.415863 A    
C5    H1    1.082892 S    
C65   N4    1.442204 S    
C47   C52   1.404618 A    
C34   C35   1.401532 A    
N3    O34   1.301458 A    
C30   H8    1.084493 S    
N5    O38   1.299717 A    
O3    C4    1.296698 A    
O15   V3    1.982445 S    
N3    O35   1.301500 A    
C30   C31   1.395193 A    
C67   C68   1.401117 A    
C43   C44   1.413490 A    
O6    V2    1.998235 S    
C55   C56   1.400844 A    
C35   O29   1.381459 S    
C58   C59   1.402039 A    
C25   C26   1.425467 A    
C34   O28   1.380698 S    
C8    C9    1.402600 A    
C24   C25   1.408310 A    
O2    V1    1.993396 S    
C21   C22   1.410003 A    
O19   C76   1.298825 A    
O33   H32   0.989424 S    
C46   H11   1.084446 S    
C36   C37   1.400208 A    
C18   C19   1.414782 A    
N1    O23   1.300379 A    
C15   O42   1.382812 S    
C6    C7    1.406057 A    
O1    C2    1.294511 A    
C46   C47   1.396640 A    
C13   C14   1.414464 A    
C9    C10   1.409356 A    
O11   V4    1.999005 S    
C50   C51   1.395326 A    
O5    V1    1.994863 S    
O8    C3    1.299449 A    
C64   C65   1.409190 A    
C39   O30   1.382283 S    
C40   C74   1.501398 S    
O27   H26   0.991807 S    
O43   H34   0.989799 S    
C14   N6    1.433489 S    
C67   C72   1.406169 A    
C71   H23   1.083281 S    
C55   C60   1.408917 A    
C67   H21   1.082774 S    
O32   H31   0.990786 S    
C14   C15   1.422735 A    
C6    H2    1.083184 S    
O9    V2    1.989446 S    
C17   C22   1.408089 A    
V3    O20   1.710013 S    
C23   H7    1.078876 S    
C49   C50   1.397862 A    
C29   O27   1.382840 S    
O3    V1    1.982608 S    
V1    O10   1.710031 S    
O42   H33   0.989256 S    
C4    C19   1.498603 S    
O14   V3    1.993437 S    
C27   C32   1.418081 A    
N1    O22   1.301024 A    
C42   C43   1.421606 A    
C5    C6    1.398837 A    
C41   O31   1.378536 S    
C15   C16   1.411666 A    
N4    O37   1.301346 A    
C61   C66   1.404303 A    
O7    V2    1.702167 S    
C39   C40   1.423076 A    
C57   C66   1.491680 S    
O29   H28   0.988174 S    
C41   C42   1.430996 A    
C38   H10   1.081282 S    
O4    V1    1.981971 S    
C58   H18   1.082645 S    
C68   C69   1.403724 A    
C31   C32   1.411918 A    
C52   H12   1.084518 S    
C69   C70   1.415429 A    
O31   H30   0.989619 S    
C8    H3    1.083181 S    
O28   H27   0.989391 S    
C73   O16   1.298000 A    
C70   N5    1.433315 S    
V4    O20   2.149517 S    
O9    C4    1.302050 A    
V2    O10   2.149552 S    
O21   H24   0.990561 S    
N2    O25   1.300442 A    
