data_mof_unit_8966.cif
_audit_creation_date              2012-12-10T17:19:57-0500
_audit_creation_method            fapswitch 2.2
_symmetry_space_group_name_H-M    P1
_symmetry_Int_Tables_number       1
_space_group_crystal_system       triclinic
_cell_length_a                    9.586237
_cell_length_b                    10.868859
_cell_length_c                    15.341075
_cell_angle_alpha                 87.934893
_cell_angle_beta                  74.453681
_cell_angle_gamma                 90.892033
_cell_volume                      1538.40125972

loop_
_atom_site_label
_atom_site_type_symbol
_atom_type_description
_atom_site_fract_x
_atom_site_fract_y
_atom_site_fract_z
_atom_type_partial_charge
C1    C     C_R   0.002857 0.263376 0.492321 0.803228
C2    C     C_R   0.670746 0.537406 0.903840 0.097713
C3    C     C_R   0.761782 0.594630 0.950050 0.123485
C4    C     C_R   0.518041 0.526861 0.945027 0.048383
C5    C     C_R   0.468996 0.542684 0.040447 0.025853
C6    C     C_R   0.566453 0.591953 0.085810 -0.211299
C7    C     C_R   0.708593 0.621577 0.040434 -0.227385
C8    C     C_R   0.410830 0.512745 0.895585 0.132873
C9    C     C_R   0.264824 0.493260 0.943899 -0.291869
C10   C     C_R   0.219957 0.494215 0.038002 0.134245
C11   C     C_R   0.321853 0.516945 0.087249 0.086695
C12   C     C_R   0.919260 0.507605 0.672116 0.816186
C13   C     C_R   0.072264 0.477273 0.083435 -0.195626
C14   C     C_R   0.025346 0.481145 0.177603 -0.196946
C15   C     C_R   0.273224 0.512402 0.182429 -0.252472
C16   C     C_R   0.276629 0.129605 0.423087 -0.154021
C17   C     C_R   0.406064 0.075050 0.425188 -0.152355
C18   C     C_R   0.403017 0.959678 0.467358 -0.147327
C19   C     C_R   0.272194 0.893539 0.498590 -0.186653
C20   C     C_R   0.140478 0.942544 0.488580 0.102107
C21   C     C_R   0.141707 0.068717 0.463635 0.098679
C22   C     C_R   0.008244 0.130155 0.482036 -0.121434
C23   C     C_R   0.001229 0.738067 0.502378 0.775182
C24   C     C_R   0.877814 0.062080 0.502740 -0.212850
C25   C     C_R   0.878158 0.935000 0.509170 -0.214063
C26   C     C_R   0.007530 0.873216 0.502958 -0.123049
C27   C     C_R   0.700182 0.659943 0.377435 -0.157080
C28   C     C_R   0.655467 0.738285 0.317382 -0.229571
C29   C     C_R   0.511521 0.739888 0.318195 -0.221640
C30   C     C_R   0.411576 0.662697 0.378690 -0.162976
C31   C     C_R   0.452467 0.579643 0.440250 0.198028
C32   C     C_R   0.602205 0.579021 0.439963 0.203864
C33   C     C_R   0.548263 0.424044 0.556600 -0.069381
C34   C     C_R   0.081602 0.498900 0.327406 0.770151
C35   C     C_R   0.400258 0.424256 0.556725 -0.084242
C36   C     C_R   0.876676 0.531145 0.769910 -0.097549
C37   C     C_R   0.126195 0.497600 0.227766 -0.053164
C38   C     C_R   0.904885 0.627493 0.904757 -0.241913
C39   C     C_R   0.960406 0.605423 0.812759 0.150121
C40   C     C_R   0.737895 0.489990 0.819591 -0.279130
Cu1   Cu    Cu3+1 0.140660 0.499990 0.500010 0.912080
Cu2   Cu    Cu3+1 0.859340 0.500010 0.499990 0.924789
H1    H     H_    0.777760 0.664595 0.076789 0.145809
H2    H     H_    0.992790 0.462092 0.046023 0.144663
H3    H     H_    0.774666 0.107028 0.514848 0.161393
H4    H     H_    0.283702 0.219103 0.388832 0.160231
H5    H     H_    0.508299 0.124020 0.396722 0.138434
H6    H     H_    0.502634 0.919995 0.474259 0.145391
H7    H     H_    0.775463 0.885166 0.521606 0.164739
H8    H     H_    0.582587 0.361513 0.602802 0.129797
H9    H     H_    0.476420 0.802324 0.272133 0.159693
H10   H     H_    0.303662 0.674212 0.374932 0.205660
H11   H     H_    0.323852 0.362224 0.603241 0.141351
H12   H     H_    0.183210 0.481003 0.907564 0.144541
H13   H     H_    0.970077 0.678862 0.939611 0.140972
H14   H     H_    0.533519 0.617181 0.155395 0.155153
N1    N     N_R   0.648320 0.501210 0.499140 -0.195176
N2    N     N_R   0.352470 0.501290 0.499110 -0.201394
O1    O     O_R   0.118810 0.319640 0.500010 -0.581413
O2    O     O_R   0.881240 0.319660 0.500000 -0.579161
O3    O     O_R   0.055570 0.499980 0.629840 -0.586789
O4    O     O_R   0.818000 0.500010 0.629830 -0.570438
O5    O     O_R   0.118760 0.680340 0.500000 -0.609601
O6    O     O_R   0.881190 0.680360 0.499990 -0.595730
O7    O     O_R   0.182000 0.499990 0.370170 -0.603421
O8    O     O_R   0.944430 0.500020 0.370160 -0.598083
H15   H     H_    0.277810 0.807336 0.534004 0.177007
H16   H     H_    0.812682 0.667236 0.371774 0.203267
H17   H     H_    0.733187 0.798959 0.270348 0.153351
H18   H     H_    0.348884 0.517223 0.222987 0.156237
H19   H     H_    0.910886 0.469185 0.211069 0.159499
C41   C     C_3   0.097987 0.676202 0.763586 -0.425087
C42   C     C_3   0.061747 0.801231 0.728352 -0.805494
H20   H     H_    0.163129 0.852690 0.692981 0.236779
H21   H     H_    0.993864 0.789216 0.680956 0.245513
H22   H     H_    0.001681 0.856173 0.785482 0.250174
H23   H     H_    0.164870 0.692829 0.811178 0.202717
H24   H     H_    0.168336 0.625901 0.708088 0.230579
H25   H     H_    0.684208 0.419830 0.791994 0.147250
C43   C     C_3   0.437741 0.537404 0.793542 -0.387537
C44   C     C_3   0.493258 0.669039 0.763409 -0.788486
H26   H     H_    0.419700 0.736306 0.803982 0.238746
H27   H     H_    0.603725 0.685269 0.770850 0.262815
H28   H     H_    0.497024 0.685622 0.690917 0.235467
H29   H     H_    0.506504 0.469426 0.752258 0.191105
H30   H     H_    0.335623 0.525337 0.773577 0.179810

loop_
_geom_bond_atom_site_label_1
_geom_bond_atom_site_label_2
_ccdc_geom_bond_type
C8    C9    A    
C16   C21   A    
C35   H11   S    
C34   C37   S    
Cu1   Cu2   S    
C19   C20   A    
Cu1   O3    S    
C4    C8    A    
C34   O8    A    
C44   H26   S    
C14   H19   S    
C29   C30   A    
C35   N2    A    
C5    C6    A    
C24   H3    S    
C31   N2    A    
C28   C29   A    
Cu1   N2    S    
C5    C11   A    
C3    C7    A    
C1    O1    A    
C30   C31   A    
Cu2   N1    S    
C18   C19   A    
C42   H20   S    
C23   C26   S    
C15   C37   A    
C41   H24   S    
C27   H16   S    
C41   H23   S    
C11   C15   A    
C38   H13   S    
C28   H17   S    
C3    C38   A    
C16   C17   A    
C43   H30   S    
C39   C41   S    
C19   H15   S    
C7    H1    S    
C12   C36   S    
C9    C10   A    
Cu2   O4    S    
C23   O5    A    
C1    C22   S    
C21   C22   A    
C42   H21   S    
C32   N1    A    
C34   O7    A    
C44   H27   S    
C36   C40   A    
C24   C25   A    
Cu1   O1    S    
C1    O2    A    
Cu2   O2    S    
C41   C42   S    
Cu1   O7    S    
C25   C26   A    
C2    C4    A    
C43   H29   S    
C12   O4    A    
C31   C32   A    
C17   C18   A    
C40   H25   S    
C23   O6    A    
C42   H22   S    
C22   C24   A    
Cu1   O5    S    
C16   H4    S    
Cu2   O6    S    
C44   H28   S    
C8    C43   S    
C29   H9    S    
C15   H18   S    
C30   H10   S    
C33   N1    A    
C27   C32   A    
C36   C39   A    
C17   H5    S    
C6    H14   S    
C43   C44   S    
C10   C13   A    
C18   H6    S    
C6    C7    A    
C2    C3    A    
C33   H8    S    
C14   C37   A    
C12   O3    A    
C38   C39   A    
C20   C26   A    
C33   C35   A    
C25   H7    S    
C10   C11   A    
C2    C40   A    
C4    C5    A    
C20   C21   A    
C27   C28   A    
Cu2   O8    S    
C9    H12   S    
C13   C14   A    
C13   H2    S    
