data_mof_unit_63338.cif
_audit_creation_date              2012-12-10T17:31:57-0500
_audit_creation_method            fapswitch 2.2
_symmetry_space_group_name_H-M    P1
_symmetry_Int_Tables_number       1
_space_group_crystal_system       monoclinic
_cell_length_a                    30.186579
_cell_length_b                    30.186579
_cell_length_c                    30.186579
_cell_angle_alpha                 90.0
_cell_angle_beta                  90.0
_cell_angle_gamma                 90.000047
_cell_volume                      27506.9028502

loop_
_atom_site_label
_atom_site_type_symbol
_atom_type_description
_atom_site_fract_x
_atom_site_fract_y
_atom_site_fract_z
_atom_type_partial_charge
C1    C     C_R   1.000000 0.413362 0.500000 0.991525
C2    C     C_R   0.000000 0.500000 0.413362 0.991525
C3    C     C_R   0.000000 0.586638 0.500000 0.991524
C4    C     C_R   0.000000 0.500000 0.586638 0.991524
C5    C     C_R   0.413362 0.500000 0.000000 0.991525
C6    C     C_R   0.500000 0.586638 0.000000 0.991524
C7    C     C_R   0.586638 0.500000 0.000000 0.991524
C8    C     C_R   0.500000 0.413362 0.000000 0.991524
C9    C     C_R   0.500000 0.000000 0.586638 0.991524
C10   C     C_R   0.586638 0.000000 0.500000 0.991524
C11   C     C_R   0.500000 0.000000 0.413362 0.991525
C12   C     C_R   0.413362 1.000000 0.500000 0.991525
C13   C     C_R   0.500000 0.913362 0.000000 0.991525
C14   C     C_R   0.500000 1.000000 0.913362 0.991525
C15   C     C_R   0.500000 0.086638 0.000000 0.991524
C16   C     C_R   0.500000 0.000000 0.086638 0.991524
C17   C     C_R   0.913362 1.000000 0.500000 0.991525
C18   C     C_R   1.000000 0.086638 0.500000 0.991524
C19   C     C_R   0.086638 0.000000 0.500000 0.991524
C20   C     C_R   1.000000 0.913362 0.500000 0.991524
C21   C     C_R   0.000000 0.500000 0.086638 0.991524
C22   C     C_R   0.086638 0.500000 0.000000 0.991524
C23   C     C_R   0.000000 0.500000 0.913362 0.991525
C24   C     C_R   0.913362 0.500000 0.000000 0.991525
C25   C     C_R   0.031056 0.473750 0.157123 0.190053
C26   C     C_R   0.031056 0.842877 0.473750 0.190053
C27   C     C_R   0.031056 0.526250 0.842877 0.190053
C28   C     C_R   0.031056 0.157123 0.526250 0.190053
C29   C     C_R   0.968944 0.526250 0.157123 0.190053
C30   C     C_R   0.968944 0.157123 0.473750 0.190054
C31   C     C_R   0.968944 0.473750 0.842877 0.190053
C32   C     C_R   0.968944 0.842877 0.526250 0.190052
C33   C     C_R   0.473750 0.842877 0.968944 0.190053
C34   C     C_R   0.842877 0.526250 0.968944 0.190053
C35   C     C_R   0.526250 0.157123 0.968944 0.190053
C36   C     C_R   0.157123 0.473750 0.968944 0.190053
C37   C     C_R   0.526250 0.842877 0.031056 0.190053
C38   C     C_R   0.157123 0.526250 0.031056 0.190052
C39   C     C_R   0.473750 0.157123 0.031056 0.190053
C40   C     C_R   0.842877 0.473750 0.031056 0.190052
C41   C     C_R   0.842877 0.031056 0.526250 0.190053
C42   C     C_R   0.526250 0.031056 0.157123 0.190053
C43   C     C_R   0.157123 0.031056 0.473750 0.190053
C44   C     C_R   0.473750 0.031056 0.842877 0.190053
C45   C     C_R   0.842877 0.968944 0.473750 0.190053
C46   C     C_R   0.526250 0.968944 0.842877 0.190053
C47   C     C_R   0.157123 0.968944 0.526250 0.190053
C48   C     C_R   0.473750 0.968944 0.157123 0.190053
C49   C     C_R   0.531056 0.973750 0.657123 0.190053
C50   C     C_R   0.531056 0.342876 0.973750 0.190053
C51   C     C_R   0.531056 0.026250 0.342876 0.190053
C52   C     C_R   0.531056 0.657123 0.026250 0.190053
C53   C     C_R   0.468944 0.026250 0.657123 0.190053
C54   C     C_R   0.468944 0.657123 0.973750 0.190053
C55   C     C_R   0.468944 0.973750 0.342876 0.190053
C56   C     C_R   0.468944 0.342876 0.026250 0.190052
C57   C     C_R   0.973750 0.342876 0.468944 0.190053
C58   C     C_R   0.342876 0.026250 0.468944 0.190053
C59   C     C_R   0.026250 0.657123 0.468944 0.190053
C60   C     C_R   0.657123 0.973750 0.468944 0.190053
C61   C     C_R   0.026250 0.342876 0.531056 0.190053
C62   C     C_R   0.657123 0.026250 0.531056 0.190052
C63   C     C_R   0.973750 0.657123 0.531056 0.190053
C64   C     C_R   0.342876 0.973750 0.531056 0.190052
C65   C     C_R   0.342876 0.531056 0.026250 0.190053
C66   C     C_R   0.026250 0.531056 0.657123 0.190053
C67   C     C_R   0.657123 0.531056 0.973750 0.190053
C68   C     C_R   0.973750 0.531056 0.342876 0.190053
C69   C     C_R   0.342876 0.468944 0.973750 0.190053
C70   C     C_R   0.026250 0.468944 0.342876 0.190053
C71   C     C_R   0.657123 0.468944 0.026250 0.190053
C72   C     C_R   0.973750 0.468944 0.657123 0.190053
C73   C     C_R   1.000000 0.500000 0.134427 -0.179682
C74   C     C_R   0.000000 0.865573 0.500000 -0.179682
C75   C     C_R   0.000000 0.500000 0.865573 -0.179682
C76   C     C_R   1.000000 0.134427 0.500000 -0.179682
C77   C     C_R   0.500000 0.865573 0.000000 -0.179682
C78   C     C_R   0.865573 0.500000 1.000000 -0.179682
C79   C     C_R   0.500000 0.134427 0.000000 -0.179682
C80   C     C_R   0.134427 0.500000 1.000000 -0.179682
C81   C     C_R   0.865573 0.000000 0.500000 -0.179682
C82   C     C_R   0.500000 0.000000 0.134427 -0.179682
C83   C     C_R   0.134427 1.000000 0.500000 -0.179682
C84   C     C_R   0.500000 0.000000 0.865573 -0.179683
C85   C     C_R   0.500000 0.000000 0.634427 -0.179682
C86   C     C_R   0.500000 0.365573 0.000000 -0.179682
C87   C     C_R   0.500000 0.000000 0.365573 -0.179682
C88   C     C_R   0.500000 0.634427 0.000000 -0.179682
C89   C     C_R   1.000000 0.365573 0.500000 -0.179682
C90   C     C_R   0.365573 1.000000 0.500000 -0.179682
C91   C     C_R   0.000000 0.634427 0.500000 -0.179682
C92   C     C_R   0.634427 0.000000 0.500000 -0.179682
C93   C     C_R   0.365573 0.500000 1.000000 -0.179682
C94   C     C_R   0.000000 0.500000 0.634427 -0.179682
C95   C     C_R   0.634427 0.500000 1.000000 -0.179682
C96   C     C_R   0.000000 0.500000 0.365573 -0.179683
C97   C     C_R   0.970223 0.527775 0.203429 0.052565
C98   C     C_R   0.970223 0.796571 0.527775 0.052565
C99   C     C_R   0.970223 0.472225 0.796571 0.052565
C100  C     C_R   0.970223 0.203429 0.472225 0.052565
C101  C     C_R   0.029777 0.472225 0.203429 0.052565
C102  C     C_R   0.029777 0.203429 0.527775 0.052565
C103  C     C_R   0.029777 0.527775 0.796571 0.052565
C104  C     C_R   0.029777 0.796571 0.472225 0.052565
C105  C     C_R   0.527775 0.796571 0.029777 0.052565
C106  C     C_R   0.796571 0.472225 0.029777 0.052565
C107  C     C_R   0.472225 0.203429 0.029777 0.052565
C108  C     C_R   0.203429 0.527775 0.029777 0.052565
C109  C     C_R   0.472225 0.796571 0.970223 0.052565
C110  C     C_R   0.203429 0.472225 0.970223 0.052565
C111  C     C_R   0.527775 0.203429 0.970223 0.052565
C112  C     C_R   0.796571 0.527775 0.970223 0.052565
C113  C     C_R   0.796571 0.970223 0.472225 0.052565
C114  C     C_R   0.472225 0.970223 0.203429 0.052565
C115  C     C_R   0.203429 0.970223 0.527775 0.052565
C116  C     C_R   0.527775 0.970223 0.796571 0.052565
C117  C     C_R   0.796571 0.029777 0.527775 0.052565
C118  C     C_R   0.472225 0.029777 0.796571 0.052565
C119  C     C_R   0.203429 0.029777 0.472225 0.052565
C120  C     C_R   0.527775 0.029777 0.203429 0.052565
C121  C     C_R   0.470223 0.027775 0.703429 0.052565
C122  C     C_R   0.470223 0.296571 0.027775 0.052565
C123  C     C_R   0.470223 0.972225 0.296571 0.052565
C124  C     C_R   0.470223 0.703429 0.972225 0.052565
C125  C     C_R   0.529777 0.972225 0.703429 0.052565
C126  C     C_R   0.529777 0.703429 0.027775 0.052565
C127  C     C_R   0.529777 0.027775 0.296571 0.052565
C128  C     C_R   0.529777 0.296571 0.972225 0.052565
C129  C     C_R   0.027775 0.296571 0.529777 0.052565
C130  C     C_R   0.296571 0.972225 0.529777 0.052565
C131  C     C_R   0.972225 0.703429 0.529777 0.052565
C132  C     C_R   0.703429 0.027775 0.529777 0.052565
C133  C     C_R   0.972225 0.296571 0.470223 0.052565
C134  C     C_R   0.703429 0.972225 0.470223 0.052565
C135  C     C_R   0.027775 0.703429 0.470223 0.052565
C136  C     C_R   0.296571 0.027775 0.470223 0.052565
C137  C     C_R   0.296571 0.470223 0.972225 0.052565
C138  C     C_R   0.972225 0.470223 0.703429 0.052565
C139  C     C_R   0.703429 0.470223 0.027775 0.052565
C140  C     C_R   0.027775 0.470223 0.296571 0.052565
C141  C     C_R   0.296571 0.529777 0.027775 0.052565
C142  C     C_R   0.972225 0.529777 0.296571 0.052565
C143  C     C_R   0.703429 0.529777 0.972225 0.052565
C144  C     C_R   0.027775 0.529777 0.703429 0.052565
C145  C     C_R   1.000000 0.500000 0.226668 0.017372
C146  C     C_R   0.000000 0.773332 0.500000 0.017372
C147  C     C_R   0.000000 0.500000 0.773332 0.017372
C148  C     C_R   1.000000 0.226668 0.500000 0.017372
C149  C     C_R   0.500000 0.773332 0.000000 0.017372
C150  C     C_R   0.773332 0.500000 1.000000 0.017372
C151  C     C_R   0.500000 0.226668 0.000000 0.017372
C152  C     C_R   0.226668 0.500000 1.000000 0.017372
C153  C     C_R   0.773332 0.000000 0.500000 0.017372
C154  C     C_R   0.500000 0.000000 0.226668 0.017372
C155  C     C_R   0.226668 1.000000 0.500000 0.017372
C156  C     C_R   0.500000 0.000000 0.773332 0.017372
C157  C     C_R   0.500000 0.000000 0.726668 0.017372
C158  C     C_R   0.500000 0.273332 0.000000 0.017372
C159  C     C_R   0.500000 0.000000 0.273332 0.017372
C160  C     C_R   0.500000 0.726668 0.000000 0.017372
C161  C     C_R   1.000000 0.273332 0.500000 0.017372
C162  C     C_R   0.273332 1.000000 0.500000 0.017372
C163  C     C_R   0.000000 0.726668 0.500000 0.017372
C164  C     C_R   0.726668 0.000000 0.500000 0.017372
C165  C     C_R   0.273332 0.500000 1.000000 0.017372
C166  C     C_R   0.000000 0.500000 0.726668 0.017372
C167  C     C_R   0.726668 0.500000 1.000000 0.017372
C168  C     C_R   0.000000 0.500000 0.273332 0.017372
C169  C     C_R   0.942267 0.556320 0.227105 -0.131686
C170  C     C_R   0.942267 0.772895 0.556320 -0.131686
C171  C     C_R   0.942267 0.443680 0.772895 -0.131686
C172  C     C_R   0.942267 0.227105 0.443680 -0.131686
C173  C     C_R   0.057733 0.443680 0.227105 -0.131686
C174  C     C_R   0.057733 0.227105 0.556320 -0.131686
C175  C     C_R   0.057733 0.556320 0.772895 -0.131686
C176  C     C_R   0.057733 0.772895 0.443680 -0.131686
C177  C     C_R   0.556320 0.772895 0.057733 -0.131686
C178  C     C_R   0.772895 0.443680 0.057733 -0.131686
C179  C     C_R   0.443680 0.227105 0.057733 -0.131686
C180  C     C_R   0.227105 0.556320 0.057733 -0.131686
C181  C     C_R   0.443680 0.772895 0.942267 -0.131686
C182  C     C_R   0.227105 0.443680 0.942267 -0.131686
C183  C     C_R   0.556320 0.227105 0.942267 -0.131686
C184  C     C_R   0.772895 0.556320 0.942267 -0.131686
C185  C     C_R   0.772895 0.942267 0.443680 -0.131686
C186  C     C_R   0.443680 0.942267 0.227105 -0.131686
C187  C     C_R   0.227105 0.942267 0.556320 -0.131686
C188  C     C_R   0.556320 0.942267 0.772895 -0.131686
C189  C     C_R   0.772895 0.057733 0.556320 -0.131686
C190  C     C_R   0.443680 0.057733 0.772895 -0.131686
C191  C     C_R   0.227105 0.057733 0.443680 -0.131686
C192  C     C_R   0.556320 0.057733 0.227105 -0.131686
C193  C     C_R   0.442267 0.056320 0.727105 -0.131686
C194  C     C_R   0.442267 0.272895 0.056320 -0.131686
C195  C     C_R   0.442267 0.943680 0.272895 -0.131686
C196  C     C_R   0.442267 0.727105 0.943680 -0.131686
C197  C     C_R   0.557733 0.943680 0.727105 -0.131686
C198  C     C_R   0.557733 0.727105 0.056320 -0.131686
C199  C     C_R   0.557733 0.056320 0.272895 -0.131686
C200  C     C_R   0.557733 0.272895 0.943680 -0.131686
C201  C     C_R   0.056320 0.272895 0.557733 -0.131686
C202  C     C_R   0.272895 0.943680 0.557733 -0.131686
C203  C     C_R   0.943680 0.727105 0.557733 -0.131686
C204  C     C_R   0.727105 0.056320 0.557733 -0.131686
C205  C     C_R   0.943680 0.272895 0.442267 -0.131686
C206  C     C_R   0.727105 0.943680 0.442267 -0.131686
C207  C     C_R   0.056320 0.727105 0.442267 -0.131686
C208  C     C_R   0.272895 0.056320 0.442267 -0.131686
C209  C     C_R   0.272895 0.442267 0.943680 -0.131686
C210  C     C_R   0.943680 0.442267 0.727105 -0.131686
C211  C     C_R   0.727105 0.442267 0.056320 -0.131686
C212  C     C_R   0.056320 0.442267 0.272895 -0.131686
C213  C     C_R   0.272895 0.557733 0.056320 -0.131686
C214  C     C_R   0.943680 0.557733 0.272895 -0.131686
C215  C     C_R   0.727105 0.557733 0.943680 -0.131686
C216  C     C_R   0.056320 0.557733 0.727105 -0.131686
H1    H     H_    0.919440 0.578503 0.210734 0.204699
H2    H     H_    0.919440 0.789266 0.578503 0.204699
H3    H     H_    0.919440 0.421497 0.789266 0.204699
H4    H     H_    0.919440 0.210733 0.421497 0.204699
H5    H     H_    0.080560 0.421497 0.210734 0.204699
H6    H     H_    0.080560 0.210734 0.578503 0.204699
H7    H     H_    0.080560 0.578503 0.789266 0.204700
H8    H     H_    0.080560 0.789266 0.421497 0.204700
H9    H     H_    0.578503 0.789266 0.080560 0.204700
H10   H     H_    0.789266 0.421497 0.080560 0.204700
H11   H     H_    0.421497 0.210733 0.080560 0.204700
H12   H     H_    0.210734 0.578503 0.080560 0.204700
H13   H     H_    0.421497 0.789266 0.919440 0.204700
H14   H     H_    0.210734 0.421497 0.919440 0.204699
H15   H     H_    0.578503 0.210734 0.919440 0.204700
H16   H     H_    0.789266 0.578503 0.919440 0.204699
H17   H     H_    0.789266 0.919440 0.421497 0.204699
H18   H     H_    0.421497 0.919440 0.210734 0.204700
H19   H     H_    0.210734 0.919440 0.578503 0.204700
H20   H     H_    0.578503 0.919440 0.789266 0.204699
H21   H     H_    0.789266 0.080560 0.578503 0.204699
H22   H     H_    0.421497 0.080560 0.789266 0.204699
H23   H     H_    0.210734 0.080560 0.421497 0.204699
H24   H     H_    0.578503 0.080560 0.210734 0.204699
H25   H     H_    0.419440 0.078503 0.710734 0.204699
H26   H     H_    0.419440 0.289266 0.078503 0.204699
H27   H     H_    0.419440 0.921497 0.289266 0.204699
H28   H     H_    0.419440 0.710734 0.921497 0.204699
H29   H     H_    0.580560 0.921497 0.710734 0.204699
H30   H     H_    0.580560 0.710734 0.078503 0.204699
H31   H     H_    0.580560 0.078503 0.289266 0.204700
H32   H     H_    0.580560 0.289266 0.921497 0.204700
H33   H     H_    0.078503 0.289266 0.580560 0.204700
H34   H     H_    0.289266 0.921497 0.580560 0.204700
H35   H     H_    0.921497 0.710734 0.580560 0.204700
H36   H     H_    0.710734 0.078503 0.580560 0.204700
H37   H     H_    0.921497 0.289266 0.419440 0.204700
H38   H     H_    0.710734 0.921497 0.419440 0.204699
H39   H     H_    0.078503 0.710734 0.419440 0.204700
H40   H     H_    0.289266 0.078503 0.419440 0.204699
H41   H     H_    0.289266 0.419440 0.921497 0.204699
H42   H     H_    0.921497 0.419440 0.710734 0.204700
H43   H     H_    0.710734 0.419440 0.078503 0.204700
H44   H     H_    0.078503 0.419440 0.289266 0.204699
H45   H     H_    0.289266 0.580560 0.078503 0.204699
H46   H     H_    0.921497 0.580560 0.289266 0.204699
H47   H     H_    0.710734 0.580560 0.921497 0.204699
H48   H     H_    0.078503 0.580560 0.710734 0.204699
O1    O     O_R   0.962670 0.433890 0.500010 -0.583580
O2    O     O_R   0.962670 0.499990 0.433890 -0.583579
O3    O     O_R   0.962670 0.566110 0.499990 -0.583580
O4    O     O_R   0.962670 0.500010 0.566110 -0.583580
O5    O     O_R   0.037330 0.566110 0.500010 -0.583580
O6    O     O_R   0.037330 0.500010 0.433890 -0.583580
O7    O     O_R   0.037330 0.433890 0.499990 -0.583579
O8    O     O_R   0.037330 0.499990 0.566110 -0.583580
O9    O     O_R   0.433890 0.499990 0.037330 -0.583580
O10   O     O_R   0.499990 0.566110 0.037330 -0.583580
O11   O     O_R   0.566110 0.500010 0.037330 -0.583580
O12   O     O_R   0.500010 0.433890 0.037330 -0.583580
O13   O     O_R   0.566110 0.499990 0.962670 -0.583579
O14   O     O_R   0.500010 0.566110 0.962670 -0.583580
O15   O     O_R   0.433890 0.500010 0.962670 -0.583579
O16   O     O_R   0.499990 0.433890 0.962670 -0.583579
O17   O     O_R   0.499990 0.962670 0.566110 -0.583580
O18   O     O_R   0.566110 0.962670 0.500010 -0.583580
O19   O     O_R   0.500010 0.962670 0.433890 -0.583579
O20   O     O_R   0.433890 0.962670 0.499990 -0.583580
O21   O     O_R   0.499990 0.037330 0.433890 -0.583580
O22   O     O_R   0.566110 0.037330 0.499990 -0.583580
O23   O     O_R   0.500010 0.037330 0.566110 -0.583580
O24   O     O_R   0.433890 0.037330 0.500010 -0.583579
O25   O     O_R   0.462670 0.933890 0.000010 -0.583580
O26   O     O_R   0.462670 0.999990 0.933890 -0.583579
O27   O     O_R   0.462670 0.066110 0.999990 -0.583580
O28   O     O_R   0.462670 0.000010 0.066110 -0.583580
O29   O     O_R   0.537330 0.066110 0.000010 -0.583580
O30   O     O_R   0.537330 0.000010 0.933890 -0.583580
O31   O     O_R   0.537330 0.933890 0.999990 -0.583579
O32   O     O_R   0.537330 0.999990 0.066110 -0.583580
O33   O     O_R   0.933890 0.999990 0.537330 -0.583580
O34   O     O_R   0.999990 0.066110 0.537330 -0.583580
O35   O     O_R   0.066110 0.000010 0.537330 -0.583580
O36   O     O_R   0.000010 0.933890 0.537330 -0.583580
O37   O     O_R   0.066110 0.999990 0.462670 -0.583579
O38   O     O_R   0.000010 0.066110 0.462670 -0.583580
O39   O     O_R   0.933890 0.000010 0.462670 -0.583579
O40   O     O_R   0.999990 0.933890 0.462670 -0.583579
O41   O     O_R   0.999990 0.462670 0.066110 -0.583580
O42   O     O_R   0.066110 0.462670 0.000010 -0.583580
O43   O     O_R   0.000010 0.462670 0.933890 -0.583579
O44   O     O_R   0.933890 0.462670 0.999990 -0.583580
O45   O     O_R   0.999990 0.537330 0.933890 -0.583580
O46   O     O_R   0.066110 0.537330 0.999990 -0.583580
O47   O     O_R   0.000010 0.537330 0.066110 -0.583580
O48   O     O_R   0.933890 0.537330 0.000010 -0.583579
Zn1   Zn    Zn3+2 0.950160 0.500000 0.500000 1.145669
Zn2   Zn    Zn3+2 0.049840 0.500000 0.500000 1.145669
Zn3   Zn    Zn3+2 0.500000 0.500000 0.049840 1.145669
Zn4   Zn    Zn3+2 0.500000 0.500000 0.950160 1.145669
Zn5   Zn    Zn3+2 0.500000 0.950160 0.500000 1.145669
Zn6   Zn    Zn3+2 0.500000 0.049840 0.500000 1.145669
Zn7   Zn    Zn3+2 0.450160 0.000000 0.000000 1.145669
Zn8   Zn    Zn3+2 0.549840 0.000000 0.000000 1.145669
Zn9   Zn    Zn3+2 0.000000 0.000000 0.549840 1.145669
Zn10  Zn    Zn3+2 0.000000 0.000000 0.450160 1.145669
Zn11  Zn    Zn3+2 0.000000 0.450160 0.000000 1.145669
Zn12  Zn    Zn3+2 0.000000 0.549840 0.000000 1.145669
Br1   Br    Br    0.076902 0.442371 0.124611 -0.433076
Br2   Br    Br    0.076902 0.875389 0.442371 -0.433076
Br3   Br    Br    0.076902 0.557629 0.875389 -0.433076
Br4   Br    Br    0.076902 0.124611 0.557629 -0.433076
Br5   Br    Br    0.923098 0.557629 0.124611 -0.433076
Br6   Br    Br    0.923098 0.124610 0.442371 -0.433076
Br7   Br    Br    0.923098 0.442371 0.875389 -0.433076
Br8   Br    Br    0.923098 0.875389 0.557629 -0.433076
Br9   Br    Br    0.442371 0.875389 0.923098 -0.433076
Br10  Br    Br    0.875389 0.557629 0.923098 -0.433076
Br11  Br    Br    0.557629 0.124611 0.923098 -0.433076
Br12  Br    Br    0.124611 0.442371 0.923098 -0.433076
Br13  Br    Br    0.557629 0.875389 0.076902 -0.433076
Br14  Br    Br    0.124611 0.557629 0.076902 -0.433076
Br15  Br    Br    0.442371 0.124611 0.076902 -0.433076
Br16  Br    Br    0.875389 0.442371 0.076902 -0.433076
Br17  Br    Br    0.875390 0.076902 0.557629 -0.433076
Br18  Br    Br    0.557629 0.076901 0.124611 -0.433077
Br19  Br    Br    0.124611 0.076901 0.442371 -0.433076
Br20  Br    Br    0.442371 0.076902 0.875389 -0.433076
Br21  Br    Br    0.875389 0.923098 0.442371 -0.433076
Br22  Br    Br    0.557629 0.923098 0.875389 -0.433076
Br23  Br    Br    0.124611 0.923098 0.557629 -0.433076
Br24  Br    Br    0.442371 0.923098 0.124611 -0.433076
Br25  Br    Br    0.576902 0.942371 0.624610 -0.433076
Br26  Br    Br    0.576901 0.375389 0.942370 -0.433076
Br27  Br    Br    0.576902 0.057629 0.375389 -0.433076
Br28  Br    Br    0.576902 0.624611 0.057629 -0.433076
Br29  Br    Br    0.423098 0.057629 0.624610 -0.433076
Br30  Br    Br    0.423098 0.624610 0.942371 -0.433076
Br31  Br    Br    0.423098 0.942371 0.375389 -0.433076
Br32  Br    Br    0.423098 0.375389 0.057629 -0.433076
Br33  Br    Br    0.942371 0.375389 0.423098 -0.433076
Br34  Br    Br    0.375389 0.057629 0.423098 -0.433076
Br35  Br    Br    0.057629 0.624611 0.423098 -0.433076
Br36  Br    Br    0.624611 0.942371 0.423098 -0.433076
Br37  Br    Br    0.057629 0.375389 0.576902 -0.433076
Br38  Br    Br    0.624611 0.057629 0.576902 -0.433076
Br39  Br    Br    0.942371 0.624611 0.576902 -0.433076
Br40  Br    Br    0.375389 0.942371 0.576902 -0.433076
Br41  Br    Br    0.375389 0.576902 0.057629 -0.433076
Br42  Br    Br    0.057629 0.576902 0.624611 -0.433077
Br43  Br    Br    0.624611 0.576901 0.942370 -0.433076
Br44  Br    Br    0.942371 0.576902 0.375389 -0.433076
Br45  Br    Br    0.375389 0.423098 0.942371 -0.433076
Br46  Br    Br    0.057629 0.423098 0.375389 -0.433076
Br47  Br    Br    0.624610 0.423098 0.057629 -0.433076
Br48  Br    Br    0.942371 0.423098 0.624610 -0.433076

loop_
_geom_bond_atom_site_label_1
_geom_bond_atom_site_label_2
_ccdc_geom_bond_type
C4    O8    A    
C185  H17   S    
C129  C201  A    
C70   C140  A    
C27   Br3   S    
O11   Zn3   S    
C5    O15   A    
C67   C143  A    
C200  H32   S    
C152  C165  A    
C112  C184  A    
C136  C162  A    
C211  H43   S    
C67   Br43  S    
C180  C213  A    
O18   Zn5   S    
C110  C152  A    
C26   Br2   S    
C71   C95   A    
C26   C104  A    
C174  H6    S    
C32   Br8   S    
O34   Zn9   S    
C14   C84   S    
C57   Br33  S    
C130  C202  A    
C72   C94   A    
C189  H21   S    
C69   C137  A    
C57   C133  A    
C143  C215  A    
C135  C163  A    
C122  C194  A    
C27   C75   A    
C155  C162  A    
O15   Zn4   S    
C55   C123  A    
C151  C158  A    
C62   C132  A    
C36   C80   A    
C55   Br31  S    
C184  C215  A    
O33   Zn9   S    
O5    Zn2   S    
C174  C201  A    
C49   C85   A    
C30   C76   A    
C40   Br16  S    
C56   C86   A    
O35   Zn9   S    
C122  C158  A    
O17   Zn5   S    
C70   Br46  S    
C139  C167  A    
C8    O12   A    
C12   O20   A    
C46   C84   A    
C117  C153  A    
C173  C212  A    
C5    O9    A    
C51   C87   A    
C6    O14   A    
C60   C134  A    
C48   C114  A    
C99   C147  A    
O21   Zn6   S    
O41   Zn11  S    
C107  C179  A    
C97   C145  A    
C45   C81   A    
C105  C177  A    
C69   C93   A    
O32   Zn8   S    
C22   O42   A    
C139  C211  A    
C175  C216  A    
C10   O18   A    
C2    C96   S    
C38   Br14  S    
C54   C88   A    
C123  C159  A    
C210  H42   S    
C124  C160  A    
C197  H29   S    
C32   C98   A    
C8    C86   S    
C116  C156  A    
C142  C168  A    
C66   C144  A    
C63   C91   A    
C175  H7    S    
C53   C85   A    
C53   Br29  S    
O3    Zn1   S    
C114  C154  A    
C145  C168  A    
C106  C150  A    
C100  C172  A    
C34   C112  A    
C101  C173  A    
C25   C101  A    
C21   O41   A    
C103  C147  A    
C104  C176  A    
C187  C202  A    
C101  C145  A    
C20   O40   A    
C12   C90   S    
C172  C205  A    
C32   C74   A    
C192  H24   S    
C2    O2    A    
C30   C100  A    
C6    C88   S    
C59   C135  A    
C181  C196  A    
C14   O26   A    
O19   Zn5   S    
C9    C85   S    
C47   Br23  S    
C182  H14   S    
C15   C79   S    
C11   C87   S    
C20   O36   A    
C68   C142  A    
C46   Br22  S    
O28   Zn7   S    
C72   Br48  S    
C172  H4    S    
C61   C129  A    
C107  C151  A    
C130  C162  A    
C72   C138  A    
C39   Br15  S    
C34   Br10  S    
C67   C95   A    
O23   Zn6   S    
C19   C83   S    
C111  C183  A    
C52   Br28  S    
O30   Zn8   S    
C60   C92   A    
C17   O33   A    
C9    O23   A    
C129  C161  A    
C104  C146  A    
C52   C88   A    
O2    Zn1   S    
C11   O21   A    
C144  C216  A    
C52   C126  A    
C44   Br20  S    
C138  C210  A    
C213  H45   S    
C56   C122  A    
C70   C96   A    
C37   C105  A    
C115  C187  A    
C48   C82   A    
C44   C118  A    
O16   Zn4   S    
C113  C185  A    
C124  C196  A    
C120  C154  A    
C212  H44   S    
O12   Zn3   S    
C143  C167  A    
C117  C189  A    
O9    Zn3   S    
C203  H35   S    
C64   C130  A    
C111  C151  A    
C63   C131  A    
C36   C110  A    
C112  C150  A    
C29   Br5   S    
C183  H15   S    
C41   Br17  S    
C40   C106  A    
C109  C181  A    
C195  H27   S    
C176  H8    S    
C193  H25   S    
C185  C206  A    
C127  C199  A    
C42   Br18  S    
C205  H37   S    
C61   Br37  S    
C141  C165  A    
C183  C200  A    
C3    O5    A    
C138  C166  A    
O24   Zn6   S    
C154  C159  A    
C7    O13   A    
C12   O24   A    
C33   C77   A    
C15   O27   A    
O26   Zn7   S    
O1    Zn1   S    
C55   C87   A    
C6    O10   A    
C149  C160  A    
C216  H48   S    
C177  H9    S    
C47   C83   A    
C98   C170  A    
C36   Br12  S    
O37   Zn10  S    
C41   C117  A    
C106  C178  A    
C171  H3    S    
C43   C119  A    
C186  H18   S    
C169  H1    S    
C10   O22   A    
C23   O43   A    
C190  H22   S    
C64   C90   A    
C173  H5    S    
C137  C165  A    
C71   Br47  S    
C47   C115  A    
C68   C96   A    
C57   C89   A    
C16   O32   A    
C135  C207  A    
C125  C157  A    
C134  C206  A    
C25   Br1   S    
C56   Br32  S    
C63   Br39  S    
C43   C83   A    
C3    C91   S    
O45   Zn12  S    
C190  C193  A    
C108  C152  A    
C31   Br7   S    
C1    C89   S    
C31   C99   A    
C24   O48   A    
C131  C203  A    
O20   Zn5   S    
C10   C92   S    
C123  C195  A    
C121  C193  A    
C105  C149  A    
C189  C204  A    
C2    O6    A    
C13   O31   A    
C132  C204  A    
C215  H47   S    
C3    O3    A    
C142  C214  A    
C65   C141  A    
C136  C208  A    
C171  C210  A    
C54   Br30  S    
O46   Zn12  S    
O48   Zn12  S    
C37   C77   A    
C180  H12   S    
C51   Br27  S    
C39   C79   A    
C128  C200  A    
O31   Zn8   S    
C31   C75   A    
C131  C163  A    
C65   Br41  S    
C103  C175  A    
C20   C74   S    
O8    Zn2   S    
C58   C90   A    
C69   Br45  S    
C170  C203  A    
C1    O7    A    
O4    Zn1   S    
C24   C78   S    
C18   O34   A    
C48   Br24  S    
O7    Zn2   S    
C40   C78   A    
C50   C128  A    
C28   C76   A    
C45   Br21  S    
C140  C212  A    
C68   Br44  S    
C54   C124  A    
C18   C76   S    
C214  H46   S    
C23   C75   S    
C44   C84   A    
C126  C160  A    
C4    O4    A    
C49   C125  A    
C114  C186  A    
C46   C116  A    
C51   C127  A    
C53   C121  A    
O14   Zn4   S    
C118  C190  A    
C37   Br13  S    
C188  C197  A    
C198  H30   S    
C150  C167  A    
C201  H33   S    
C27   C103  A    
C134  C164  A    
C178  C211  A    
C17   C81   S    
C38   C108  A    
C45   C113  A    
C11   O19   A    
C29   C73   A    
C110  C182  A    
C137  C209  A    
C21   O47   A    
C50   Br26  S    
O27   Zn7   S    
O40   Zn10  S    
C179  C194  A    
C140  C168  A    
C13   O25   A    
C21   C73   S    
C14   O30   A    
C42   C82   A    
C42   C120  A    
C132  C164  A    
O47   Zn12  S    
C128  C158  A    
C66   Br42  S    
C39   C107  A    
C169  C214  A    
C116  C188  A    
C196  H28   S    
C148  C161  A    
C176  C207  A    
C156  C157  A    
C119  C191  A    
O38   Zn10  S    
C7    O11   A    
C120  C192  A    
C99   C171  A    
C133  C205  A    
C97   C169  A    
C108  C180  A    
C192  C199  A    
C35   C79   A    
C207  H39   S    
C102  C148  A    
C209  H41   S    
C17   O39   A    
C181  H13   S    
C62   C92   A    
C19   O37   A    
C23   O45   A    
C62   Br38  S    
O42   Zn11  S    
O39   Zn10  S    
C25   C73   A    
C188  H20   S    
C199  H31   S    
C66   C94   A    
C59   Br35  S    
C43   Br19  S    
C41   C81   A    
C121  C157  A    
C16   O28   A    
C179  H11   S    
C33   Br9   S    
O36   Zn9   S    
C35   Br11  S    
C8    O16   A    
C61   C89   A    
C191  H23   S    
O6    Zn2   S    
C13   C77   S    
C153  C164  A    
C144  C166  A    
C186  C195  A    
C184  H16   S    
O13   Zn4   S    
C141  C213  A    
C71   C139  A    
C98   C146  A    
C49   Br25  S    
C60   Br36  S    
C182  C209  A    
C24   O44   A    
C109  C149  A    
C147  C166  A    
O25   Zn7   S    
C16   C82   S    
C9    O17   A    
C22   O46   A    
O43   Zn11  S    
C118  C156  A    
O44   Zn11  S    
C4    C94   S    
C202  H34   S    
C177  C198  A    
O22   Zn6   S    
C30   Br6   S    
C33   C109  A    
C206  H38   S    
C127  C159  A    
O29   Zn8   S    
C35   C111  A    
C59   C91   A    
C15   O29   A    
C119  C155  A    
C194  H26   S    
C115  C155  A    
C113  C153  A    
C133  C161  A    
C5    C93   S    
C58   Br34  S    
C102  C174  A    
C7    C95   S    
C146  C163  A    
C29   C97   A    
C22   C80   S    
C34   C78   A    
C126  C198  A    
C28   Br4   S    
C38   C80   A    
C100  C148  A    
C18   O38   A    
C65   C93   A    
C26   C74   A    
C19   O35   A    
C64   Br40  S    
C191  C208  A    
C178  H10   S    
C50   C86   A    
C125  C197  A    
C204  H36   S    
C28   C102  A    
O10   Zn3   S    
C1    O1    A    
C208  H40   S    
C187  H19   S    
C170  H2    S    
C58   C136  A    
