data_mof_unit_66444.cif
_audit_creation_date              2012-12-10T20:48:24-0500
_audit_creation_method            fapswitch 2.2
_symmetry_space_group_name_H-M    P1
_symmetry_Int_Tables_number       1
_space_group_crystal_system       triclinic
_cell_length_a                    16.03413
_cell_length_b                    19.195372
_cell_length_c                    19.228181
_cell_angle_alpha                 94.587846
_cell_angle_beta                  94.957911
_cell_angle_gamma                 90.461036
_cell_volume                      5876.36960178

loop_
_atom_site_label
_atom_site_type_symbol
_atom_type_description
_atom_site_fract_x
_atom_site_fract_y
_atom_site_fract_z
_atom_type_partial_charge
C1    C     C_R   0.508736 0.310521 0.493053 0.806680
C2    C     C_R   0.427433 0.803360 0.545118 -0.211648
C3    C     C_R   0.447665 0.119576 0.462584 -0.194069
C4    C     C_R   0.490718 0.689498 0.506486 0.808691
C5    C     C_R   0.446698 0.191708 0.458552 -0.210037
C6    C     C_R   0.513754 0.087897 0.501445 0.249385
C7    C     C_R   0.511376 0.233842 0.493259 -0.027266
C8    C     C_R   0.578012 0.202652 0.530902 -0.253428
C9    C     C_R   0.580461 0.130001 0.535296 -0.056311
C10   C     C_R   0.492003 0.487044 0.233193 -0.005915
C11   C     C_R   0.529777 0.540410 0.200570 -0.216082
C12   C     C_1   0.111093 0.482888 0.482966 0.013485
C13   C     C_R   0.532651 0.535387 0.128222 -0.162687
C14   C     C_R   0.497826 0.476483 0.086984 0.318489
C15   C     C_R   0.461219 0.422859 0.119698 -0.188975
C16   C     C_R   0.508649 0.508208 0.690117 0.797757
C17   C     C_R   0.457456 0.428275 0.192214 -0.209022
C18   C     C_R   0.541417 0.460550 0.877036 -0.161968
C19   C     C_R   0.543123 0.457263 0.804370 -0.219526
C20   C     C_R   0.508652 0.519653 0.913018 0.318883
C21   C     C_R   0.511264 0.512374 0.766833 -0.001875
C22   C     C_R   0.479916 0.571552 0.803034 -0.206968
C23   C     C_1   0.888937 0.517613 0.517567 0.016615
C24   C     C_R   0.479756 0.575393 0.875621 -0.187931
C25   C     C_R   0.491814 0.491886 0.309874 0.797910
C26   C     C_R   0.724102 0.509981 0.509953 0.817305
C27   C     C_R   0.275928 0.490124 0.490156 0.817711
C28   C     C_1   0.813649 0.514167 0.514131 -0.127207
C29   C     C_2   0.978883 0.521505 0.521444 -0.156934
C30   C     C_2   0.021149 0.479037 0.479141 -0.158549
C31   C     C_2   0.551982 0.905311 0.391077 0.419667
C32   C     C_2   0.652935 0.099842 0.576302 0.921322
C33   C     C_1   0.186381 0.486205 0.486261 -0.132601
C34   C     C_R   0.481355 0.765533 0.503033 -0.056616
C35   C     C_R   0.522966 0.799963 0.453943 -0.180796
C36   C     C_R   0.511428 0.871425 0.446554 -0.008342
C37   C     C_R   0.458739 0.909288 0.490888 0.228861
C38   C     C_R   0.416151 0.874637 0.538841 -0.157258
H1    H     H_    0.988390 0.441033 0.441287 0.162997
H2    H     H_    0.557289 0.586111 0.230985 0.174352
H3    H     H_    0.011626 0.559514 0.559302 0.163393
H4    H     H_    0.394727 0.214574 0.429039 0.169436
H5    H     H_    0.396847 0.088538 0.434691 0.160941
H6    H     H_    0.375170 0.903385 0.572327 0.154367
H7    H     H_    0.393861 0.777877 0.582764 0.170816
H8    H     H_    0.628231 0.235368 0.557521 0.205902
H9    H     H_    0.536216 0.958184 0.379323 0.081082
H10   H     H_    0.703666 0.016996 0.621922 0.350469
H11   H     H_    0.563083 0.770661 0.420081 0.206715
H12   H     H_    0.567824 0.411234 0.777460 0.168169
H13   H     H_    0.566003 0.417343 0.904999 0.154671
H14   H     H_    0.434865 0.377035 0.088763 0.147405
H15   H     H_    0.428728 0.386079 0.216269 0.167759
H16   H     H_    0.455800 0.615046 0.775222 0.165544
H17   H     H_    0.562886 0.577195 0.104741 0.156860
H18   H     H_    0.455546 0.621474 0.902825 0.147756
N1    N     N_2   0.449143 0.982336 0.489186 -0.214045
N2    N     N_2   0.517250 0.014159 0.504066 -0.133676
N3    N     N_2   0.499840 0.469077 0.013083 -0.198172
N4    N     N_2   0.505812 0.525984 0.986675 -0.200343
O1    O     O_3   0.500000 0.500000 0.500000 -0.478184
O2    O     O_R   0.688130 0.469010 0.547620 -0.631590
O3    O     O_R   0.315580 0.449250 0.449280 -0.634671
O4    O     O_R   0.680710 0.547310 0.468650 -0.631287
O5    O     O_R   0.315580 0.534430 0.534450 -0.634950
O6    O     O_2   0.603189 0.874302 0.357175 -0.562597
O7    O     O_2   0.715135 0.136064 0.595374 -0.625965
O8    O     O_R   0.650579 0.030622 0.594010 -0.779019
O9    O     O_R   0.456860 0.545290 0.655940 -0.644767
O10   O     O_R   0.446440 0.450430 0.339790 -0.644011
O11   O     O_R   0.557290 0.347960 0.537250 -0.643259
O12   O     O_R   0.539410 0.656320 0.467010 -0.644245
O13   O     O_R   0.456880 0.340240 0.450910 -0.644683
O14   O     O_R   0.446420 0.655480 0.544820 -0.644132
O15   O     O_R   0.557280 0.467820 0.657110 -0.640182
O16   O     O_R   0.539420 0.536460 0.347160 -0.643321
Zn1   Zn    Zn3+2 0.430910 0.557800 0.557800 0.976858
Zn2   Zn    Zn3+2 0.574380 0.447110 0.559460 0.985496
Zn3   Zn    Zn3+2 0.563780 0.559000 0.446630 0.984798
Zn4   Zn    Zn3+2 0.430930 0.436090 0.436110 0.976564

loop_
_geom_bond_atom_site_label_1
_geom_bond_atom_site_label_2
_ccdc_geom_bond_type
C31   O6    D    
C5    H4    S    
C16   C21   S    
C16   O15   A    
C6    N2    S    
O9    Zn1   S    
C35   C36   A    
O16   Zn3   S    
C3    C6    A    
C6    C9    A    
C7    C8    A    
C22   H16   S    
C27   C33   S    
C14   N3    S    
C3    H5    S    
C29   C30   D    
C23   C29   S    
C36   C37   A    
C19   C21   A    
C18   C19   A    
O12   Zn3   S    
C10   C17   A    
C34   C35   A    
C26   O4    A    
C9    C32   S    
C1    C7    S    
C20   C24   A    
O1    Zn1   S    
C8    C9    A    
O14   Zn1   S    
C35   H11   S    
C20   N4    S    
C4    O14   A    
C32   O8    S    
C12   C30   S    
C2    C34   A    
N3    N4    D    
C31   H9    S    
C13   C14   A    
C18   H13   S    
O3    Zn4   S    
C2    H7    S    
C4    C34   S    
O5    Zn1   S    
O10   Zn4   S    
C5    C7    A    
C23   C28   T    
C38   H6    S    
C37   C38   A    
C27   O5    A    
C2    C38   A    
O1    Zn2   S    
C1    O11   A    
C15   H14   S    
H10   O8    S    
C27   O3    A    
C32   O7    D    
C10   C25   S    
O4    Zn3   S    
C22   C24   A    
C17   H15   S    
C4    O12   A    
C15   C17   A    
C29   H3    S    
C14   C15   A    
O2    Zn2   S    
C16   O9    A    
C3    C5    A    
C24   H18   S    
C26   C28   S    
C25   O16   A    
C1    O13   A    
C26   O2    A    
C11   C13   A    
C19   H12   S    
N1    N2    D    
O1    Zn3   S    
O13   Zn4   S    
C30   H1    S    
C18   C20   A    
C11   H2    S    
O15   Zn2   S    
C8    H8    S    
C10   C11   A    
C31   C36   S    
C25   O10   A    
O1    Zn4   S    
C12   C33   T    
C21   C22   A    
O11   Zn2   S    
C37   N1    S    
C13   H17   S    
