data_mof_unit_51244.cif
_audit_creation_date              2012-10-26T20:02:29-0400
_audit_creation_method            fapswitch 2.2
_symmetry_space_group_name_H-M    P1
_symmetry_Int_Tables_number       1
_space_group_crystal_system       triclinic
_cell_length_a                    18.714352
_cell_length_b                    18.82529
_cell_length_c                    12.538511
_cell_angle_alpha                 90.115359
_cell_angle_beta                  130.93329
_cell_angle_gamma                 90.222811
_cell_volume                      3337.10705094

loop_
_atom_site_label
_atom_site_type_symbol
_atom_type_description
_atom_site_fract_x
_atom_site_fract_y
_atom_site_fract_z
_atom_type_partial_charge
C1    C     C_R   0.614336 0.899391 0.654830 0.628459
C2    C     C_R   0.658116 0.723426 0.004376 -0.058783
C3    C     C_R   0.158329 0.766757 0.019885 -0.063449
C4    C     C_R   0.157431 0.222645 0.002926 -0.057900
C5    C     C_R   0.581170 0.231942 0.905242 -0.106815
C6    C     C_R   0.578484 0.745210 0.870456 -0.089106
C7    C     C_R   0.076434 0.736969 0.896521 -0.102918
C8    C     C_R   0.078241 0.244266 0.868421 -0.087807
C9    C     C_R   0.579015 0.207025 0.798152 0.279048
C10   C     C_R   0.587102 0.780852 0.782004 0.270108
C11   C     C_R   0.076140 0.709163 0.792783 0.274445
C12   C     C_R   0.610574 0.103590 0.649844 0.611655
C13   C     C_R   0.087656 0.280384 0.781158 0.270362
C14   C     C_R   0.323628 0.801816 0.169031 0.197193
C15   C     C_R   0.326903 0.200901 0.178797 0.217829
C16   C     C_R   0.826743 0.300737 0.171911 0.198135
C17   C     C_R   0.827415 0.700794 0.178041 0.217905
C18   C     C_R   0.229228 0.836888 0.230269 0.217895
C19   C     C_R   0.218235 0.145338 0.199559 0.201783
C20   C     C_R   0.734768 0.330930 0.239611 0.221671
C21   C     C_R   0.719586 0.647185 0.202540 0.201982
C22   C     C_R   0.670256 0.167926 0.728297 0.021568
C23   C     C_R   0.114942 0.399689 0.655648 0.629263
C24   C     C_R   0.687715 0.846700 0.753482 0.041734
C25   C     C_R   0.169235 0.668557 0.727008 0.022603
C26   C     C_R   0.189262 0.347487 0.755722 0.039797
C27   C     C_R   0.691628 0.991714 0.298431 0.231429
C28   C     C_R   0.191402 0.492294 0.297713 0.233806
C29   C     C_R   0.339976 0.999322 0.621953 0.053931
C30   C     C_R   0.839928 0.498778 0.621629 0.056733
C31   C     C_R   0.302740 0.986542 0.686117 0.277535
C32   C     C_R   0.802589 0.485911 0.685622 0.278867
C33   C     C_R   0.383100 0.098602 0.342066 0.560914
C34   C     C_R   0.110274 0.603776 0.649450 0.612679
C35   C     C_R   0.384549 0.899708 0.344280 0.556030
C36   C     C_R   0.883471 0.598905 0.342500 0.561198
C37   C     C_R   0.885440 0.399092 0.345447 0.556983
C38   C     C_R   0.362687 0.976171 0.831908 0.312457
C39   C     C_R   0.862425 0.475761 0.831474 0.312337
C40   C     C_R   0.461889 0.989415 0.918763 -0.064085
C41   C     C_R   0.961635 0.489049 0.918480 -0.063575
C42   C     C_R   0.497795 0.995457 0.846347 0.150506
C43   C     C_R   0.997650 0.495290 0.846228 0.150986
C44   C     C_R   0.527089 0.993235 0.073145 -0.022967
C45   C     C_R   0.242437 0.771131 0.041176 0.065175
C46   C     C_R   0.026808 0.492797 0.072859 -0.022631
C47   C     C_R   0.625143 0.988163 0.149596 -0.083254
C48   C     C_R   0.124833 0.487808 0.149128 -0.083249
C49   C     C_R   0.657247 0.981510 0.077788 -0.141174
C50   C     C_R   0.156918 0.480803 0.077377 -0.141131
C51   C     C_R   0.598856 0.992708 0.933250 0.278296
C52   C     C_R   0.098661 0.492367 0.933055 0.278479
C53   C     C_R   0.500246 0.003994 0.155867 0.336141
C54   C     C_R   0.000039 0.503497 0.155750 0.336627
C55   C     C_R   0.660151 0.995874 0.371921 0.442690
C56   C     C_R   0.249923 0.237405 0.055226 0.062672
C57   C     C_R   0.160104 0.497146 0.371327 0.444620
C58   C     C_R   0.661576 0.288184 0.130376 -0.086145
C59   C     C_R   0.644768 0.683016 0.083261 -0.079763
C60   C     C_R   0.154844 0.795673 0.118925 -0.080597
C61   C     C_R   0.143503 0.181210 0.080138 -0.080219
C62   C     C_R   0.312979 0.843953 0.251294 0.009314
C63   C     C_R   0.309662 0.151445 0.244931 0.026298
C64   C     C_R   0.816141 0.341629 0.255474 0.010384
C65   C     C_R   0.810536 0.652144 0.245850 0.025389
C66   C     C_R   0.740376 0.188957 0.722331 0.237344
C67   C     C_R   0.745834 0.268894 0.045451 0.066409
C68   C     C_R   0.777062 0.853419 0.793104 0.215322
C69   C     C_R   0.239222 0.690025 0.721046 0.237954
C70   C     C_R   0.279516 0.355662 0.797918 0.220416
C71   C     C_R   0.306946 0.741825 0.817458 0.237382
C72   C     C_R   0.360068 0.339107 0.938010 0.223040
C73   C     C_R   0.807842 0.241082 0.817868 0.237356
C74   C     C_R   0.858044 0.842243 0.935315 0.211768
C75   C     C_R   0.312216 0.763407 0.928375 -0.014123
C76   C     C_R   0.348276 0.310707 0.027636 -0.034601
C77   C     C_R   0.813407 0.262942 0.928951 -0.015066
C78   C     C_R   0.750320 0.737243 0.054681 0.062569
C79   C     C_R   0.847974 0.810248 0.024718 -0.030056
C80   C     C_R   0.743673 0.243899 0.935947 -0.024754
C81   C     C_R   0.759900 0.782626 0.973177 -0.038533
C82   C     C_R   0.241514 0.744992 0.933582 -0.023943
C83   C     C_R   0.259985 0.283394 0.974977 -0.040481
C84   C     C_R   0.663869 0.204931 0.820910 0.001853
C85   C     C_R   0.677555 0.803599 0.835540 0.000682
C86   C     C_R   0.161917 0.706014 0.818199 0.002034
C87   C     C_R   0.178300 0.303795 0.836406 0.000424
C88   C     C_R   0.663334 0.261785 0.028025 -0.065872
Cl1   Cl    Cl    0.210633 0.879205 0.335563 -0.492272
Cl2   Cl    Cl    0.189291 0.085887 0.274406 -0.522523
Cl3   Cl    Cl    0.717853 0.370109 0.349257 -0.496324
Cl4   Cl    Cl    0.691073 0.589405 0.280117 -0.523493
Cl5   Cl    Cl    0.179693 0.975250 0.579062 -0.403587
Cl6   Cl    Cl    0.679585 0.474155 0.578284 -0.400975
Cl7   Cl    Cl    0.745449 0.004994 0.555914 -0.414833
Cl8   Cl    Cl    0.245293 0.510396 0.553696 -0.434269
Cu1   Cu    Cu3+1 0.526340 0.000000 0.421010 1.117324
Cu2   Cu    Cu3+1 0.026340 0.500000 0.421010 1.116560
Cu3   Cu    Cu3+1 0.473640 0.000000 0.578990 1.100330
Cu4   Cu    Cu3+1 0.973640 0.500000 0.578990 1.101343
H1    H     H_    0.731540 0.971880 0.135997 0.140938
H2    H     H_    0.574153 0.674889 0.046037 0.186059
H3    H     H_    0.091539 0.789864 0.104835 0.214866
H4    H     H_    0.072608 0.172209 0.041301 0.184717
H5    H     H_    0.367514 0.800741 0.001305 0.206065
H6    H     H_    0.410334 0.310534 0.137878 0.236191
H7    H     H_    0.868576 0.300470 0.001137 0.206979
H8    H     H_    0.910034 0.810590 0.135062 0.234596
H9    H     H_    0.801130 0.028461 0.331747 0.332878
H10   H     H_    0.300132 0.529603 0.329373 0.333315
H11   H     H_    0.387568 0.001090 0.129626 0.369195
H12   H     H_    0.231190 0.471014 0.135606 0.141522
H13   H     H_    0.887475 0.500766 0.129906 0.369767
H14   H     H_    0.372269 0.914578 0.962836 0.322588
H15   H     H_    0.871855 0.414325 0.962439 0.322957
H16   H     H_    0.713588 0.002745 0.956765 0.305636
H17   H     H_    0.213469 0.502417 0.956769 0.306326
H18   H     H_    0.460120 0.793367 0.320815 0.359926
H19   H     H_    0.462715 0.205416 0.329431 0.348090
H20   H     H_    0.963673 0.294496 0.321495 0.360250
H21   H     H_    0.963424 0.704753 0.327010 0.348537
H22   H     H_    0.806901 0.160376 0.658676 0.349480
H23   H     H_    0.293225 0.003134 0.508870 0.242455
H24   H     H_    0.844105 0.855755 0.723909 0.345340
H25   H     H_    0.304812 0.662671 0.655332 0.351074
H26   H     H_    0.349782 0.404978 0.755078 0.372172
H27   H     H_    0.339129 0.773344 0.706349 0.347695
H28   H     H_    0.455463 0.340819 0.921270 0.321356
H29   H     H_    0.839830 0.271645 0.706028 0.349999
H30   H     H_    0.940622 0.903353 0.932009 0.363737
H31   H     H_    0.441321 0.196966 0.667403 0.337394
H32   H     H_    0.451410 0.771679 0.621434 0.335106
H33   H     H_    0.938494 0.698491 0.659999 0.335663
H34   H     H_    0.793247 0.502023 0.508402 0.240639
H35   H     H_    0.952388 0.270598 0.618929 0.336339
H36   H     H_    0.516905 0.231044 0.889601 0.107878
H37   H     H_    0.508957 0.729494 0.830235 0.148125
H38   H     H_    0.011126 0.738096 0.878038 0.120451
H39   H     H_    0.008552 0.227935 0.826737 0.146273
H40   H     H_    0.600301 0.279307 0.120529 0.202373
N1    N     N_R   0.566260 0.000000 0.302220 -0.270755
N2    N     N_R   0.066260 0.500000 0.302220 -0.268904
N3    N     N_R   0.434410 1.000000 0.697680 -0.268830
N4    N     N_R   0.934410 0.500000 0.697680 -0.268524
O1    O     O_R   0.608610 0.924520 0.551740 -0.431766
O2    O     O_R   0.435880 0.924530 0.314850 -0.540591
O3    O     O_R   0.935880 0.575470 0.314850 -0.481704
O4    O     O_R   0.935880 0.424530 0.314850 -0.540564
O5    O     O_R   0.391380 0.075460 0.448260 -0.457856
O6    O     O_R   0.391380 0.924540 0.448260 -0.444742
O7    O     O_R   0.891380 0.575460 0.448260 -0.456937
O8    O     O_R   0.891380 0.424540 0.448260 -0.444978
O9    O     O_3   0.788052 0.992812 0.375219 -0.627421
O10   O     O_3   0.287777 0.494190 0.374092 -0.625856
O11   O     O_3   0.410532 0.027457 0.089355 -0.613759
O12   O     O_R   0.608610 0.075480 0.551740 -0.416226
O13   O     O_3   0.910288 0.526885 0.089212 -0.613461
O14   O     O_3   0.322951 0.943964 0.880922 -0.602329
O15   O     O_3   0.822583 0.443662 0.880409 -0.601286
O16   O     O_3   0.643662 0.001722 0.881353 -0.654781
O17   O     O_3   0.143538 0.501759 0.881351 -0.654460
O18   O     O_3   0.412588 0.785919 0.217197 -0.697513
O19   O     O_3   0.416751 0.206632 0.224723 -0.669867
O20   O     O_3   0.915617 0.287038 0.217917 -0.698805
O21   O     O_3   0.916858 0.706021 0.222318 -0.669219
O22   O     O_3   0.741601 0.158489 0.623374 -0.629466
O23   O     O_R   0.108610 0.424520 0.551740 -0.433324
O24   O     O_3   0.783080 0.872625 0.693377 -0.622996
O25   O     O_3   0.239690 0.660625 0.620691 -0.628088
O26   O     O_3   0.286326 0.383875 0.703734 -0.626952
O27   O     O_3   0.369016 0.772833 0.807022 -0.726829
O28   O     O_3   0.451046 0.353145 0.993546 -0.663110
O29   O     O_3   0.869613 0.271956 0.806670 -0.725403
O30   O     O_3   0.946881 0.865949 0.993052 -0.680260
O31   O     O_3   0.493272 0.192433 0.665514 -0.670151
O32   O     O_3   0.508635 0.790407 0.640996 -0.688830
O33   O     O_3   0.991269 0.692991 0.660192 -0.672737
O34   O     O_R   0.108610 0.575480 0.551740 -0.414707
O35   O     O_3   0.009858 0.289745 0.639719 -0.689664
O36   O     O_R   0.564110 0.924510 0.685150 -0.430329
O37   O     O_R   0.564110 0.075490 0.685150 -0.417293
O38   O     O_R   0.064110 0.424510 0.685150 -0.430334
O39   O     O_R   0.064110 0.575490 0.685150 -0.417066
O40   O     O_R   0.435880 0.075470 0.314850 -0.481019

loop_
_geom_bond_atom_site_label_1
_geom_bond_atom_site_label_2
_ccdc_geom_bond_type
C27   O9    S    
C5    H36   S    
C83   C87   A    
C10   C85   A    
C14   O18   S    
C8    C13   A    
C55   N1    A    
Cu1   O2    S    
C1    O1    A    
C45   C82   A    
H30   O30   S    
C80   C84   A    
C82   C86   A    
C39   C41   A    
C28   C57   A    
Cu4   O8    S    
C7    C11   A    
Cu3   O5    S    
C67   C88   A    
C57   N2    A    
C56   C83   A    
C8    H39   S    
H22   O22   S    
C72   O28   S    
Cu3   N3    S    
C21   C59   A    
C3    C7    A    
C49   H1    S    
C1    O36   A    
C27   C55   A    
C43   C52   A    
C32   C39   A    
Cu2   O3    S    
C11   C86   A    
C68   C74   A    
C14   C62   A    
C12   C22   S    
C51   O16   S    
C30   N4    A    
C69   C71   A    
H32   O32   S    
Cu1   O12   S    
H31   O31   S    
C23   C26   S    
Cu4   O39   S    
C73   C77   A    
H14   O14   S    
H24   O24   S    
C5    C88   A    
C44   C53   A    
C22   C66   A    
C19   C63   A    
C26   C87   A    
C30   H34   S    
C57   Cl8   S    
C50   C52   A    
C41   C46   A    
C11   O33   S    
C35   O6    A    
C30   C32   A    
C60   H3    S    
H9    O9    S    
C32   Cl6   S    
H18   O18   S    
Cu2   O23   S    
C44   C47   A    
C4    C8    A    
C52   O17   S    
C21   C65   A    
C3    C60   A    
C40   C42   A    
H11   O11   S    
Cu2   N2    S    
C28   O10   S    
C41   C43   A    
H29   O29   S    
C43   N4    A    
C2    C6    A    
C12   O12   A    
C76   C83   A    
Cu1   Cu3   S    
C14   C45   A    
Cu4   O7    S    
C10   O32   S    
Cu3   O6    S    
C46   C48   A    
C71   C75   A    
C66   O22   S    
C77   H7    S    
C61   H4    S    
C38   O14   S    
C23   O38   A    
C55   Cl7   S    
Cu4   N4    S    
H19   O19   S    
C79   C81   A    
C24   C68   A    
C2    C59   A    
C18   C62   A    
C49   C51   A    
C31   Cl5   S    
C66   C73   A    
C4    C61   A    
C3    C45   A    
C16   O20   S    
H15   O15   S    
C35   O2    A    
C22   C84   A    
C20   C64   A    
C5    C9    A    
H10   O10   S    
C36   O3    A    
C12   O37   A    
C33   C63   S    
C13   C87   A    
C33   O40   A    
C50   H12   S    
C34   O39   A    
C75   C82   A    
C16   C67   A    
C69   O25   S    
C59   H2    S    
Cu1   N1    S    
C23   O23   A    
C68   O24   S    
C18   C60   A    
C54   N2    A    
C46   C54   A    
H28   O28   S    
Cu2   Cu4   S    
C74   C79   A    
H16   O16   S    
C26   C70   A    
C71   O27   S    
C34   O34   A    
C25   C69   A    
C37   O8    A    
C20   C58   A    
C37   C64   S    
H25   O25   S    
C2    C78   A    
Cu1   O40   S    
Cu2   O34   S    
C24   C85   A    
C77   C80   A    
C58   H40   S    
C28   C48   A    
C76   H6    S    
Cu4   O38   S    
C39   O15   S    
C36   C65   S    
C18   Cl1   S    
Cu1   O1    S    
C67   C80   A    
C58   C88   A    
C6    C10   A    
C7    H38   S    
C70   C72   A    
C36   O7    A    
C74   O30   S    
C42   C51   A    
C47   C49   A    
H21   O21   S    
C25   C34   S    
C17   C65   A    
C27   C47   A    
C31   C38   A    
H17   O17   S    
C15   C56   A    
C6    H37   S    
C70   O26   S    
H35   O35   S    
Cu3   O36   S    
C29   C31   A    
C19   Cl2   S    
C13   O35   S    
C54   O13   S    
C38   C40   A    
C78   C81   A    
H33   O33   S    
C25   C86   A    
Cu2   O4    S    
C19   C61   A    
C72   C76   A    
C29   H23   S    
C48   C50   A    
C17   C78   A    
C33   O5    A    
C79   H8    S    
C9    O31   S    
C35   C62   S    
C53   N1    A    
C37   O4    A    
C73   O29   S    
C81   C85   A    
Cu3   O37   S    
H20   O20   S    
C9    C84   A    
C20   Cl3   S    
C40   C44   A    
C1    C24   S    
C42   N3    A    
C15   C63   A    
C17   O21   S    
H26   O26   S    
C16   C64   A    
C75   H5    S    
H13   O13   S    
H27   O27   S    
C53   O11   S    
C15   O19   S    
C4    C56   A    
C21   Cl4   S    
C29   N3    A    
