data_mof_unit_46837.cif
_audit_creation_date              2012-12-11T14:07:43-0500
_audit_creation_method            fapswitch 2.2
_symmetry_space_group_name_H-M    P1
_symmetry_Int_Tables_number       1
_space_group_crystal_system       triclinic
_cell_length_a                    19.772831
_cell_length_b                    17.058916
_cell_length_c                    15.399487
_cell_angle_alpha                 89.806441
_cell_angle_beta                  53.66671
_cell_angle_gamma                 89.827121
_cell_volume                      4184.41395024

loop_
_atom_site_label
_atom_site_type_symbol
_atom_type_description
_atom_site_fract_x
_atom_site_fract_y
_atom_site_fract_z
_atom_type_partial_charge
C1    C     C_R   0.341271 0.175853 0.047404 -0.040068
C2    C     C_R   0.647770 0.815003 0.077196 0.061788
C3    C     C_R   0.205341 0.650995 0.993014 0.058306
C4    C     C_R   0.147770 0.315003 0.077196 0.061790
C5    C     C_R   0.613781 0.817784 0.692848 0.124642
C6    C     C_R   0.599905 0.183992 0.699524 0.105981
C7    C     C_R   0.113786 0.317784 0.692848 0.124655
C8    C     C_R   0.099904 0.683992 0.699525 0.105992
C9    C     C_3   0.275828 0.160907 0.508015 0.369802
C10   C     C_3   0.194338 0.868787 0.520553 0.401868
C11   C     C_3   0.775805 0.660898 0.508005 0.369783
C12   C     C_R   0.375984 0.802455 0.995765 -0.131785
C13   C     C_3   0.694333 0.368786 0.520550 0.401835
C14   C     C_3   0.196407 0.193984 0.610986 0.253819
C15   C     C_3   0.128897 0.820863 0.621601 0.360773
C16   C     C_3   0.696384 0.693977 0.610974 0.253753
C17   C     C_3   0.628894 0.320861 0.621599 0.360791
C18   C     C_3   0.335220 0.297725 0.428656 0.119304
C19   C     C_3   0.301765 0.754803 0.440698 0.174299
C20   C     C_3   0.835227 0.797714 0.428677 0.119302
C21   C     C_3   0.801766 0.254806 0.440700 0.174306
C22   C     C_3   0.732275 0.733544 0.403354 0.212250
C23   C     C_R   0.841271 0.675853 0.047405 -0.040055
C24   C     C_3   0.688489 0.262416 0.410654 0.186802
C25   C     C_3   0.232263 0.233512 0.403374 0.212227
C26   C     C_3   0.188486 0.762420 0.410657 0.186802
C27   C     C_3   0.307902 0.217846 0.410052 -0.162426
C28   C     C_3   0.249713 0.812771 0.421730 -0.257677
C29   C     C_3   0.807901 0.717850 0.410049 -0.162417
C30   C     C_3   0.749712 0.312770 0.421729 -0.257669
C31   C     C_3   0.681090 0.779974 0.590192 -0.201094
C32   C     C_3   0.649704 0.230925 0.598557 -0.302360
C33   C     C_3   0.181093 0.279971 0.590195 -0.201115
C34   C     C_R   0.875984 0.302455 0.995764 -0.131793
C35   C     C_3   0.149703 0.730927 0.598558 -0.302372
C36   C     C_3   0.763916 0.829602 0.541068 0.103319
C37   C     C_3   0.743973 0.214925 0.551285 0.105957
C38   C     C_3   0.263913 0.329614 0.541048 0.103337
C39   C     C_3   0.243973 0.714923 0.551284 0.105965
C40   C     C_R   0.352176 0.826093 0.218769 -0.240292
C41   C     C_R   0.394697 0.198494 0.209596 -0.224428
C42   C     C_R   0.852176 0.326093 0.218768 -0.240282
C43   C     C_R   0.894700 0.698495 0.209594 -0.224403
C44   C     C_3   0.659276 0.777456 0.506699 0.814531
C45   C     C_R   0.633545 0.894329 0.105342 -0.219606
C46   C     C_3   0.635596 0.206190 0.510640 0.867332
C47   C     C_3   0.159263 0.277425 0.506719 0.814533
C48   C     C_3   0.135593 0.706195 0.510643 0.867333
C49   C     C_2   0.276471 0.689605 0.977019 -0.164369
C50   C     C_2   0.189750 0.257670 0.100432 -0.140215
C51   C     C_2   0.776471 0.189605 0.977019 -0.164361
C52   C     C_2   0.689750 0.757670 0.100433 -0.140216
C53   C     C_2   0.811951 0.250648 0.909401 -0.074745
C54   C     C_2   0.716962 0.690143 0.044402 -0.130827
C55   C     C_2   0.311950 0.750648 0.909401 -0.074740
C56   C     C_R   0.666968 0.083845 0.055476 -0.178133
C57   C     C_2   0.216963 0.190143 0.044401 -0.130842
C58   C     C_R   0.366504 0.887796 0.895903 -0.107927
C59   C     C_R   0.330596 0.087817 0.950202 -0.110828
C60   C     C_R   0.866504 0.387796 0.895903 -0.107920
C61   C     C_R   0.830596 0.587817 0.950203 -0.110824
C62   C     C_R   0.411372 0.110194 0.299796 0.673002
C63   C     C_R   0.361612 0.917199 0.314828 0.532358
C64   C     C_R   0.911370 0.610195 0.299797 0.672971
C65   C     C_R   0.861610 0.417200 0.314827 0.532366
C66   C     C_R   0.289625 0.149495 0.021897 0.075498
C67   C     C_R   0.133545 0.394329 0.105342 -0.219604
C68   C     C_R   0.348714 0.811680 0.933301 0.116307
C69   C     C_R   0.789625 0.649495 0.021897 0.075499
C70   C     C_R   0.848714 0.311680 0.933301 0.116306
C71   C     C_R   0.311321 0.856898 0.321975 0.095511
C72   C     C_R   0.380438 0.184169 0.307106 0.048167
C73   C     C_R   0.811320 0.356898 0.321974 0.095478
C74   C     C_R   0.880439 0.684172 0.307104 0.048182
C75   C     C_R   0.653928 0.183815 0.969069 0.502242
C76   C     C_R   0.616161 0.798806 0.020480 0.522132
C77   C     C_R   0.153927 0.683815 0.969070 0.502238
C78   C     C_R   0.166968 0.583845 0.055477 -0.178145
C79   C     C_R   0.116161 0.298806 0.020480 0.522119
C80   C     C_R   0.600000 0.801891 0.791077 0.511641
C81   C     C_R   0.594593 0.199105 0.792584 0.526694
C82   C     C_R   0.100002 0.301891 0.791078 0.511609
C83   C     C_R   0.094592 0.699105 0.792585 0.526687
C84   C     C_R   0.587664 0.105015 0.699025 -0.178690
C85   C     C_R   0.593741 0.895620 0.695580 -0.205027
C86   C     C_R   0.087664 0.605015 0.699025 -0.178692
C87   C     C_R   0.093744 0.395620 0.695578 -0.204997
C88   C     C_R   0.705342 0.150995 0.993013 0.058296
H1    H     H_    0.332744 0.226174 0.094911 0.089386
H2    H     H_    0.389404 0.254307 0.180696 0.127464
H3    H     H_    0.835677 0.274819 0.194642 0.122662
H4    H     H_    0.889412 0.754308 0.180688 0.127456
H5    H     H_    0.752580 0.891024 0.528442 0.156442
H6    H     H_    0.756093 0.150784 0.538130 0.169539
H7    H     H_    0.252566 0.391030 0.528417 0.156433
H8    H     H_    0.256090 0.650782 0.538129 0.169545
H9    H     H_    0.576737 0.073289 0.648083 0.201170
H10   H     H_    0.593478 0.929062 0.636290 0.191745
H11   H     H_    0.076738 0.573289 0.648083 0.201166
H12   H     H_    0.386198 0.747748 0.021932 0.104938
H13   H     H_    0.093488 0.429060 0.636282 0.191713
H14   H     H_    0.257753 0.049496 0.539954 0.332241
H15   H     H_    0.196133 0.967243 0.454145 0.367701
H16   H     H_    0.757699 0.549487 0.539926 0.332241
H17   H     H_    0.696126 0.467229 0.454120 0.367679
H18   H     H_    0.626581 0.602254 0.687904 0.328031
H19   H     H_    0.507686 0.318725 0.729823 0.344442
H20   H     H_    0.126624 0.102255 0.687937 0.328041
H21   H     H_    0.007688 0.818731 0.729823 0.344447
H22   H     H_    0.207969 0.192751 0.673459 0.059238
H23   H     H_    0.832743 0.726173 0.094912 0.089385
H24   H     H_    0.133407 0.842779 0.685191 0.022850
H25   H     H_    0.707937 0.692724 0.673454 0.059237
H26   H     H_    0.633404 0.342779 0.685189 0.022842
H27   H     H_    0.412562 0.254904 0.457798 0.328711
H28   H     H_    0.355739 0.828521 0.479971 0.359493
H29   H     H_    0.912536 0.754867 0.457857 0.328707
H30   H     H_    0.855734 0.328527 0.479975 0.359494
H31   H     H_    0.802080 0.783028 0.622556 0.321814
H32   H     H_    0.751720 0.291141 0.640978 0.300171
H33   H     H_    0.302115 0.283068 0.622507 0.321826
H34   H     H_    0.886198 0.247748 0.021932 0.104936
H35   H     H_    0.251723 0.791137 0.640976 0.300169
H36   H     H_    0.754432 0.771902 0.332376 0.002654
H37   H     H_    0.724665 0.224867 0.337620 0.027768
H38   H     H_    0.254404 0.271859 0.332392 0.002671
H39   H     H_    0.224659 0.724872 0.337622 0.027765
H40   H     H_    0.680620 0.674284 0.348607 0.320835
H41   H     H_    0.669379 0.331166 0.325857 0.337384
H42   H     H_    0.180599 0.174220 0.348664 0.320848
H43   H     H_    0.169376 0.831174 0.325864 0.337384
H44   H     H_    0.564771 0.745427 0.505875 0.347075
H45   H     H_    0.343345 0.339464 0.367352 0.112640
H46   H     H_    0.541130 0.189780 0.503758 0.348551
H47   H     H_    0.064753 0.245366 0.505924 0.347076
H48   H     H_    0.041125 0.689789 0.503763 0.348556
H49   H     H_    0.704584 0.879264 0.430538 0.266923
H50   H     H_    0.721645 0.122783 0.427725 0.266261
H51   H     H_    0.204548 0.379230 0.430537 0.266917
H52   H     H_    0.221639 0.622786 0.427724 0.266260
H53   H     H_    0.289145 0.675561 0.034834 0.123716
H54   H     H_    0.210678 0.276889 0.147949 0.119596
H55   H     H_    0.789145 0.175561 0.034833 0.123716
H56   H     H_    0.326705 0.708340 0.378169 0.110456
H57   H     H_    0.710678 0.776889 0.147949 0.119588
H58   H     H_    0.801018 0.262671 0.849389 0.188535
H59   H     H_    0.697839 0.670837 0.995280 0.199673
H60   H     H_    0.301017 0.762671 0.849389 0.188534
H61   H     H_    0.197840 0.170838 0.995279 0.199673
H62   H     H_    0.362620 0.912853 0.834356 0.112499
H63   H     H_    0.309868 0.054436 0.910381 0.114662
H64   H     H_    0.862620 0.412853 0.834356 0.112500
H65   H     H_    0.809868 0.554436 0.910381 0.114664
H66   H     H_    0.456895 0.134019 0.378389 0.306880
H67   H     H_    0.843370 0.839465 0.367373 0.112652
H68   H     H_    0.417922 0.954556 0.372228 0.362929
H69   H     H_    0.956893 0.634017 0.378390 0.306892
H70   H     H_    0.917918 0.454554 0.372232 0.362935
H71   H     H_    0.590052 0.274767 0.988100 0.339946
H72   H     H_    0.532245 0.738671 0.024548 0.349429
H73   H     H_    0.090051 0.774767 0.988102 0.339942
H74   H     H_    0.032245 0.238671 0.024548 0.349429
H75   H     H_    0.544484 0.703134 0.822851 0.339912
H76   H     H_    0.621289 0.296225 0.822609 0.330716
H77   H     H_    0.044470 0.203143 0.822864 0.339931
H78   H     H_    0.826708 0.208342 0.378170 0.110453
H79   H     H_    0.121288 0.796224 0.822613 0.330715
H80   H     H_    0.639904 0.921819 0.163318 0.144187
H81   H     H_    0.687580 0.049369 0.094774 0.138151
H82   H     H_    0.139904 0.421819 0.163318 0.144185
H83   H     H_    0.187580 0.549369 0.094774 0.138150
H84   H     H_    0.324679 0.155824 0.522135 -0.035049
H85   H     H_    0.233357 0.898427 0.540504 0.042512
H86   H     H_    0.824649 0.655792 0.522135 -0.034976
H87   H     H_    0.733350 0.398431 0.540502 0.042508
H88   H     H_    0.335676 0.774819 0.194643 0.122663
N1    N     N_R   0.408680 0.130160 0.995800 -0.043696
N2    N     N_R   0.403730 0.078230 0.935950 -0.051829
N3    N     N_R   0.903730 0.421770 0.935950 -0.050303
N4    N     N_R   0.903730 0.578230 0.935950 -0.051830
N5    N     N_R   0.426630 0.075970 0.212960 -0.089111
N6    N     N_R   0.426630 0.924030 0.212960 -0.101357
N7    N     N_R   0.926630 0.575970 0.212960 -0.089103
N8    N     N_R   0.926630 0.424030 0.212960 -0.101351
N9    N     N_R   0.591320 0.134600 0.004200 -0.113598
N10   N     N_R   0.591320 0.865400 0.004200 -0.106415
N11   N     N_R   0.091320 0.634600 0.004200 -0.113599
N12   N     N_R   0.408680 0.869840 0.995800 -0.047459
N13   N     N_R   0.091320 0.365400 0.004200 -0.106416
N14   N     N_R   0.578320 0.867660 0.846880 -0.078499
N15   N     N_R   0.578320 0.132340 0.846880 -0.082725
N16   N     N_R   0.078320 0.367660 0.846880 -0.078507
N17   N     N_R   0.078320 0.632340 0.846880 -0.082723
N18   N     N_R   0.573370 0.074390 0.787040 -0.078477
N19   N     N_R   0.573370 0.925610 0.787040 -0.070540
N20   N     N_R   0.073370 0.574390 0.787040 -0.078474
N21   N     N_R   0.073370 0.425610 0.787040 -0.070536
N22   N     N_R   0.596270 0.927870 0.064040 -0.062633
N23   N     N_R   0.908680 0.630160 0.995800 -0.043698
N24   N     N_R   0.596270 0.072130 0.064040 -0.064775
N25   N     N_R   0.096270 0.427870 0.064040 -0.062632
N26   N     N_R   0.096270 0.572130 0.064040 -0.064778
N27   N     N_R   0.908680 0.369840 0.995800 -0.047457
N28   N     N_R   0.421680 0.867580 0.153120 -0.073583
N29   N     N_R   0.421680 0.132420 0.153120 -0.076604
N30   N     N_R   0.921680 0.367580 0.153120 -0.073583
N31   N     N_R   0.921680 0.632420 0.153120 -0.076601
N32   N     N_R   0.403730 0.921770 0.935950 -0.050304
Ni1   Ni    Ni4+2 0.500000 0.131190 0.000000 0.243806
Ni2   Ni    Ni4+2 0.500000 0.868810 0.000000 0.239149
Ni3   Ni    Ni4+2 0.000000 0.631190 0.000000 0.243806
Ni4   Ni    Ni4+2 0.000000 0.368810 0.000000 0.239145
Ni5   Ni    Ni4+2 0.488650 0.000000 0.862740 0.218949
Ni6   Ni    Ni4+2 0.988650 0.500000 0.862740 0.218955
Ni7   Ni    Ni4+2 0.511350 0.000000 0.137260 0.251608
Ni8   Ni    Ni4+2 0.011350 0.500000 0.137260 0.251609
O1    O     O_3   0.259513 0.085499 0.487823 -0.637021
O2    O     O_3   0.373652 0.787598 0.425033 -0.665065
O3    O     O_3   0.913714 0.795726 0.411373 -0.642912
O4    O     O_3   0.873650 0.287604 0.425036 -0.665072
O5    O     O_3   0.787113 0.835610 0.611609 -0.658247
O6    O     O_3   0.764004 0.234945 0.622503 -0.693894
O7    O     O_3   0.287123 0.335642 0.611575 -0.658242
O8    O     O_3   0.264005 0.734941 0.622501 -0.693887
O9    O     O_3   0.704362 0.662261 0.388721 -0.616909
O10   O     O_3   0.635484 0.310817 0.400867 -0.602278
O11   O     O_3   0.204357 0.162215 0.388765 -0.616930
O12   O     O_3   0.154079 0.926406 0.500208 -0.581001
O13   O     O_3   0.135482 0.810826 0.400874 -0.602260
O14   O     O_3   0.582659 0.737529 0.553468 -0.614457
O15   O     O_3   0.549502 0.212409 0.556113 -0.644304
O16   O     O_3   0.082652 0.237484 0.553508 -0.614469
O17   O     O_3   0.049498 0.712416 0.556118 -0.644294
O18   O     O_3   0.649150 0.853672 0.479245 -0.812129
O19   O     O_3   0.659757 0.127393 0.477136 -0.820993
O20   O     O_3   0.149119 0.353633 0.479260 -0.812116
O21   O     O_3   0.159751 0.627397 0.477137 -0.821001
O22   O     O_3   0.452922 0.088027 0.342719 -0.787396
O23   O     O_3   0.759481 0.585501 0.487791 -0.637014
O24   O     O_3   0.358853 0.949372 0.398066 -0.788849
O25   O     O_3   0.952912 0.588024 0.342729 -0.787401
O26   O     O_3   0.858849 0.449374 0.398067 -0.788859
O27   O     O_3   0.650068 0.262302 0.952551 -0.779856
O28   O     O_3   0.580627 0.727889 0.026354 -0.743966
O29   O     O_3   0.150067 0.762303 0.952553 -0.779861
O30   O     O_3   0.080627 0.227889 0.026354 -0.743970
O31   O     O_3   0.578183 0.730409 0.841825 -0.785938
O32   O     O_3   0.568939 0.269468 0.844909 -0.801147
O33   O     O_3   0.078180 0.230409 0.841827 -0.785925
O34   O     O_3   0.654070 0.426400 0.500205 -0.581004
O35   O     O_3   0.068938 0.769468 0.844910 -0.801146
O36   O     O_3   0.626219 0.646451 0.646008 -0.615338
O37   O     O_3   0.547069 0.337379 0.654338 -0.570905
O38   O     O_3   0.126249 0.146441 0.646037 -0.615341
O39   O     O_3   0.047073 0.837384 0.654338 -0.570894
O40   O     O_3   0.413716 0.295762 0.411330 -0.642901

loop_
_geom_bond_atom_site_label_1
_geom_bond_atom_site_label_2
_ccdc_geom_bond_type
H16   O23   S    
C6    C32   S    
C83   N17   A    
C52   H57   S    
C20   H67   S    
C56   H81   S    
C8    C83   A    
N7    N31   A    
C46   O15   S    
C23   C69   A    
C82   O33   S    
H75   O31   S    
C57   C66   S    
C25   H38   S    
C16   H25   S    
N18   Ni5   S    
C48   O21   S    
C16   O36   S    
C65   C73   A    
C58   H62   S    
C22   O9    S    
C15   O39   S    
H68   O24   S    
C16   C31   S    
C13   O34   S    
C12   C68   A    
N11   N26   A    
C17   O37   S    
N32   Ni5   S    
C22   C29   S    
C22   C44   S    
H77   O33   S    
C84   H9    S    
C19   C39   S    
C40   C71   A    
C37   O6    S    
C10   C15   S    
C59   C66   A    
H70   O26   S    
C56   C88   A    
C65   O26   S    
N22   Ni7   S    
C9    O1    S    
C12   N12   A    
C19   H56   S    
C23   N23   A    
H31   O5    S    
N24   Ni7   S    
H79   O35   S    
H19   O37   S    
C18   H45   S    
C14   H22   S    
C42   H3    S    
C60   H64   S    
H18   O36   S    
N31   Ni3   S    
H69   O25   S    
C81   N15   A    
C44   O14   S    
C85   H10   S    
H14   O1    S    
C86   N20   A    
C87   H13   S    
C64   N7    A    
C1    N1    A    
C36   H5    S    
N5    N29   A    
N16   Ni4   S    
H27   O40   S    
C40   N28   A    
C84   N18   A    
H40   O9    S    
C42   C73   A    
C21   O4    S    
C57   H61   S    
H41   O10   S    
H32   O6    S    
C42   N30   A    
N29   Ni1   S    
N15   N18   A    
C25   C47   S    
N1    Ni1   S    
C48   O17   S    
C26   C48   S    
C26   H39   S    
H20   O38   S    
H43   O13   S    
C10   H85   S    
C41   H2    S    
C2    C45   A    
C63   N6    A    
N26   Ni8   S    
C10   O12   S    
C7    C33   S    
C81   O32   S    
H50   O19   S    
C75   N9    A    
C82   N16   A    
C14   C33   S    
C24   O10   S    
C53   C70   S    
H46   O15   S    
H71   O27   S    
C52   C54   D    
C17   H26   S    
C55   C68   S    
N23   Ni3   S    
C20   C29   S    
C29   C74   S    
C67   H82   S    
C3    C49   S    
C7    C87   A    
C6    C84   A    
C31   C44   S    
N8    N30   A    
C43   N31   A    
C79   O30   S    
C13   C30   S    
C4    C79   A    
C78   H83   S    
C26   O13   S    
C63   O24   S    
C40   H88   S    
C30   C73   S    
N27   Ni4   S    
C85   N19   A    
C76   N10   A    
C83   O35   S    
C64   O25   S    
N8    Ni8   S    
N13   N25   A    
H15   O12   S    
N16   N21   A    
C25   O11   S    
C50   H54   S    
C21   H78   S    
C12   H12   S    
C49   H53   S    
C60   N3    A    
C8    C35   S    
C38   O7    S    
H74   O30   S    
C35   C39   S    
C9    C14   S    
N25   Ni8   S    
H73   O29   S    
C67   N25   A    
C44   O18   S    
C54   H59   S    
N20   Ni6   S    
C11   C16   S    
C4    C50   S    
C41   N29   A    
C18   O40   S    
C14   O38   S    
C18   C38   S    
C60   C70   A    
C34   N27   A    
N17   N20   A    
H48   O17   S    
C1    C66   A    
H33   O7    S    
C80   O31   S    
C62   C72   A    
N5    Ni7   S    
C19   O2    S    
C32   C37   S    
H72   O28   S    
C5    C80   A    
C19   C28   S    
C35   C48   S    
C63   C71   A    
C2    C52   S    
N14   N19   A    
N15   Ni1   S    
C41   C72   A    
C58   C68   A    
C38   H7    S    
N11   Ni3   S    
H42   O11   S    
C59   H63   S    
H47   O16   S    
N10   Ni2   S    
H30   O4    S    
N6    Ni7   S    
C77   N11   A    
C20   O3    S    
N9    Ni1   S    
C39   O8    S    
C28   C71   S    
C87   N21   A    
H28   O2    S    
C3    C77   A    
N6    N28   A    
C2    C76   A    
C9    C27   S    
C47   O20   S    
H35   O8    S    
C10   C28   S    
N7    Ni8   S    
C13   H87   S    
C34   C70   A    
N12   N32   A    
C11   H86   S    
C1    H1    S    
N2    Ni5   S    
C76   O28   S    
C50   C57   D    
C32   C46   S    
C15   H24   S    
C59   N2    A    
C18   C27   S    
C78   N26   A    
N3    N27   A    
C9    H84   S    
N13   Ni4   S    
H44   O14   S    
C51   C88   S    
H17   O34   S    
C4    C67   A    
C22   H36   S    
C47   O16   S    
C86   H11   S    
C51   H55   S    
C25   C27   S    
C23   H23   S    
C21   C30   S    
H66   O22   S    
C26   C28   S    
C43   H4    S    
C62   O22   S    
C13   C17   S    
C53   H58   S    
C46   O19   S    
N4    Ni6   S    
C45   N22   A    
C58   N32   A    
C5    C85   A    
N4    N23   A    
C49   C55   D    
C62   N5    A    
C8    C86   A    
C55   H60   S    
C24   H37   S    
C54   C69   S    
C5    C31   S    
C43   C74   A    
C33   C47   S    
N3    Ni6   S    
H52   O21   S    
H21   O39   S    
C37   H6    S    
H29   O3    S    
C77   O29   S    
C61   C69   A    
N9    N24   A    
N14   Ni2   S    
H76   O32   S    
C45   H80   S    
C24   C30   S    
C39   H8    S    
C15   C35   S    
N17   Ni3   S    
C75   O27   S    
N21   Ni6   S    
C20   C36   S    
N30   Ni4   S    
C75   C88   A    
C7    C82   A    
C21   C37   S    
C11   C29   S    
C61   N4    A    
C34   H34   S    
N1    N2    A    
C79   N13   A    
N28   Ni2   S    
H51   O20   S    
C6    C81   A    
C17   C32   S    
C64   C74   A    
C31   C36   S    
N10   N22   A    
C33   C38   S    
C61   H65   S    
C51   C53   D    
H49   O18   S    
C3    C78   A    
C11   O23   S    
C36   O5    S    
N12   Ni2   S    
C27   C72   S    
C80   N14   A    
N19   Ni5   S    
C24   C46   S    
C56   N24   A    
C65   N8    A    
