data_mof_unit_46640.cif
_audit_creation_date              2012-10-26T20:22:34-0400
_audit_creation_method            fapswitch 2.2
_symmetry_space_group_name_H-M    P1
_symmetry_Int_Tables_number       1
_space_group_crystal_system       triclinic
_cell_length_a                    9.588466
_cell_length_b                    10.778637
_cell_length_c                    17.160899
_cell_angle_alpha                 91.927598
_cell_angle_beta                  86.828845
_cell_angle_gamma                 90.962642
_cell_volume                      1769.67284679

loop_
_atom_site_label
_atom_site_type_symbol
_atom_type_description
_atom_site_fract_x
_atom_site_fract_y
_atom_site_fract_z
_atom_type_partial_charge
C1    C     C_R   0.501301 0.737363 0.497793 0.538999
C2    C     C_R   0.074465 0.426390 0.447041 0.125366
C3    C     C_R   0.073154 0.573538 0.551401 0.014449
C4    C     C_R   0.926478 0.422908 0.450895 0.022280
C5    C     C_R   0.482232 0.499586 0.650195 0.536709
C6    C     C_R   0.517688 0.496852 0.350317 0.534319
C7    C     C_R   0.471395 0.496363 0.735460 0.012348
C8    C     C_R   0.527371 0.474117 0.266743 0.023633
C9    C     C_R   0.587832 0.524810 0.779054 -0.118171
C10   C     C_R   0.573288 0.567952 0.216934 -0.119896
C11   C     C_R   0.576326 0.520820 0.860114 -0.077425
C12   C     C_R   0.498736 0.262624 0.501494 0.536794
C13   C     C_R   0.579530 0.544861 0.136587 -0.080685
C14   C     C_R   0.449069 0.486044 0.898186 0.075362
C15   C     C_R   0.539907 0.427731 0.106211 0.075128
C16   C     C_R   0.332366 0.459070 0.854865 -0.059866
C17   C     C_R   0.501402 0.332015 0.156509 -0.059862
C18   C     C_R   0.343339 0.464253 0.773950 -0.127883
C19   C     C_R   0.495340 0.355296 0.236804 -0.139623
C20   C     C_2   0.437532 0.478916 0.983839 0.008247
C21   C     C_2   0.527661 0.408667 0.021658 0.005746
C22   C     C_2   0.617856 0.312350 0.980918 0.551311
C23   C     C_R   0.596433 0.937198 0.445731 -0.019813
C24   C     C_2   0.326801 0.555030 0.026414 0.555097
C25   C     C_3   0.691209 0.867941 0.384904 -0.239539
C26   C     C_3   0.778907 0.948977 0.327991 -0.322229
C27   C     C_3   0.867318 0.869267 0.269660 -0.441256
C28   C     C_3   0.298032 0.124604 0.608750 -0.234976
C29   C     C_3   0.154837 0.134446 0.573819 -0.285345
C30   C     C_3   0.056301 0.215104 0.625868 -0.441437
C31   C     C_3   0.857495 0.673551 0.606791 -0.234239
C32   C     C_3   0.902377 0.807030 0.586942 -0.318443
C33   C     C_3   0.816170 0.902413 0.635602 -0.444799
C34   C     C_R   0.401734 0.062219 0.550764 -0.022011
C35   C     C_3   0.142619 0.346432 0.381771 -0.236134
C36   C     C_3   0.141113 0.406515 0.301370 -0.289523
C37   C     C_3   0.997381 0.406129 0.266862 -0.434279
C38   C     C_R   0.593092 0.066799 0.450538 -0.131634
C39   C     C_R   0.406161 0.933497 0.547288 -0.140005
C40   C     C_R   0.497049 0.128611 0.501794 0.010459
C41   C     C_R   0.502870 0.871448 0.496549 0.005034
C42   C     C_R   0.925528 0.578625 0.550183 0.110294
Cu1   Cu    Cu3+1 0.359340 0.499980 0.500000 0.899705
Cu2   Cu    Cu3+1 0.640660 0.500020 0.500000 0.900537
H1    H     H_    0.687191 0.550755 0.750665 0.113356
H2    H     H_    0.334803 0.880992 0.585366 0.116216
H3    H     H_    0.128846 0.631207 0.592558 0.117870
H4    H     H_    0.870247 0.360371 0.412742 0.119759
H5    H     H_    0.648186 0.190091 0.890067 0.340832
H6    H     H_    0.193451 0.577709 0.120926 0.334780
H7    H     H_    0.799320 0.809195 0.233530 0.154576
H8    H     H_    0.931324 0.930243 0.230401 0.159693
H9    H     H_    0.938519 0.810148 0.300752 0.153863
H10   H     H_    0.709068 0.006760 0.295009 0.167125
H11   H     H_    0.850556 0.010513 0.361071 0.153318
H12   H     H_    0.600636 0.659174 0.240053 0.091390
H13   H     H_    0.764659 0.810473 0.415111 0.172424
H14   H     H_    0.624348 0.804499 0.350157 0.145599
H15   H     H_    0.039226 0.174396 0.684295 0.153263
H16   H     H_    0.100480 0.310564 0.632616 0.170115
H17   H     H_    0.954120 0.220852 0.598822 0.147821
H18   H     H_    0.166319 0.175249 0.515246 0.182474
H19   H     H_    0.107704 0.040176 0.566644 0.148236
H20   H     H_    0.286411 0.070044 0.662674 0.133623
H21   H     H_    0.337288 0.217619 0.627871 0.170296
H22   H     H_    0.703523 0.890796 0.624729 0.164133
H23   H     H_    0.463310 0.281526 0.275612 0.087506
H24   H     H_    0.831190 0.891796 0.698728 0.157988
H25   H     H_    0.849867 0.997466 0.619266 0.150213
H26   H     H_    0.014322 0.822757 0.598321 0.142312
H27   H     H_    0.889337 0.822414 0.524254 0.169369
H28   H     H_    0.744032 0.668827 0.609235 0.220546
H29   H     H_    0.888222 0.654565 0.666737 0.100232
H30   H     H_    0.947058 0.312740 0.270177 0.152414
H31   H     H_    0.929118 0.476434 0.297512 0.159519
H32   H     H_    0.009373 0.430804 0.204517 0.175379
H33   H     H_    0.181883 0.503498 0.304841 0.197194
H34   H     H_    0.252028 0.441515 0.741540 0.117616
H35   H     H_    0.211605 0.352956 0.259828 0.173570
H36   H     H_    0.250328 0.323643 0.392697 0.192770
H37   H     H_    0.088436 0.254414 0.379020 0.082930
H38   H     H_    0.233500 0.432535 0.883695 0.131428
H39   H     H_    0.471221 0.241257 0.133531 0.126745
H40   H     H_    0.610629 0.619000 0.097917 0.110832
H41   H     H_    0.666694 0.543815 0.893263 0.112245
H42   H     H_    0.662437 0.121840 0.413233 0.112500
N1    N     N_R   0.147930 0.499970 0.499980 -0.235694
N2    N     N_R   0.852070 0.500030 0.500020 -0.236880
O1    O     O_R   0.381260 0.680340 0.500000 -0.497728
O2    O     O_R   0.578258 0.253912 0.911364 -0.695935
O3    O     O_2   0.285043 0.648337 0.997014 -0.515384
O4    O     O_R   0.267310 0.518351 0.098472 -0.706693
O5    O     O_R   0.618740 0.319660 0.500000 -0.503661
O6    O     O_R   0.618830 0.680370 0.500010 -0.523648
O7    O     O_R   0.381170 0.319630 0.499990 -0.524132
O8    O     O_R   0.367440 0.500000 0.613600 -0.513402
O9    O     O_R   0.632560 0.500000 0.386400 -0.506651
O10   O     O_R   0.605010 0.500030 0.613600 -0.518208
O11   O     O_R   0.394990 0.499970 0.386400 -0.512427
O12   O     O_2   0.725276 0.281545 0.009829 -0.516376

loop_
_geom_bond_atom_site_label_1
_geom_bond_atom_site_label_2
_ccdc_geom_bond_type
C2    C35   S    
C37   H30   S    
C29   H19   S    
C3    C42   A    
C9    H1    S    
C31   C42   S    
C35   C36   S    
H5    O2    S    
C26   H11   S    
C35   H37   S    
C39   C41   A    
C13   H40   S    
C26   C27   S    
Cu1   O1    S    
C38   H42   S    
C34   C40   A    
C36   C37   S    
Cu1   O11   S    
C36   H33   S    
C11   C14   A    
C31   H29   S    
C24   O4    S    
C35   H36   S    
C15   C17   A    
Cu2   O5    S    
Cu2   O10   S    
C20   C24   S    
C1    O6    A    
C30   H16   S    
Cu1   O7    S    
C12   O7    A    
C19   H23   S    
C10   H12   S    
C33   H25   S    
C37   H31   S    
C28   C34   S    
C21   C22   S    
C25   H13   S    
C26   H10   S    
C27   H7    S    
C33   H22   S    
C32   H27   S    
C8    C19   A    
C22   O12   D    
C3    N1    A    
C34   C39   A    
C6    O9    A    
C14   C20   S    
C5    C7    S    
C6    C8    S    
C25   C26   S    
C36   H35   S    
C17   H39   S    
C12   C40   S    
C2    C4    A    
Cu1   Cu2   S    
C29   C30   S    
Cu2   O9    S    
C31   C32   S    
C18   H34   S    
C7    C18   A    
C30   H15   S    
C16   H38   S    
Cu1   O8    S    
C22   O2    S    
C2    N1    A    
C16   C18   A    
C5    O10   A    
C9    C11   A    
C39   H2    S    
C28   H20   S    
H6    O4    S    
C31   H28   S    
C37   H32   S    
C13   C15   A    
C14   C16   A    
C12   O5    A    
C42   N2    A    
C25   H14   S    
C24   O3    D    
C5    O8    A    
C27   H8    S    
C4    H4    S    
C1    C41   S    
C7    C9    A    
C29   H18   S    
C28   C29   S    
C1    O1    A    
C10   C13   A    
C32   H26   S    
C27   H9    S    
C4    N2    A    
C23   C38   A    
C23   C41   A    
Cu1   N1    S    
C6    O11   A    
C28   H21   S    
C32   C33   S    
C38   C40   A    
C11   H41   S    
C3    H3    S    
C17   C19   A    
C23   C25   S    
Cu2   O6    S    
C15   C21   S    
C20   C21   D    
C8    C10   A    
C30   H17   S    
Cu2   N2    S    
C33   H24   S    
