data_mof_unit_60880.cif
_audit_creation_date              2012-12-11T16:45:34-0500
_audit_creation_method            fapswitch 2.2
_symmetry_space_group_name_H-M    P1
_symmetry_Int_Tables_number       1
_space_group_crystal_system       triclinic
_cell_length_a                    6.939864
_cell_length_b                    23.239167
_cell_length_c                    25.149437
_cell_angle_alpha                 106.905358
_cell_angle_beta                  90.233314
_cell_angle_gamma                 90.199756
_cell_volume                      3880.66362522

loop_
_atom_site_label
_atom_site_type_symbol
_atom_type_description
_atom_site_fract_x
_atom_site_fract_y
_atom_site_fract_z
_atom_type_partial_charge
O1    O     O_R   0.505730 0.453320 0.547640 -0.528707
O2    O     O_R   0.171940 0.435090 0.440540 -0.528421
O3    O     O_R   0.005620 0.546680 0.452360 -0.531397
C1    C     C_R   0.340858 0.416585 0.418514 0.703311
O4    O     O_R   0.175760 0.446400 0.546510 -0.530434
O5    O     O_R   0.009470 0.558070 0.559080 -0.519550
C2    C     C_R   0.345172 0.433514 0.562163 0.721044
O6    O     O_R   0.501880 0.441930 0.440920 -0.521053
O7    O     O_3   0.340510 0.536620 0.504000 -0.356906
V1    V     V_3+5 0.064100 0.493210 0.499260 1.462985
O8    O     O_R   0.679990 0.564910 0.559460 -0.528543
C3    C     C_R   0.849550 0.583369 0.581460 0.715012
O9    O     O_R   0.676170 0.553600 0.453490 -0.534108
C4    C     C_R   0.845125 0.566733 0.438018 0.682235
V2    V     V_3+5 0.564590 0.506790 0.500740 1.457358
O10   O     O_3   0.838050 0.463380 0.496000 -0.353411
C5    C     C_R   0.812153 0.903568 0.141829 0.369650
C6    C     C_R   0.801110 0.865959 0.176099 -0.241234
H1    H     H_    0.691469 0.874282 0.207974 0.178597
C7    C     C_R   0.931891 0.819021 0.171054 -0.047198
C8    C     C_R   0.076208 0.808853 0.130144 0.353866
C9    C     C_R   0.084798 0.845494 0.093624 0.256641
C10   C     C_R   0.953931 0.893963 0.099838 -0.237254
C11   C     C_R   0.075370 0.771501 0.239994 -0.055996
H2    H     H_    0.212140 0.792982 0.237124 0.152141
C12   C     C_R   0.059362 0.735638 0.275784 -0.168183
H3    H     H_    0.184177 0.730625 0.300034 0.165947
C13   C     C_R   0.883799 0.707594 0.281428 -0.014140
C14   C     C_R   0.722173 0.715762 0.249348 0.361113
C15   C     C_R   0.739511 0.753098 0.214639 -0.139685
H4    H     H_    0.615527 0.759200 0.190521 0.156615
C16   C     C_R   0.915695 0.780645 0.209094 0.078658
C17   C     C_R   0.729738 0.684362 0.363262 -0.131124
H5    H     H_    0.626564 0.719853 0.365396 0.154115
C18   C     C_R   0.721191 0.652646 0.402924 0.356620
C19   C     C_R   0.855880 0.605902 0.400617 -0.148567
C20   C     C_R   0.001377 0.595101 0.360137 -0.178764
H6    H     H_    0.106863 0.560133 0.357482 0.137100
C21   C     C_R   0.010147 0.627949 0.321621 -0.120461
H7    H     H_    0.122921 0.618085 0.290667 0.141536
C22   C     C_R   0.872718 0.672230 0.322196 -0.000372
C23   C     C_1   0.946719 0.864569 0.866514 -0.136479
C24   C     C_1   0.932210 0.821809 0.823179 0.046803
C25   C     C_1   0.913018 0.771303 0.771702 0.035378
C26   C     C_1   0.896410 0.728748 0.728275 0.030315
C27   C     C_1   0.877201 0.678229 0.676806 0.027355
C28   C     C_1   0.862660 0.635447 0.633486 -0.193219
C29   C     C_1   0.353487 0.364405 0.366408 -0.199965
C30   C     C_1   0.370571 0.321655 0.323112 0.017447
C31   C     C_1   0.394335 0.271204 0.271688 0.017305
C32   C     C_1   0.415087 0.228747 0.228337 0.019816
C33   C     C_1   0.438840 0.178309 0.176904 0.026735
C34   C     C_1   0.455902 0.135580 0.133593 -0.172326
C35   C     C_R   0.318304 0.090721 0.853920 0.256954
C36   C     C_R   0.307444 0.127518 0.817627 0.353338
C37   C     C_R   0.438182 0.175467 0.824087 0.013975
C38   C     C_R   0.573177 0.187939 0.867440 -0.152008
H8    H     H_    0.671292 0.225641 0.872931 0.171389
C39   C     C_R   0.577960 0.154703 0.905739 0.311434
C40   C     C_R   0.452665 0.104401 0.898776 -0.252598
C41   C     C_R   0.585741 0.215458 0.750352 0.306949
C42   C     C_R   0.571131 0.250878 0.712910 0.287378
C43   C     C_R   0.406406 0.286829 0.713546 -0.016535
C44   C     C_R   0.254031 0.285686 0.750026 0.365713
C45   C     C_R   0.267025 0.248904 0.785554 -0.283360
H9    H     H_    0.149270 0.247719 0.813404 0.161205
C46   C     C_R   0.431066 0.214073 0.786070 0.052681
C47   C     C_R   0.254583 0.309614 0.631608 -0.051936
H10   H     H_    0.164123 0.270236 0.626331 0.205576
C48   C     C_R   0.238521 0.342961 0.593369 0.370625
C49   C     C_R   0.357783 0.394467 0.599623 -0.222888
C50   C     C_R   0.492353 0.409684 0.643540 -0.223645
H11   H     H_    0.583694 0.448967 0.649287 0.168460
C51   C     C_R   0.508180 0.375782 0.681172 0.477332
C52   C     C_R   0.389928 0.324901 0.675131 0.028449
O11   O     O_R   0.307450 0.058120 0.059050 -0.533155
O12   O     O_R   0.633730 0.053610 0.953490 -0.535645
O13   O     O_R   0.799860 0.941920 0.940920 -0.530795
C53   C     C_R   0.464394 0.065561 0.936828 0.760500
O14   O     O_R   0.637410 0.064920 0.059450 -0.527833
O15   O     O_R   0.803560 0.953310 0.047650 -0.511534
C54   C     C_R   0.468494 0.083432 0.081468 0.726894
O16   O     O_R   0.303750 0.046720 0.952330 -0.512461
O17   O     O_3   0.468770 0.963410 0.995980 -0.339010
V3    V     V_3+5 0.745240 0.006790 0.000740 1.567529
O18   O     O_R   0.133010 0.946350 0.046540 -0.507434
C55   C     C_R   0.964123 0.933879 0.062744 0.827401
O19   O     O_R   0.129330 0.935040 0.940580 -0.511079
C56   C     C_R   0.959786 0.916609 0.918560 0.767192
V4    V     V_3+5 0.244730 0.993140 0.999300 1.617485
O20   O     O_3   0.971340 0.036590 0.004020 -0.371164
Cl1   Cl    Cl    0.647812 0.963794 0.155167 -0.628504
O21   O     O_3   0.582774 0.669972 0.443614 -0.634818
H12   H     H_    0.628655 0.660368 0.477339 0.289771
Cl2   Cl    Cl    0.175126 0.024586 0.839921 -0.639025
O22   O     O_3   0.176260 0.116933 0.774248 -0.607135
H13   H     H_    0.072460 0.090004 0.779631 0.363308
O23   O     O_3   0.705047 0.173854 0.949766 -0.623235
H14   H     H_    0.653766 0.162316 0.981892 0.280155
O24   O     O_3   0.744678 0.180317 0.752194 -0.617315
H15   H     H_    0.851499 0.190596 0.730704 0.355901
Cl3   Cl    Cl    0.751011 0.247335 0.662340 -0.589460
O25   O     O_3   0.094292 0.321096 0.750364 -0.578588
H16   H     H_    0.000137 0.314726 0.777701 0.332868
O26   O     O_3   0.109276 0.322339 0.550077 -0.610365
H17   H     H_    0.146963 0.337863 0.518926 0.290605
Cl4   Cl    Cl    0.673899 0.399501 0.736535 -0.557503
O27   O     O_3   0.200311 0.761241 0.125664 -0.623650
H18   H     H_    0.314288 0.765325 0.103615 0.346172
Cl5   Cl    Cl    0.247534 0.826748 0.037070 -0.615179
O28   O     O_3   0.546980 0.687444 0.249389 -0.649376
H19   H     H_    0.564339 0.652880 0.264372 0.291792

loop_
_geom_bond_atom_site_label_1
_geom_bond_atom_site_label_2
_ccdc_geom_bond_type
C44   O25   S    
C53   O16   A    
C36   C37   A    
C40   C53   S    
O21   H12   S    
O28   H19   S    
C1    O6    A    
O14   V3    S    
V3    O20   S    
C21   C22   A    
C35   C40   A    
C26   C27   S    
C37   C38   A    
C47   C52   A    
C12   H3    S    
C5    C10   A    
C19   C20   A    
C20   H6    S    
C11   C12   A    
O5    C3    A    
C15   H4    S    
C38   C39   A    
C45   C46   A    
V2    O10   S    
C13   C22   S    
O27   H18   S    
C6    H1    S    
C4    C19   S    
C51   Cl4   S    
C35   C36   A    
O8    V2    S    
C18   C19   A    
C47   H10   S    
C9    Cl5   S    
C48   C49   A    
O1    V2    S    
C2    C49   S    
O7    V1    S    
O19   C56   A    
C18   O21   S    
O12   V3    S    
C39   C40   A    
C10   C55   S    
C8    C9    A    
C5    Cl1   S    
O17   V4    S    
C3    C28   S    
C7    C16   S    
C17   H5    S    
C38   H8    S    
O12   C53   A    
O13   C56   A    
C51   C52   A    
C32   C33   S    
C11   H2    S    
O14   C54   A    
O18   V4    S    
O11   C54   A    
C21   H7    S    
O4    C2    A    
O18   C55   A    
C36   O22   S    
C31   C32   T    
C34   C54   S    
O2    C1    A    
C24   C25   S    
C11   C16   A    
C14   C15   A    
C41   C46   A    
O22   H13   S    
C42   C43   A    
C5    C6    A    
O17   V3    S    
C35   Cl2   S    
O15   C55   A    
O3    C4    A    
O13   V3    S    
C50   C51   A    
C29   C30   T    
O19   V4    S    
O23   H14   S    
O6    V2    S    
O9    V2    S    
C41   O24   S    
C23   C24   T    
O2    V1    S    
C33   C34   T    
C1    C29   S    
O16   V4    S    
C27   C28   T    
C13   C14   A    
O1    C2    A    
C14   O28   S    
C25   C26   T    
C50   H11   S    
C48   O26   S    
O5    V1    S    
O8    C3    A    
C37   C46   S    
O26   H17   S    
C12   C13   A    
C23   C56   S    
C17   C22   A    
C44   C45   A    
O7    V2    S    
C49   C50   A    
C20   C21   A    
O3    V1    S    
V1    O10   S    
C15   C16   A    
V4    O20   S    
C43   C52   S    
O24   H15   S    
C17   C18   A    
C6    C7    A    
C45   H9    S    
C41   C42   A    
C8    O27   S    
C43   C44   A    
O4    V1    S    
C7    C8    A    
C47   C48   A    
C30   C31   S    
O25   H16   S    
C39   O23   S    
C9    C10   A    
O9    C4    A    
O15   V3    S    
O11   V4    S    
C42   Cl3   S    
