data_mof_unit_13364.cif
_audit_creation_date              2012-10-26T21:05:20-0400
_audit_creation_method            fapswitch 2.2
_symmetry_space_group_name_H-M    P1
_symmetry_Int_Tables_number       1
_space_group_crystal_system       triclinic
_cell_length_a                    9.646979
_cell_length_b                    10.792295
_cell_length_c                    13.888476
_cell_angle_alpha                 95.017773
_cell_angle_beta                  84.682949
_cell_angle_gamma                 91.862031
_cell_volume                      1433.79845922

loop_
_atom_site_label
_atom_site_type_symbol
_atom_type_description
_atom_site_fract_x
_atom_site_fract_y
_atom_site_fract_z
_atom_type_partial_charge
C1    C     C_R   0.501994 0.737569 0.502970 0.612154
C2    C     C_R   0.568991 0.932857 0.435958 -0.164821
C3    C     C_R   0.564523 0.060555 0.437556 -0.123775
C4    C     C_R   0.477142 0.496647 0.682390 0.590455
C5    C     C_R   0.487703 0.129368 0.513013 0.016316
C6    C     C_R   0.861102 0.347783 0.361179 -0.076966
C7    C     C_R   0.930261 0.289441 0.280240 -0.184230
C8    C     C_R   0.071813 0.289336 0.272244 -0.139902
C9    C     C_R   0.147019 0.341729 0.347874 0.023788
C10   C     C_R   0.080124 0.422471 0.428434 0.140041
C11   C     C_R   0.929680 0.423854 0.430940 0.139183
C12   C     C_1   0.463205 0.490638 0.784974 -0.018781
C13   C     C_R   0.921385 0.574633 0.564580 0.079521
C14   C     C_R   0.068579 0.573531 0.564883 0.014901
C15   C     C_R   0.495992 0.263842 0.508862 0.547718
C16   C     C_R   0.522968 0.501710 0.317439 0.543434
C17   C     C_1   0.536976 0.503248 0.214458 0.009305
C18   C     C_2   0.557498 0.507209 0.024125 0.035448
C19   C     C_2   0.444024 0.481033 0.975559 0.233755
C20   C     C_1   0.452999 0.485772 0.871363 -0.056578
C21   C     C_1   0.547551 0.504895 0.127755 0.016133
C22   C     C_1   0.281507 0.286390 0.334094 0.285284
C23   C     C_R   0.409339 0.885505 0.686221 0.255484
C24   C     C_1   0.691442 0.539599 0.975601 0.172520
C25   C     C_1   0.240286 0.231221 0.656601 0.223180
C26   C     C_1   0.845325 0.659590 0.634075 0.256217
C27   C     C_R   0.337031 0.953755 0.764398 -0.116237
C28   C     C_R   0.292620 0.071905 0.754320 -0.151111
C29   C     C_R   0.327022 0.128755 0.668572 -0.030155
C30   C     C_R   0.417635 0.068967 0.592350 -0.035644
C31   C     C_R   0.443760 0.940717 0.597453 0.057669
C32   C     C_R   0.506845 0.872416 0.513849 0.030383
Cu1   Cu    Cu3+1 0.359340 0.500010 0.500010 1.008692
Cu2   Cu    Cu3+1 0.640660 0.499990 0.499990 0.986810
H1    H     H_    0.752635 0.330218 0.363905 0.191771
H2    H     H_    0.426353 0.746927 0.764859 0.314964
H3    H     H_    0.873140 0.238320 0.225307 0.131105
H4    H     H_    0.121813 0.235810 0.209189 0.144373
H5    H     H_    0.119775 0.633978 0.617858 0.130221
H6    H     H_    0.621077 0.880681 0.373438 0.122761
H7    H     H_    0.309908 0.913249 0.832500 0.115395
H8    H     H_    0.226011 0.117678 0.813146 0.133240
H9    H     H_    0.617996 0.105948 0.377548 0.133010
H10   H     H_    0.247998 0.434231 0.978568 0.334153
N1    N     N_R   0.852210 0.498790 0.499090 -0.259999
N2    N     N_R   0.148080 0.498710 0.499060 -0.243125
N3    N     N_1   0.386745 0.237110 0.315519 -0.327457
N4    N     N_1   0.798467 0.565473 0.936748 -0.271330
N5    N     N_1   0.165402 0.310726 0.649147 -0.257690
N6    N     N_1   0.784845 0.728314 0.690137 -0.241682
O1    O     O_R   0.381190 0.680360 0.500010 -0.489842
O2    O     O_3   0.454699 0.768349 0.697751 -0.684540
O3    O     O_R   0.618760 0.680340 0.500000 -0.480247
O4    O     O_R   0.364420 0.499990 0.637850 -0.474890
O5    O     O_R   0.601990 0.499960 0.637840 -0.470157
O6    O     O_R   0.381240 0.319660 0.500000 -0.488178
O7    O     O_R   0.618810 0.319640 0.499990 -0.530292
O8    O     O_R   0.398010 0.500040 0.362160 -0.493213
O9    O     O_R   0.635580 0.500010 0.362150 -0.530446
O10   O     O_3   0.318841 0.450379 0.025881 -0.688099

loop_
_geom_bond_atom_site_label_1
_geom_bond_atom_site_label_2
_ccdc_geom_bond_type
C10   N2    A    
Cu2   O7    S    
C6    C7    A    
C23   C27   A    
C19   O10   S    
Cu1   O1    S    
C18   C21   S    
C15   O7    A    
C9    C10   A    
C27   H7    S    
C19   C20   S    
H2    O2    S    
C3    C5    A    
C15   O6    A    
C12   C20   T    
Cu1   O6    S    
Cu1   Cu2   S    
C7    H3    S    
Cu2   O5    S    
C14   N2    A    
Cu2   N1    S    
C16   O8    A    
C13   C14   A    
C13   N1    A    
Cu1   N2    S    
C1    O1    A    
C3    H9    S    
C23   O2    S    
Cu1   O8    S    
C8    H4    S    
H10   O10   S    
C18   C24   S    
C28   H8    S    
C28   C29   A    
C22   N3    T    
C2    C3    A    
C26   N6    T    
C4    O5    A    
C25   C29   S    
C30   C31   A    
C13   C26   S    
C25   N5    T    
C9    C22   S    
C5    C15   S    
C11   N1    A    
C10   C11   A    
C29   C30   A    
C24   N4    T    
C2    H6    S    
C6    C11   A    
C6    H1    S    
Cu2   O3    S    
C2    C32   A    
C18   C19   D    
C5    C30   A    
Cu1   O4    S    
C7    C8    A    
C1    O3    A    
C8    C9    A    
C4    O4    A    
C14   H5    S    
C4    C12   S    
Cu2   O9    S    
C1    C32   S    
C17   C21   T    
C31   C32   A    
C16   C17   S    
C27   C28   A    
C16   O9    A    
C23   C31   A    
