data_mof_unit_39632.cif
_audit_creation_date              2012-12-10T17:51:25-0500
_audit_creation_method            fapswitch 2.2
_symmetry_space_group_name_H-M    P1
_symmetry_Int_Tables_number       1
_space_group_crystal_system       triclinic
_cell_length_a                    9.950795
_cell_length_b                    10.785118
_cell_length_c                    16.609517
_cell_angle_alpha                 95.831507
_cell_angle_beta                  86.900168
_cell_angle_gamma                 87.710137
_cell_volume                      1768.86799546

loop_
_atom_site_label
_atom_site_type_symbol
_atom_type_description
_atom_site_fract_x
_atom_site_fract_y
_atom_site_fract_z
_atom_type_partial_charge
C1    C     C_R   0.497760 0.739360 0.493363 0.951717
C2    C     C_R   0.357142 0.412650 0.772833 0.079633
C3    C     C_R   0.402763 0.446586 0.132941 0.170695
C4    C     C_R   0.397006 0.486761 0.216353 0.147848
C5    C     C_R   0.640358 0.506940 0.210432 0.168226
C6    C     C_R   0.643505 0.477696 0.126613 -0.259882
C7    C     C_R   0.528368 0.439509 0.088569 0.050414
C8    C     C_2   0.485560 0.312314 0.961070 -0.141953
C9    C     C_2   0.540988 0.410364 0.000512 -0.219459
C10   C     C_R   0.518513 0.501276 0.256820 -0.186395
C11   C     C_R   0.242783 0.900724 0.492001 -0.137097
C12   C     C_R   0.484011 0.486684 0.652171 0.963480
C13   C     C_R   0.127671 0.969751 0.524438 -0.139847
C14   C     C_R   0.138915 0.085132 0.568209 -0.143254
C15   C     C_R   0.264284 0.137089 0.571978 -0.086854
C16   C     C_R   0.380297 0.072473 0.532654 0.066530
C17   C     C_R   0.372371 0.946811 0.503415 0.046603
C18   C     C_R   0.494116 0.873535 0.487097 -0.231109
C19   C     C_R   0.619237 0.930902 0.483353 0.193432
C20   C     C_R   0.624489 0.058192 0.505928 0.150587
C21   C     C_R   0.503582 0.130223 0.521457 -0.221923
C22   C     C_R   0.855276 0.689451 0.610374 0.416419
C23   C     C_R   0.501489 0.261846 0.508642 0.874762
C24   C     C_R   0.930317 0.778836 0.652920 -0.242131
C25   C     C_R   0.067552 0.770037 0.649286 -0.308179
C26   C     C_R   0.133929 0.673807 0.601241 -0.107491
C27   C     C_R   0.066636 0.587262 0.551026 0.046936
C28   C     C_R   0.921112 0.589756 0.553122 0.060054
C29   C     C_R   0.935822 0.421569 0.447830 -0.143725
C30   C     C_R   0.079255 0.417176 0.448746 0.261971
C31   C     C_R   0.516022 0.503687 0.346197 0.872262
C32   C     C_R   0.481560 0.430394 0.730169 -0.189803
C33   C     C_R   0.602236 0.375927 0.756671 0.162970
C34   C     C_R   0.598298 0.317929 0.827727 -0.289144
C35   C     C_R   0.477939 0.312745 0.873510 0.046129
C36   C     C_R   0.355986 0.348716 0.842542 0.350954
H1    H     H_    0.737167 0.483233 0.090918 0.167716
H2    H     H_    0.227518 0.813634 0.456359 0.164959
H3    H     H_    0.030202 0.931450 0.517887 0.135431
H4    H     H_    0.050303 0.135922 0.597207 0.134349
H5    H     H_    0.270042 0.227498 0.606176 0.151444
H6    H     H_    0.885642 0.360875 0.405046 0.158433
H7    H     H_    0.882340 0.855104 0.693455 0.198873
H8    H     H_    0.123335 0.837170 0.685494 0.192342
H9    H     H_    0.239698 0.670860 0.605050 0.237824
H10   H     H_    0.595228 0.475588 0.966414 0.171104
H11   H     H_    0.432062 0.245087 0.993083 0.193077
H12   H     H_    0.691678 0.285566 0.851049 0.181807
N1    N     N_R   0.857140 0.501200 0.500750 -0.110892
N2    N     N_R   0.142740 0.501280 0.500770 -0.153945
O1    O     O_R   0.385310 0.683220 0.500000 -0.669202
O2    O     O_R   0.614640 0.683250 0.500010 -0.527523
O3    O     O_R   0.371780 0.500010 0.615800 -0.632232
O4    O     O_R   0.601110 0.500030 0.615800 -0.527359
O5    O     O_R   0.385360 0.316750 0.499990 -0.647536
O6    O     O_R   0.614690 0.316780 0.500000 -0.587390
O7    O     O_R   0.398890 0.499970 0.384200 -0.615483
O8    O     O_R   0.628220 0.499990 0.384200 -0.586494
Zn1   Zn    Zn3+2 0.346870 0.499980 0.499990 0.921154
Zn2   Zn    Zn3+2 0.653130 0.500020 0.500010 1.003292
N3    N     N_2   0.728241 0.376658 0.711847 -0.260883
H13   H     H_    0.769946 0.288187 0.694651 0.222773
C37   C     C_3   0.824489 0.458596 0.748714 -0.702928
H14   H     H_    0.912068 0.464255 0.705164 0.226239
H15   H     H_    0.861202 0.422151 0.804143 0.231178
H16   H     H_    0.778169 0.553857 0.764795 0.274858
N4    N     N_2   0.739879 0.859348 0.456564 -0.263024
H17   H     H_    0.825126 0.878725 0.486671 0.220547
C38   C     C_3   0.759037 0.827392 0.369912 -0.766652
H18   H     H_    0.852077 0.766937 0.356151 0.236194
H19   H     H_    0.768506 0.912857 0.338385 0.225369
H20   H     H_    0.672306 0.775684 0.346857 0.239923
N5    N     N_2   0.749308 0.111099 0.524448 -0.281501
H21   H     H_    0.797170 0.070160 0.569258 0.208553
C39   C     C_3   0.839345 0.130308 0.456282 -0.775402
H22   H     H_    0.890139 0.042418 0.428229 0.225145
H23   H     H_    0.919728 0.190075 0.478817 0.247673
H24   H     H_    0.784360 0.174256 0.409347 0.248373
Cl1   Cl    Cl    0.688910 0.721408 0.649376 -0.657356
N6    N     N_2   0.269647 0.521749 0.258173 -0.270685
H25   H     H_    0.188167 0.476786 0.236183 0.250022
C40   C     C_3   0.241793 0.655018 0.273778 -0.751557
H26   H     H_    0.146170 0.673413 0.311608 0.222547
H27   H     H_    0.231372 0.696471 0.215712 0.232799
H28   H     H_    0.323592 0.700461 0.307117 0.234627
N7    N     N_2   0.158464 0.321538 0.399093 -0.274810
H29   H     H_    0.257346 0.339309 0.388532 0.300099
C41   C     C_3   0.104848 0.251926 0.329771 -0.894282
H30   H     H_    0.183728 0.184108 0.300011 0.251279
H31   H     H_    0.074870 0.315049 0.285006 0.243168
H32   H     H_    0.019086 0.197405 0.347972 0.255131
N8    N     N_2   0.756390 0.553830 0.246763 -0.280860
H33   H     H_    0.785541 0.635243 0.224678 0.221760
C42   C     C_3   0.867989 0.464150 0.245394 -0.779068
H34   H     H_    0.912488 0.442031 0.182685 0.226009
H35   H     H_    0.834226 0.377115 0.269018 0.248277
H36   H     H_    0.945986 0.504666 0.284082 0.236006
Cl2   Cl    Cl    0.201590 0.321696 0.894025 -0.723479
N9    N     N_2   0.280682 0.425062 0.093705 -0.308848
H37   H     H_    0.274367 0.453109 0.036587 0.283388
C43   C     C_3   0.214561 0.311143 0.108204 -0.770804
H38   H     H_    0.222595 0.243949 0.052962 0.278713
H39   H     H_    0.106227 0.333248 0.124097 0.241566
H40   H     H_    0.258578 0.265373 0.158417 0.228222
N10   N     N_2   0.233508 0.462659 0.747701 -0.275913
H41   H     H_    0.156566 0.401355 0.746737 0.258179
C44   C     C_3   0.192869 0.584263 0.788623 -0.706846
H42   H     H_    0.092823 0.614009 0.769152 0.240588
H43   H     H_    0.267162 0.653698 0.773337 0.238128
H44   H     H_    0.184335 0.581365 0.855373 0.260442

loop_
_geom_bond_atom_site_label_1
_geom_bond_atom_site_label_2
_ccdc_geom_bond_type
C37   H15   S    
C16   C21   A    
O5    Zn1   S    
C29   H6    S    
C38   H20   S    
N5    C39   S    
N5    H21   S    
C19   C20   A    
O3    Zn1   S    
C23   O6    A    
O4    Zn2   S    
N10   C44   S    
C26   C27   A    
C43   H38   S    
N1    Zn2   S    
N2    Zn1   S    
C31   O8    A    
C22   Cl1   S    
C4    N6    S    
C3    C7    A    
C38   H18   S    
C5    C6    A    
N7    C41   S    
O7    Zn1   S    
O8    Zn2   S    
C15   C16   A    
C2    C32   A    
C34   C35   A    
C38   H19   S    
O2    Zn2   S    
C26   H9    S    
C10   C31   S    
C35   C36   A    
C8    C9    D    
C44   H42   S    
C19   N4    S    
C30   N7    S    
C12   O3    A    
C27   N2    A    
C30   N2    A    
C37   H16   S    
C9    H10   S    
C43   H39   S    
C22   C28   A    
C13   C14   A    
C12   C32   S    
C44   H43   S    
C42   H34   S    
C25   H8    S    
C1    O2    A    
C33   C34   A    
N4    H17   S    
C24   C25   A    
C15   H5    S    
N6    C40   S    
N7    H29   S    
C18   C19   A    
C29   N1    A    
C42   H36   S    
C25   C26   A    
O6    Zn2   S    
N4    C38   S    
C8    C35   S    
C11   H2    S    
C39   H22   S    
C29   C30   A    
C1    O1    A    
C28   N1    A    
N9    H37   S    
C41   H32   S    
N8    C42   S    
C17   C18   A    
C1    C18   S    
C6    H1    S    
C20   C21   A    
C42   H35   S    
C39   H23   S    
N9    C43   S    
C41   H31   S    
C43   H40   S    
C40   H27   S    
C21   C23   S    
C44   H44   S    
C22   C24   A    
O1    Zn1   S    
C4    C10   A    
C3    C4    A    
C2    C36   A    
C7    C9    S    
C11   C17   A    
N3    C37   S    
N6    H25   S    
C23   O5    A    
C6    C7    A    
C40   H28   S    
N10   H41   S    
C2    N10   S    
C32   C33   A    
C31   O7    A    
C8    H11   S    
C5    C10   A    
C11   C13   A    
C16   C17   A    
N8    H33   S    
C20   N5    S    
N3    H13   S    
C39   H24   S    
C13   H3    S    
C5    N8    S    
C14   H4    S    
C37   H14   S    
C3    N9    S    
C34   H12   S    
C41   H30   S    
C33   N3    S    
C40   H26   S    
C27   C28   A    
C24   H7    S    
C14   C15   A    
C36   Cl2   S    
C12   O4    A    
