data_mof_unit_45051.cif
_audit_creation_date              2012-12-10T18:44:27-0500
_audit_creation_method            fapswitch 2.2
_symmetry_space_group_name_H-M    P1
_symmetry_Int_Tables_number       1
_space_group_crystal_system       triclinic
_cell_length_a                    13.026635
_cell_length_b                    10.804314
_cell_length_c                    9.883136
_cell_angle_alpha                 92.510668
_cell_angle_beta                  96.050021
_cell_angle_gamma                 92.35523
_cell_volume                      1380.45179369

loop_
_atom_site_label
_atom_site_type_symbol
_atom_type_description
_atom_site_fract_x
_atom_site_fract_y
_atom_site_fract_z
_atom_type_partial_charge
C1    C     C_R   0.506550 0.260405 0.497435 0.854633
C2    C     C_R   0.701530 0.505982 0.525095 0.902873
C3    C     C_R   0.813215 0.522412 0.535594 -0.267536
C4    C     C_R   0.185041 0.497604 0.456398 -0.274095
C5    C     C_R   0.021937 0.480553 0.313287 -0.233613
C6    C     C_R   0.977071 0.576136 0.665727 -0.216780
C7    C     C_R   0.128530 0.476151 0.326804 -0.056196
C8    C     C_R   0.870203 0.574981 0.655413 -0.088201
C9    C     C_R   0.131997 0.519997 0.570921 0.449050
C10   C     C_R   0.864162 0.489572 0.420469 0.420082
C11   C     C_R   0.027036 0.539724 0.553476 -0.038671
C12   C     C_R   0.499763 0.740382 0.503480 0.903155
C13   C     C_R   0.970629 0.507825 0.427193 -0.010903
C14   C     C_R   0.498731 0.053377 0.371800 -0.011170
C15   C     C_R   0.528136 0.948362 0.630002 0.012189
C16   C     C_R   0.488383 0.927478 0.382936 -0.211970
C17   C     C_R   0.542086 0.074649 0.618151 -0.246305
C18   C     C_3   0.805319 0.310771 0.299738 0.086111
C19   C     C_3   0.780683 0.259169 0.153681 -0.693312
C20   C     C_3   0.146182 0.363053 0.713605 0.131047
C21   C     C_3   0.137101 0.341635 0.861890 -0.722593
C22   C     C_2   0.822275 0.641030 0.764760 0.942677
C23   C     C_R   0.502320 0.873788 0.508928 -0.130292
C24   C     C_2   0.175543 0.425078 0.209854 0.938029
C25   C     C_2   0.491543 0.094964 0.230410 0.896761
C26   C     C_2   0.534890 0.904241 0.770875 0.876270
C27   C     C_3   0.713793 0.699575 0.142328 0.105496
C28   C     C_3   0.773145 0.774935 0.261221 -0.728601
C29   C     C_3   0.383911 0.207476 0.869960 0.040992
C30   C     C_3   0.325625 0.117895 0.762316 -0.796303
C31   C     C_R   0.519296 0.128474 0.492875 -0.143741
C32   C     C_R   0.559230 0.586678 0.085136 0.552558
C33   C     C_R   0.442324 0.411784 0.914714 0.557626
C34   C     C_R   0.557727 0.586659 0.940213 -0.244502
C35   C     C_R   0.441917 0.413725 0.059927 -0.223483
C36   C     C_R   0.297841 0.496438 0.473815 0.895775
H1    H     H_    0.979271 0.456609 0.214733 0.198868
H2    H     H_    0.769494 0.156631 0.152154 0.223505
H3    H     H_    0.709212 0.299123 0.105957 0.275097
H4    H     H_    0.205835 0.305244 0.674908 0.193307
H5    H     H_    0.070423 0.329992 0.657153 0.103466
H6    H     H_    0.076466 0.399594 0.899184 0.262141
H7    H     H_    0.116508 0.242596 0.875575 0.190527
H8    H     H_    0.212174 0.367299 0.920402 0.299284
H9    H     H_    0.730684 0.777727 0.812802 0.341981
H10   H     H_    0.226250 0.270705 0.119407 0.322510
H11   H     H_    0.445808 0.033576 0.037470 0.337555
H12   H     H_    0.021777 0.609318 0.760168 0.221868
H13   H     H_    0.607153 0.921823 0.962112 0.339696
H14   H     H_    0.717643 0.753906 0.050272 0.141191
H15   H     H_    0.752113 0.610238 0.128854 0.211735
H16   H     H_    0.767999 0.726849 0.357317 0.262255
H17   H     H_    0.855667 0.787050 0.243570 0.219159
H18   H     H_    0.740185 0.867683 0.271560 0.237686
H19   H     H_    0.345814 0.196411 0.963971 0.160732
H20   H     H_    0.465853 0.181341 0.886146 0.160310
H21   H     H_    0.343264 0.140665 0.658705 0.263113
H22   H     H_    0.346971 0.021765 0.782071 0.251118
H23   H     H_    0.471267 0.870038 0.289897 0.231240
H24   H     H_    0.241190 0.120901 0.767126 0.229979
H25   H     H_    0.563574 0.132582 0.709785 0.195488
H26   H     H_    0.600372 0.657478 0.893492 0.177402
H27   H     H_    0.394242 0.348594 0.107621 0.162074
H28   H     H_    0.742999 0.278860 0.360551 0.172069
H29   H     H_    0.879566 0.272151 0.341766 0.124123
H30   H     H_    0.845402 0.283365 0.093535 0.228921
N1    N     N_R   0.499970 0.499970 0.857200 -0.121246
N2    N     N_R   0.500030 0.500030 0.142800 -0.116002
O1    O     O_R   0.499990 0.316750 0.614620 -0.599166
O2    O     O_3   0.174251 0.489757 0.698518 -0.564289
O3    O     O_2   0.851545 0.625564 0.884257 -0.670121
O4    O     O_R   0.748821 0.728078 0.730311 -0.808632
O5    O     O_2   0.204814 0.494403 0.125984 -0.611102
O6    O     O_R   0.189384 0.297513 0.199890 -0.815944
O7    O     O_2   0.553427 0.172586 0.196629 -0.655426
O8    O     O_R   0.422573 0.030308 0.131535 -0.808488
O9    O     O_2   0.466858 0.835068 0.805664 -0.603064
O10   O     O_R   0.613448 0.953414 0.868116 -0.837864
O11   O     O_3   0.610325 0.680524 0.169749 -0.596244
O12   O     O_R   0.500010 0.683250 0.385380 -0.579239
O13   O     O_3   0.378529 0.330263 0.827654 -0.587480
O14   O     O_R   0.499990 0.316780 0.385290 -0.598291
O15   O     O_R   0.500010 0.683220 0.614710 -0.579075
O16   O     O_R   0.346360 0.499970 0.595710 -0.525018
O17   O     O_R   0.653640 0.500030 0.404290 -0.551929
O18   O     O_R   0.346360 0.499990 0.366380 -0.610648
O19   O     O_R   0.653640 0.500010 0.633620 -0.625122
O20   O     O_3   0.810336 0.441721 0.299712 -0.612571
Zn1   Zn    Zn3+2 0.500000 0.499980 0.653120 1.054637
Zn2   Zn    Zn3+2 0.500000 0.500020 0.346880 1.056869

loop_
_geom_bond_atom_site_label_1
_geom_bond_atom_site_label_2
_ccdc_geom_bond_type
C4    C36   S    
C5    H1    S    
C28   H16   S    
C1    C31   S    
C14   C31   A    
C18   H28   S    
C20   H5    S    
C18   H29   S    
C12   C23   S    
C10   O20   S    
C26   O10   S    
C6    H12   S    
C2    O17   A    
H11   O8    S    
C27   O11   S    
C20   H4    S    
C24   O5    D    
C7    C24   S    
C30   H21   S    
C30   H22   S    
C34   H26   S    
H13   O10   S    
C19   H30   S    
C18   C19   S    
C17   H25   S    
C21   H7    S    
C30   H24   S    
N2    Zn2   S    
C5    C13   A    
C27   H14   S    
C32   N2    A    
C15   C23   A    
H9    O4    S    
C20   O2    S    
C4    C7    A    
O1    Zn1   S    
C22   O4    S    
C27   H15   S    
O15   Zn1   S    
C26   O9    D    
C9    O2    S    
C3    C8    A    
O18   Zn2   S    
C6    C11   A    
C5    C7    A    
C28   H18   S    
C15   C26   S    
C6    C8    A    
C29   H19   S    
C36   O18   A    
C1    O14   A    
C18   O20   S    
C12   O15   A    
C25   O7    D    
C16   H23   S    
C32   C34   A    
C29   O13   S    
C29   C30   S    
C19   H2    S    
C21   H8    S    
C8    C22   S    
O17   Zn2   S    
C2    O19   A    
C9    C11   A    
C19   H3    S    
C16   C23   A    
O19   Zn1   S    
C17   C31   A    
C14   C16   A    
O16   Zn1   S    
C22   O3    D    
H10   O6    S    
C33   N1    A    
C15   C17   A    
C10   C13   A    
C34   N1    A    
C28   H17   S    
C29   H20   S    
O14   Zn2   S    
C25   O8    S    
C2    C3    S    
C3    C10   A    
C32   O11   S    
C11   C13   A    
C24   O6    S    
C35   N2    A    
C36   O16   A    
C12   O12   A    
C33   C35   A    
C14   C25   S    
O12   Zn2   S    
C1    O1    A    
C21   H6    S    
C20   C21   S    
C27   C28   S    
N1    Zn1   S    
C35   H27   S    
C4    C9    A    
C33   O13   S    
