data_mof_unit_65800.cif
_audit_creation_date              2012-12-11T15:02:55-0500
_audit_creation_method            fapswitch 2.2
_symmetry_space_group_name_H-M    P1
_symmetry_Int_Tables_number       1
_space_group_crystal_system       triclinic
_cell_length_a                    13.302129
_cell_length_b                    13.273414
_cell_length_c                    26.72361
_cell_angle_alpha                 96.141433
_cell_angle_beta                  97.160969
_cell_angle_gamma                 61.713734
_cell_volume                      4116.40767379

loop_
_atom_site_label
_atom_site_type_symbol
_atom_type_description
_atom_site_fract_x
_atom_site_fract_y
_atom_site_fract_z
_atom_type_partial_charge
C1    C     C_R   0.378017 0.725192 0.435398 0.561421
C2    C     C_1   0.321710 0.342381 0.268701 0.149116
C3    C     C_1   0.336749 0.349578 0.321738 0.037069
C4    C     C_1   0.358406 0.357432 0.366543 0.023402
C5    C     C_3   0.917084 0.250747 0.270967 0.109820
C6    C     C_3   0.848460 0.214537 0.228326 0.045605
C7    C     C_1   0.893354 0.289865 0.102011 0.083596
C8    C     C_1   0.763766 0.372071 0.388065 0.038287
C9    C     C_3   0.907861 0.344136 0.237683 0.101212
C10   C     C_3   0.840209 0.306759 0.195417 -0.031128
C11   C     C_3   0.794037 0.432452 0.258890 -0.134888
C12   C     C_R   0.394103 0.373615 0.418071 0.549234
C13   C     C_3   0.803611 0.338842 0.291647 -0.015889
C14   C     C_3   0.727640 0.393554 0.216484 0.046139
C15   C     C_3   0.735034 0.302007 0.249892 0.100939
C16   C     C_1   0.864683 0.296470 0.143291 0.092409
C17   C     C_1   0.785141 0.355306 0.344895 0.032150
C18   C     C_3   0.355735 0.921913 0.268216 0.041737
C19   C     C_3   0.448282 0.826584 0.236483 0.088684
C20   C     C_1   0.314607 0.876851 0.099611 0.054091
C21   C     C_1   0.356980 0.782982 0.390161 0.065191
C22   C     C_3   0.261194 0.923590 0.227777 -0.048556
C23   C     C_R   0.722447 0.400803 0.436624 0.552265
C24   C     C_3   0.353427 0.827611 0.196151 -0.047404
C25   C     C_3   0.250467 0.832120 0.254908 0.022871
C26   C     C_3   0.344838 0.831164 0.295119 -0.034832
C27   C     C_3   0.343031 0.736704 0.223466 0.038983
C28   C     C_3   0.437329 0.735389 0.263885 0.046238
C29   C     C_1   0.340964 0.843872 0.141836 0.060117
C30   C     C_1   0.346488 0.815600 0.348682 0.086314
C31   C     C_3   0.359198 0.237355 0.724211 0.116133
C32   C     C_3   0.423517 0.276304 0.767540 0.125399
C33   C     C_1   0.295308 0.311496 0.887886 0.043056
C34   C     C_R   0.400736 0.679611 0.580257 0.552568
C35   C     C_1   0.362386 0.356980 0.602999 0.037652
C36   C     C_3   0.247161 0.303004 0.751009 -0.150403
C37   C     C_3   0.312002 0.342333 0.793915 -0.008570
C38   C     C_3   0.215134 0.412237 0.722888 -0.154011
C39   C     C_3   0.327301 0.345692 0.696855 0.013909
C40   C     C_3   0.280282 0.450130 0.766381 0.065701
C41   C     C_3   0.391894 0.385051 0.739693 0.091586
C42   C     C_1   0.303661 0.331423 0.846462 0.038468
C43   C     C_1   0.341945 0.349034 0.644291 0.021116
C44   C     C_1   0.888896 0.294753 0.864804 0.022092
C45   C     C_R   0.395991 0.375245 0.557902 0.543209
C46   C     C_1   0.862477 0.305644 0.820268 -0.002325
C47   C     C_1   0.841512 0.318234 0.767814 0.042253
C48   C     C_1   0.825579 0.330928 0.723123 0.040809
C49   C     C_1   0.802786 0.349951 0.671188 -0.005972
C50   C     C_1   0.774344 0.371131 0.627485 0.019312
C51   C     C_1   0.297083 0.884818 0.865081 0.008609
C52   C     C_1   0.321387 0.847136 0.822684 -0.001491
C53   C     C_1   0.345021 0.810575 0.771901 0.072967
C54   C     C_1   0.361674 0.782565 0.728035 0.079123
C55   C     C_1   0.377836 0.750272 0.676356 0.020892
C56   C     C_R   0.725025 0.403113 0.577394 0.542108
C57   C     C_1   0.389362 0.720411 0.632282 0.033260
C58   C     C_R   0.942199 0.277313 0.056260 0.555876
C59   C     C_R   0.288132 0.270512 0.073298 0.550145
C60   C     C_R   0.272107 0.935292 0.053541 0.554494
C61   C     C_R   0.936372 0.279644 0.916090 0.545020
C62   C     C_R   0.281291 0.274589 0.933178 0.542247
C63   C     C_R   0.262552 0.940644 0.913609 0.542359
C64   C     C_1   0.305060 0.300916 0.125364 0.031751
C65   C     C_1   0.311920 0.319220 0.170343 0.045570
C66   C     C_1   0.316056 0.333806 0.223310 0.152224
Cr1   Cr    Cr6+3 0.585520 0.589730 0.508860 1.077774
Cr2   Cr    Cr6+3 0.329140 0.580910 0.495080 1.072715
Cr3   Cr    Cr6+3 0.585350 0.329380 0.496090 1.080704
Cr4   Cr    Cr6+3 0.077110 0.074680 0.982320 1.086413
Cr5   Cr    Cr6+3 0.079190 0.334150 0.996330 1.072652
Cr6   Cr    Cr6+3 0.334370 0.081620 0.994860 1.079031
H1    H     H_    0.129720 0.467694 0.703960 0.148511
H2    H     H_    0.187587 0.269004 0.756354 0.141687
H3    H     H_    0.774461 0.521768 0.271220 0.195905
O1    O     O_R   0.700650 0.499560 0.456090 -0.503984
O2    O     O_R   0.338920 0.475010 0.540740 -0.510691
O3    O     O_R   0.494530 0.302750 0.544370 -0.488851
O4    O     O_R   0.682350 0.343320 0.552170 -0.488720
O5    O     O_3   0.500010 0.500010 0.500010 -0.292020
O6    O     O_R   0.170670 0.959150 0.034900 -0.481812
O7    O     O_R   0.983710 0.178390 0.033850 -0.475922
O8    O     O_R   0.965940 0.354890 0.046440 -0.496828
O9    O     O_R   0.187770 0.326880 0.051460 -0.489975
O10   O     O_R   0.362310 0.174000 0.055490 -0.485251
O11   O     O_R   0.326800 0.983030 0.039600 -0.490293
O12   O     O_R   0.479220 0.682850 0.457510 -0.481071
O13   O     O_R   0.165220 0.960770 0.926060 -0.501637
O14   O     O_R   0.978660 0.179890 0.932950 -0.491117
O15   O     O_R   0.960490 0.356500 0.937600 -0.500441
O16   O     O_R   0.182720 0.328380 0.950570 -0.495154
O17   O     O_R   0.356860 0.175610 0.946640 -0.493596
O18   O     O_R   0.321740 0.984530 0.938700 -0.491845
O19   O     O_3   0.163560 0.163490 0.991170 -0.276174
O20   O     O_R   0.304230 0.696360 0.445090 -0.485612
O21   O     O_R   0.337790 0.472640 0.439840 -0.487248
O22   O     O_R   0.493310 0.300190 0.435520 -0.487789
O23   O     O_R   0.681220 0.340950 0.451270 -0.480846
O24   O     O_R   0.701870 0.502110 0.564940 -0.504680
O25   O     O_R   0.480360 0.685220 0.558410 -0.482221
O26   O     O_R   0.305450 0.698920 0.553940 -0.490097
C67   C     C_2   0.863620 0.098082 0.210014 0.655481
O27   O     O_2   0.867925 0.033158 0.240233 -0.440109
O28   O     O_R   0.862734 0.068013 0.158308 -0.645975
H4    H     H_    0.870419 0.988306 0.150688 0.353969
C68   C     C_2   0.332535 0.635146 0.198495 0.647105
O29   O     O_2   0.336194 0.562794 0.224353 -0.470027
O30   O     O_R   0.314542 0.625773 0.145975 -0.701145
H5    H     H_    0.305368 0.555346 0.133776 0.334743
I1    I     I_    0.103729 0.822266 0.273236 -0.167391
C69   C     C_2   0.165761 0.026533 0.202911 0.608425
O31   O     O_2   0.160102 0.120656 0.212844 -0.427773
O32   O     O_R   0.088578 0.014394 0.165577 -0.644355
H6    H     H_    0.101831 0.932446 0.159925 0.323411
I2    I     I_    0.588457 0.170059 0.804055 -0.254020
I3    I     I_    0.417105 0.068344 0.689788 -0.310146
I4    I     I_    0.506225 0.451381 0.729753 -0.342052
C70   C     C_2   0.236085 0.569859 0.789360 0.606716
O33   O     O_2   0.209924 0.648917 0.762437 -0.501470
O34   O     O_R   0.225103 0.590634 0.841253 -0.684577
H7    H     H_    0.195020 0.674765 0.852160 0.346987
I5    I     I_    0.057428 0.145897 0.321963 -0.219806
I6    I     I_    0.604762 0.261315 0.263711 -0.164626
C71   C     C_2   0.627612 0.464719 0.181242 0.635303
O35   O     O_2   0.595312 0.567284 0.180260 -0.501817
O36   O     O_R   0.576640 0.411157 0.147377 -0.666856
H8    H     H_    0.516436 0.465493 0.122519 0.353463
I7    I     I_    0.030119 0.399267 0.227742 -0.246708
I8    I     I_    0.605292 0.819905 0.220794 -0.131870
C72   C     C_2   0.365329 0.023531 0.293632 0.657063
O37   O     O_2   0.377878 0.087662 0.268442 -0.476854
O38   O     O_R   0.361675 0.043493 0.345923 -0.664792
H9    H     H_    0.369369 0.114499 0.358559 0.342899
C73   C     C_2   0.533003 0.638426 0.291447 0.592580
O39   O     O_2   0.537373 0.544077 0.287782 -0.490710
O40   O     O_R   0.609919 0.660812 0.325266 -0.681732
H10   H     H_    0.664431 0.592816 0.345636 0.333819

loop_
_geom_bond_atom_site_label_1
_geom_bond_atom_site_label_2
_ccdc_geom_bond_type
Cr2   O5    S    
C40   C70   S    
C19   I8    S    
O36   H8    S    
C63   O13   A    
C54   C55   S    
C69   O31   D    
C18   C26   S    
C24   C27   S    
C23   O1    A    
Cr4   O13   S    
Cr6   O10   S    
C39   C41   S    
Cr5   O19   S    
C53   C54   T    
O34   H7    S    
C1    C21   S    
C59   C64   S    
Cr2   O21   S    
C56   O4    A    
C15   I6    S    
C28   C73   S    
C33   C42   T    
C36   C37   S    
Cr4   O19   S    
O32   H6    S    
C37   C40   S    
C58   O7    A    
C5    C6    S    
Cr6   O17   S    
C11   C14   S    
C68   O29   D    
C8    C23   S    
O30   H5    S    
C18   C19   S    
C37   C42   S    
Cr4   O6    S    
C24   C29   S    
C6    C15   S    
C70   O33   D    
C72   O37   D    
C31   C32   S    
C44   C46   T    
C33   C62   S    
C22   C25   S    
C62   O17   A    
C34   C57   S    
C34   O25   A    
C32   C41   S    
C22   C69   S    
C45   O3    A    
C20   C60   S    
C35   C43   T    
C9    C10   S    
C7    C58   S    
C5    C13   S    
Cr1   O24   S    
Cr6   O19   S    
Cr3   O23   S    
C31   C36   S    
Cr3   O3    S    
O28   H4    S    
C61   O14   A    
Cr5   O8    S    
C20   C29   T    
C9    I7    S    
C14   C71   S    
C51   C52   T    
C34   O26   A    
C51   C63   S    
C59   O9    A    
C10   C14   S    
C60   O11   A    
O38   H9    S    
C39   C43   S    
C27   C68   S    
C25   C26   S    
C5    I5    S    
C50   C56   S    
C72   O38   S    
C59   O10   A    
C5    C9    S    
C60   O6    A    
Cr6   O11   S    
C47   C48   T    
C1    O20   A    
C62   O16   A    
C12   O22   A    
C69   O32   S    
C32   C37   S    
Cr2   O26   S    
C67   O28   S    
C19   C28   S    
C9    C11   S    
Cr2   O20   S    
C36   H2    S    
C25   I1    S    
Cr6   O18   S    
Cr1   O25   S    
C40   C41   S    
C26   C30   S    
C55   C57   T    
C22   C24   S    
C18   C72   S    
Cr4   O14   S    
C4    C12   S    
C3    C4    T    
C35   C45   S    
C31   I3    S    
C61   O15   A    
C71   O36   S    
Cr5   O9    S    
Cr2   O2    S    
C46   C47   S    
C48   C49   S    
C18   C22   S    
Cr1   O12   S    
C7    C16   T    
Cr1   O5    S    
O40   H10   S    
C2    C66   T    
C6    C10   S    
C73   O40   S    
C73   O39   D    
C44   C61   S    
C25   C27   S    
C21   C30   T    
C63   O18   A    
C26   C28   S    
C8    C17   T    
C13   C17   S    
C41   I4    S    
C64   C65   T    
C13   C15   S    
C19   C24   S    
C65   C66   S    
C11   H3    S    
C58   O8    A    
C38   C40   S    
C11   C13   S    
C38   C39   S    
Cr5   O15   S    
C68   O30   S    
C36   C38   S    
C31   C39   S    
C2    C3    S    
C6    C67   S    
C32   I2    S    
C67   O27   D    
Cr4   O7    S    
C70   O34   S    
Cr3   O4    S    
C1    O12   A    
C23   O23   A    
Cr5   O16   S    
C49   C50   T    
C27   C28   S    
C14   C15   S    
C12   O21   A    
Cr3   O5    S    
C10   C16   S    
Cr1   O1    S    
C56   O24   A    
C45   O2    A    
C52   C53   S    
C71   O35   D    
C38   H1    S    
Cr3   O22   S    
