data_mof_unit_57799.cif
_audit_creation_date              2012-12-11T15:37:26-0500
_audit_creation_method            fapswitch 2.2
_symmetry_space_group_name_H-M    P1
_symmetry_Int_Tables_number       1
_space_group_crystal_system       triclinic
_cell_length_a                    17.33974
_cell_length_b                    24.291289
_cell_length_c                    14.819954
_cell_angle_alpha                 89.990307
_cell_angle_beta                  126.010573
_cell_angle_gamma                 90.003188
_cell_volume                      5049.39560446

loop_
_atom_site_label
_atom_site_type_symbol
_atom_type_description
_atom_site_fract_x
_atom_site_fract_y
_atom_site_fract_z
_atom_type_partial_charge
C1    C     C_R   0.850875 0.652773 0.907656 -0.142987
C2    C     C_3   0.576564 0.500095 0.654359 -0.124610
C3    C     C_3   0.050086 0.003838 0.535123 0.550802
C4    C     C_3   0.392220 0.512329 0.714588 0.274956
C5    C     C_3   0.322516 0.491883 0.737763 -0.874218
C6    C     C_3   0.576989 0.489664 0.399471 0.258119
C7    C     C_3   0.649197 0.503427 0.376259 -0.862939
C8    C     C_3   0.891856 0.997096 0.714883 0.276145
C9    C     C_3   0.823466 0.970918 0.734950 -0.875971
C10   C     C_3   0.077655 0.014275 0.400425 0.256596
C11   C     C_3   0.150980 0.002846 0.377899 -0.860913
C12   C     C_1   0.516234 0.407990 0.693165 0.091063
C13   C     C_3   0.902469 0.000642 0.468448 -0.107680
C14   C     C_1   0.469511 0.593274 0.437731 0.075167
C15   C     C_1   0.464162 0.400940 0.447870 0.043332
C16   C     C_1   0.520610 0.596950 0.682617 0.050359
C17   C     C_1   0.019977 0.902138 0.679145 0.085080
C18   C     C_1   0.962824 0.100480 0.450818 0.045088
C19   C     C_1   0.971209 0.908464 0.434951 0.072857
C20   C     C_1   0.016749 0.090887 0.696236 0.056702
C21   C     C_3   0.076589 0.999984 0.654367 -0.124120
C22   C     C_R   0.789037 0.232262 0.898972 -0.162351
C23   C     C_R   0.342493 0.686157 0.099729 -0.168808
C24   C     C_R   0.342800 0.313981 0.100052 -0.171668
C25   C     C_R   0.788967 0.767740 0.898617 -0.161566
C26   C     C_R   0.288837 0.732334 0.898633 -0.162577
C27   C     C_R   0.842854 0.185985 0.100138 -0.172132
C28   C     C_R   0.842336 0.813696 0.099725 -0.168250
C29   C     C_R   0.191038 0.374501 0.092992 -0.131561
C30   C     C_R   0.289009 0.267761 0.898892 -0.161219
C31   C     C_R   0.240076 0.687063 0.897946 -0.165585
C32   C     C_R   0.891042 0.231647 0.100954 -0.168950
C33   C     C_R   0.890770 0.768207 0.100587 -0.169330
C34   C     C_R   0.240339 0.313069 0.898225 -0.164629
C35   C     C_R   0.740363 0.186957 0.898297 -0.165538
C36   C     C_R   0.390855 0.731706 0.100604 -0.169481
C37   C     C_R   0.391003 0.268334 0.100871 -0.168715
C38   C     C_R   0.740167 0.812992 0.897948 -0.164413
C39   C     C_R   0.260093 0.667753 0.998641 0.136731
C40   C     C_R   0.191002 0.625518 0.092940 -0.130409
C41   C     C_R   0.857934 0.258212 0.000410 0.137623
C42   C     C_R   0.857863 0.741760 0.000073 0.136936
C43   C     C_R   0.260351 0.332380 0.998908 0.137911
C44   C     C_R   0.760385 0.167616 0.998974 0.137928
C45   C     C_R   0.357821 0.758246 0.000108 0.137012
C46   C     C_R   0.357907 0.241792 0.000331 0.137365
C47   C     C_R   0.760048 0.832193 0.998638 0.136687
C48   C     C_R   0.889127 0.449997 0.459925 -0.188098
C49   C     C_R   0.888924 0.549643 0.366454 -0.162278
C50   C     C_R   0.890159 0.450028 0.367380 -0.154791
C51   C     C_R   0.850899 0.347210 0.907768 -0.143867
C52   C     C_R   0.887505 0.549682 0.458806 -0.167850
C53   C     C_R   0.387263 0.950359 0.458699 -0.168658
C54   C     C_R   0.390251 0.050003 0.367435 -0.155565
C55   C     C_R   0.388848 0.950389 0.366456 -0.160991
C56   C     C_R   0.389151 0.050042 0.459926 -0.189148
C57   C     C_R   0.901944 0.499869 0.329208 0.140557
C58   C     C_R   0.897915 0.499890 0.512808 0.134740
C59   C     C_R   0.401987 0.000153 0.329268 0.140413
C60   C     C_R   0.397710 0.000147 0.512707 0.137127
C61   C     C_R   0.945325 0.348286 0.093197 -0.141808
C62   C     C_R   0.350898 0.152795 0.907738 -0.143752
C63   C     C_R   0.095844 0.624226 0.905814 -0.122065
C64   C     C_R   0.095948 0.375831 0.905890 -0.121579
C65   C     C_R   0.945311 0.651724 0.093097 -0.142185
C66   C     C_R   0.445287 0.848278 0.093128 -0.142455
C67   C     C_R   0.595966 0.124162 0.905899 -0.121819
C68   C     C_R   0.595815 0.875747 0.905807 -0.122272
C69   C     C_R   0.445323 0.151716 0.093164 -0.141426
C70   C     C_R   0.979766 0.546297 0.248008 -0.111020
C71   C     C_R   0.948244 0.454068 0.693571 -0.130516
C72   C     C_R   0.948257 0.545909 0.693505 -0.129307
C73   C     C_R   0.690985 0.874461 0.092937 -0.131051
C74   C     C_R   0.979790 0.453661 0.247966 -0.109090
C75   C     C_R   0.479828 0.046339 0.247998 -0.112156
C76   C     C_R   0.448181 0.954105 0.693473 -0.128545
C77   C     C_R   0.448151 0.045942 0.693524 -0.131733
C78   C     C_R   0.479786 0.953702 0.248051 -0.108034
C79   C     C_R   0.732827 0.454473 0.759507 -0.061245
C80   C     C_R   0.259983 0.545391 0.302185 -0.139238
C81   C     C_R   0.259738 0.454332 0.301830 -0.136762
C82   C     C_R   0.732831 0.545634 0.759056 -0.057812
C83   C     C_R   0.232820 0.954354 0.758990 -0.065184
C84   C     C_R   0.691024 0.125517 0.092999 -0.130690
C85   C     C_R   0.759783 0.045702 0.301672 -0.145258
C86   C     C_R   0.760105 0.954639 0.302167 -0.130289
C87   C     C_R   0.232888 0.045510 0.759780 -0.053177
C88   C     C_R   0.882787 0.684227 0.000695 0.056104
C89   C     C_R   0.187058 0.362093 0.998984 0.041474
C90   C     C_R   0.186922 0.637988 0.998856 0.041592
C91   C     C_R   0.882800 0.315766 0.000887 0.055909
C92   C     C_R   0.382792 0.184239 0.000834 0.056083
C93   C     C_R   0.686885 0.861968 0.998846 0.041955
C94   C     C_R   0.687069 0.137909 0.999008 0.041014
C95   C     C_R   0.350871 0.847235 0.907685 -0.143147
C96   C     C_R   0.382756 0.815781 0.000740 0.055954
C97   C     C_R   0.947875 0.499957 0.272358 0.033048
C98   C     C_R   0.931462 0.499974 0.629131 0.064250
C99   C     C_R   0.447923 0.000046 0.272421 0.032763
C100  C     C_R   0.431303 0.000047 0.629056 0.063532
C101  C     C_R   0.677995 0.500103 0.739672 0.092349
C102  C     C_R   0.310668 0.499737 0.361325 0.149206
C103  C     C_R   0.178015 0.999871 0.739772 0.092265
C104  C     C_R   0.810815 0.000326 0.361159 0.149060
C105  C     C_3   0.501403 0.455520 0.623347 -0.130733
C106  C     C_3   0.402334 0.499452 0.468602 -0.107419
C107  C     C_3   0.478067 0.544050 0.500667 -0.133478
C108  C     C_3   0.476230 0.453080 0.505154 -0.145144
C109  C     C_3   0.503073 0.546410 0.618756 -0.149229
C110  C     C_3   0.003740 0.953110 0.616917 -0.134206
C111  C     C_3   0.975671 0.047715 0.506682 -0.138293
C112  C     C_3   0.978901 0.956880 0.499158 -0.140015
C113  C     C_3   0.000790 0.043856 0.624873 -0.146055
C114  C     C_3   0.427141 0.501814 0.586804 0.549622
C115  C     C_3   0.549942 0.497700 0.534957 0.550983
C116  C     C_3   0.927177 0.996856 0.586488 0.549388
H1    H     H_    0.812396 0.666624 0.822309 0.091049
H2    H     H_    0.067404 0.629405 0.819237 0.093085
H3    H     H_    0.067570 0.370680 0.819329 0.093516
H4    H     H_    0.993268 0.665541 0.178423 0.088257
H5    H     H_    0.493218 0.834455 0.178463 0.088742
H6    H     H_    0.567608 0.129297 0.819336 0.093300
H7    H     H_    0.567364 0.870556 0.819229 0.093445
H8    H     H_    0.493295 0.165527 0.178492 0.088096
H9    H     H_    0.968917 0.588888 0.258080 0.092701
H10   H     H_    0.929010 0.412052 0.665082 0.086111
H11   H     H_    0.929149 0.587927 0.664924 0.085948
H12   H     H_    0.249603 0.368411 0.179195 0.099249
H13   H     H_    0.968967 0.411053 0.257922 0.092584
H14   H     H_    0.469023 0.088949 0.257945 0.092794
H15   H     H_    0.429086 0.912088 0.664915 0.085691
H16   H     H_    0.428891 0.087962 0.665030 0.086334
H17   H     H_    0.468929 0.911112 0.258140 0.092617
H18   H     H_    0.709734 0.412061 0.743461 0.100660
H19   H     H_    0.273039 0.587349 0.332097 0.108199
H20   H     H_    0.271900 0.412354 0.331416 0.112447
H21   H     H_    0.709970 0.588070 0.742696 0.103880
H22   H     H_    0.209969 0.911919 0.742562 0.101883
H23   H     H_    0.249581 0.631559 0.179156 0.098435
H24   H     H_    0.771760 0.087668 0.331219 0.112260
H25   H     H_    0.773391 0.912681 0.332156 0.108821
H26   H     H_    0.209781 0.087922 0.743808 0.102224
H27   H     H_    0.765420 0.249501 0.819393 0.110430
H28   H     H_    0.364236 0.669570 0.178941 0.123456
H29   H     H_    0.364778 0.330692 0.179358 0.120620
H30   H     H_    0.765483 0.750564 0.819049 0.110856
H31   H     H_    0.265236 0.749576 0.819062 0.110503
H32   H     H_    0.864872 0.169236 0.179463 0.119766
H33   H     H_    0.863902 0.830131 0.178937 0.123725
H34   H     H_    0.812411 0.333347 0.822438 0.090781
H35   H     H_    0.265403 0.250537 0.819316 0.110759
H36   H     H_    0.180925 0.671367 0.818247 0.110063
H37   H     H_    0.947793 0.248633 0.180710 0.111359
H38   H     H_    0.947424 0.751189 0.180370 0.111619
H39   H     H_    0.181225 0.328796 0.818522 0.110528
H40   H     H_    0.681230 0.171259 0.818589 0.110144
H41   H     H_    0.447600 0.748671 0.180385 0.111879
H42   H     H_    0.447746 0.251337 0.180630 0.111254
H43   H     H_    0.681100 0.828765 0.818259 0.110816
H44   H     H_    0.890455 0.410673 0.494832 0.111866
H45   H     H_    0.312402 0.166667 0.822400 0.091140
H46   H     H_    0.890302 0.588900 0.333132 0.108555
H47   H     H_    0.892413 0.410749 0.334813 0.108823
H48   H     H_    0.887547 0.588990 0.492898 0.108373
H49   H     H_    0.387189 0.911055 0.492742 0.108364
H50   H     H_    0.392602 0.089282 0.334922 0.108732
H51   H     H_    0.390226 0.911131 0.333157 0.108704
H52   H     H_    0.390564 0.089368 0.494863 0.111338
H53   H     H_    0.401606 0.557361 0.730435 0.109820
H54   H     H_    0.461793 0.491309 0.773886 0.083781
H55   H     H_    0.312139 0.446756 0.723549 0.256639
H56   H     H_    0.749562 0.868429 0.179157 0.098028
H57   H     H_    0.350920 0.500729 0.825729 0.208727
H58   H     H_    0.252680 0.512907 0.681776 0.259146
H59   H     H_    0.513738 0.516618 0.346184 0.090855
H60   H     H_    0.555450 0.446113 0.375179 0.107829
H61   H     H_    0.709825 0.474277 0.422335 0.257329
H62   H     H_    0.615742 0.499570 0.285632 0.210036
H63   H     H_    0.675740 0.546168 0.403378 0.257183
H64   H     H_    0.898700 0.041442 0.736624 0.109623
H65   H     H_    0.962609 0.976795 0.771482 0.083911
H66   H     H_    0.815628 0.926320 0.714764 0.256062
H67   H     H_    0.749562 0.131639 0.179196 0.099281
H68   H     H_    0.851475 0.975868 0.823837 0.209338
H69   H     H_    0.752467 0.991010 0.681698 0.259626
H70   H     H_    0.054242 0.057635 0.376657 0.106889
H71   H     H_    0.015727 0.986564 0.346430 0.092020
H72   H     H_    0.178934 0.960262 0.403945 0.257665
H73   H     H_    0.117992 0.007664 0.287551 0.209751
H74   H     H_    0.210572 0.032579 0.425336 0.256196
H75   H     H_    0.312422 0.833389 0.822349 0.090603
H76   H     H_    0.993294 0.334472 0.178534 0.088525
N1    N     N_R   0.892620 0.603790 0.941800 -0.044785
N2    N     N_R   0.047790 0.602400 0.942090 -0.040412
N3    N     N_R   0.047790 0.397600 0.942090 -0.040408
N4    N     N_R   0.952210 0.602400 0.057910 -0.039816
N5    N     N_R   0.452210 0.897600 0.057910 -0.039943
N6    N     N_R   0.547790 0.102400 0.942090 -0.040328
N7    N     N_R   0.547790 0.897600 0.942090 -0.040476
N8    N     N_R   0.452210 0.102400 0.057910 -0.039786
N9    N     N_R   0.026300 0.529110 0.206760 -0.039193
N10   N     N_R   0.973700 0.470890 0.793240 -0.040082
N11   N     N_R   0.973700 0.529110 0.793240 -0.040301
N12   N     N_R   0.107380 0.396210 0.058200 -0.040275
N13   N     N_R   0.026300 0.470890 0.206760 -0.039270
N14   N     N_R   0.526300 0.029110 0.206760 -0.039313
N15   N     N_R   0.473700 0.970890 0.793240 -0.040272
N16   N     N_R   0.473700 0.029110 0.793240 -0.039996
N17   N     N_R   0.526300 0.970890 0.206760 -0.039161
N18   N     N_R   0.818530 0.472270 0.792960 -0.045213
N19   N     N_R   0.181470 0.527730 0.207040 -0.045724
N20   N     N_R   0.181470 0.472270 0.207040 -0.046530
N21   N     N_R   0.818530 0.527730 0.792960 -0.046338
N22   N     N_R   0.318530 0.972270 0.792960 -0.045608
N23   N     N_R   0.107380 0.603790 0.058200 -0.040257
N24   N     N_R   0.681470 0.027730 0.207040 -0.045695
N25   N     N_R   0.681470 0.972270 0.207040 -0.046654
N26   N     N_R   0.318530 0.027730 0.792960 -0.045809
N27   N     N_1   0.528012 0.370550 0.748230 -0.092723
N28   N     N_1   0.463275 0.632156 0.388794 -0.115364
N29   N     N_1   0.454873 0.359782 0.403210 -0.116215
N30   N     N_1   0.534605 0.636780 0.732951 -0.096421
N31   N     N_1   0.032852 0.861995 0.728227 -0.094683
N32   N     N_1   0.952897 0.142108 0.407224 -0.115855
N33   N     N_1   0.965709 0.870207 0.385043 -0.115158
N34   N     N_R   0.892620 0.396210 0.941800 -0.044429
N35   N     N_1   0.029508 0.127967 0.752495 -0.094447
N36   N     N_R   0.392620 0.103790 0.941800 -0.044882
N37   N     N_R   0.607380 0.896210 0.058200 -0.040436
N38   N     N_R   0.607380 0.103790 0.058200 -0.040098
N39   N     N_R   0.392620 0.896210 0.941800 -0.044362
N40   N     N_R   0.952210 0.397600 0.057910 -0.039920
Ni1   Ni    Ni4+2 0.934150 0.565840 0.869060 0.216177
Ni2   Ni    Ni4+2 0.065850 0.434160 0.130940 0.216256
Ni3   Ni    Ni4+2 0.065850 0.565840 0.130940 0.215710
Ni4   Ni    Ni4+2 0.934150 0.434160 0.869060 0.216254
Ni5   Ni    Ni4+2 0.434150 0.065840 0.869060 0.216521
Ni6   Ni    Ni4+2 0.565850 0.934160 0.130940 0.216677
Ni7   Ni    Ni4+2 0.565850 0.065840 0.130940 0.215366
Ni8   Ni    Ni4+2 0.434150 0.934160 0.869060 0.215843
O1    O     O_3   0.354007 0.501873 0.601942 -0.624833
O2    O     O_3   0.619990 0.496813 0.514395 -0.625842
O3    O     O_3   0.854132 0.991473 0.601179 -0.625034
O4    O     O_3   0.120389 0.006248 0.515065 -0.625889

loop_
_geom_bond_atom_site_label_1
_geom_bond_atom_site_label_2
_ccdc_geom_bond_type
C8    H65   S    
C15   C108  S    
C79   N18   A    
C64   N3    A    
C28   C47   A    
C55   C59   A    
C71   N10   A    
C59   C99   S    
C5    H58   S    
C16   N30   T    
C95   C96   A    
C58   C98   S    
C55   H51   S    
C67   N6    A    
C86   C104  A    
C17   C110  S    
C73   N37   A    
C21   C110  S    
C49   C57   A    
C2    C109  S    
C72   C98   A    
C34   H39   S    
C22   C35   A    
C48   H44   S    
C43   C89   S    
C20   N35   T    
C4    H54   S    
C76   H15   S    
C106  C114  S    
C68   N7    A    
C33   C42   A    
C108  C115  S    
N13   Ni2   S    
C95   N39   A    
C38   H43   S    
N11   Ni1   S    
C82   H21   S    
C9    H69   S    
C24   H29   S    
C12   C105  S    
C106  C108  S    
C75   N14   A    
N34   N40   A    
N9    Ni3   S    
C62   H45   S    
C46   C92   S    
C106  C107  S    
C115  O2    S    
C40   H23   S    
C61   N40   A    
N34   Ni4   S    
N23   Ni3   S    
C7    H61   S    
C77   C100  A    
C63   C90   A    
N8    N36   A    
C87   N26   A    
N12   Ni2   S    
C9    H66   S    
C26   C45   A    
C51   C91   A    
C27   C44   A    
C65   H4    S    
C61   H76   S    
C29   H12   S    
C51   H34   S    
C3    C111  S    
C27   H32   S    
C62   C92   A    
C22   H27   S    
C69   N8    A    
C32   C41   A    
C71   H10   S    
N14   Ni7   S    
N6    N38   A    
N18   Ni4   S    
C69   C92   A    
C18   N32   T    
C12   N27   T    
C62   N36   A    
C76   N15   A    
C95   H75   S    
C54   C59   A    
C113  C116  S    
C49   C52   A    
C1    C88   A    
C48   C50   A    
C50   H47   S    
C116  O3    S    
C28   H33   S    
C29   N12   A    
N22   Ni8   S    
N7    Ni8   S    
C107  C109  S    
C14   N28   T    
N38   Ni7   S    
C25   C42   A    
C64   C89   A    
C54   H50   S    
N21   Ni1   S    
C68   H7    S    
N1    Ni1   S    
C105  C108  S    
C53   C60   A    
C16   C109  S    
C10   H71   S    
C74   C97   A    
C81   C102  A    
C53   C55   A    
C5    H55   S    
C52   C58   A    
C71   C98   A    
C54   C56   A    
C63   N2    A    
N10   N11   A    
C30   C34   A    
C72   H11   S    
N15   N16   A    
C13   C116  S    
C105  C114  S    
C10   O4    S    
N24   N25   A    
C21   C113  S    
N22   N26   A    
C85   N24   A    
N2    N23   A    
C63   H2    S    
C29   C89   A    
C8    C9    S    
C1    H1    S    
N3    N12   A    
C69   H8    S    
C19   C112  S    
C11   H72   S    
C7    H62   S    
C80   C102  A    
N39   Ni8   S    
C13   C104  S    
C77   H16   S    
C21   C103  S    
C37   H42   S    
C15   N29   T    
C1    N1    A    
C17   N31   T    
N6    Ni5   S    
C25   C38   A    
C67   C94   A    
C82   N21   A    
N5    Ni6   S    
C8    H64   S    
N19   N20   A    
C85   H24   S    
C3    C112  S    
N1    N4    A    
C57   C97   S    
C56   H52   S    
C51   N34   A    
C75   C99   A    
C24   C37   A    
C47   C93   S    
C66   H5    S    
C7    H63   S    
C36   C45   A    
C111  C113  S    
C84   C94   A    
N17   Ni6   S    
C73   H56   S    
C35   C44   A    
C80   H19   S    
C78   N17   A    
C107  C115  S    
C49   H46   S    
C25   H30   S    
C85   C104  A    
C83   C103  A    
C36   H41   S    
C52   H48   S    
C80   N19   A    
C87   C103  A    
C109  C114  S    
C70   H9    S    
C53   H49   S    
C14   C107  S    
C41   C91   S    
C28   C33   A    
C72   N11   A    
C23   H28   S    
C77   N16   A    
C38   C47   A    
C42   C88   S    
N2    Ni1   S    
C64   H3    S    
C18   C111  S    
C67   H6    S    
C110  C116  S    
C4    O1    S    
C83   N22   A    
C84   N38   A    
C35   H40   S    
C81   H20   S    
C66   C96   A    
C86   H25   S    
C79   H18   S    
N15   Ni8   S    
C37   C46   A    
C39   C90   S    
C27   C32   A    
C33   H38   S    
N24   Ni7   S    
C5    H57   S    
C30   C46   A    
C84   H67   S    
C6    O2    S    
C34   C43   A    
C4    C5    S    
C60   C100  S    
C75   H14   S    
N40   Ni2   S    
N16   Ni5   S    
N20   Ni2   S    
C70   C97   A    
C48   C58   A    
C6    C7    S    
C44   C94   S    
N4    Ni3   S    
C13   C112  S    
N18   N21   A    
C2    C105  S    
C68   C93   A    
C8    O3    S    
C2    C115  S    
C11   H74   S    
C40   C90   A    
C65   N4    A    
N7    N37   A    
N8    Ni7   S    
N36   Ni5   S    
C13   C111  S    
C9    H68   S    
C31   H36   S    
C50   C57   A    
N14   N17   A    
C30   H35   S    
C20   C113  S    
C6    H60   S    
C65   C88   A    
C70   N9    A    
C23   C39   A    
C73   C93   A    
C40   N23   A    
C10   H70   S    
C82   C101  A    
N19   Ni3   S    
C81   N20   A    
C102  C106  S    
C3    O4    S    
C87   H26   S    
C19   N33   T    
C26   H31   S    
N3    Ni4   S    
C78   H17   S    
C110  C112  S    
C66   N5    A    
C3    C21   S    
C10   C11   S    
N10   Ni4   S    
C32   H37   S    
C22   C41   A    
C56   C60   A    
C26   C31   A    
C114  O1    S    
C76   C100  A    
C23   C36   A    
C6    H59   S    
C74   H13   S    
C78   C99   A    
C31   C39   A    
C24   C43   A    
N9    N13   A    
C79   C101  A    
C2    C101  S    
N26   Ni5   S    
C11   H73   S    
N37   Ni6   S    
C45   C96   S    
N25   Ni6   S    
C86   N25   A    
C83   H22   S    
C61   C91   A    
C4    H53   S    
N5    N39   A    
C74   N13   A    
