data_mof_unit_66601.cif
_audit_creation_date              2012-10-26T18:25:38-0400
_audit_creation_method            fapswitch 2.2
_symmetry_space_group_name_H-M    P1
_symmetry_Int_Tables_number       1
_space_group_crystal_system       triclinic
_cell_length_a                    7.457587
_cell_length_b                    8.732216
_cell_length_c                    11.041147
_cell_angle_alpha                 89.793289
_cell_angle_beta                  72.600442
_cell_angle_gamma                 101.386087
_cell_volume                      671.100186996

loop_
_atom_site_label
_atom_site_type_symbol
_atom_type_description
_atom_site_fract_x
_atom_site_fract_y
_atom_site_fract_z
_atom_type_partial_charge
C1    C     C_R   0.454375 0.201085 0.507067 0.598183
C2    C     C_2   0.568963 0.962574 0.467419 0.128591
C3    C     C_R   0.545671 0.798900 0.492727 0.583727
C4    C     C_R   0.423947 0.498546 0.741782 0.602097
C5    C     C_R   0.576074 0.501433 0.258215 0.586598
C6    C     C_2   0.379134 0.487156 0.878492 -0.021844
C7    C     C_2   0.621086 0.512732 0.121481 -0.041982
C8    C     C_2   0.511061 0.537959 0.937083 0.134115
C9    C     C_2   0.489595 0.461484 0.062652 0.168600
C10   C     C_2   0.431075 0.037402 0.532072 0.169015
Cu1   Cu    Cu3+1 0.688910 0.517800 0.485820 1.190149
Cu2   Cu    Cu3+1 0.311090 0.482200 0.514180 1.183003
H1    H     H_    0.159707 0.096307 0.049316 0.413313
H2    H     H_    0.589042 0.854707 0.020256 0.368304
H3    H     H_    0.760346 0.583899 0.071200 0.177720
H4    H     H_    0.239802 0.416152 0.928896 0.168916
H5    H     H_    0.027453 0.035533 0.820132 0.416069
H6    H     H_    0.971302 0.066576 0.449268 0.367947
H7    H     H_    0.917349 0.377172 0.598877 0.256460
H8    H     H_    0.082642 0.622949 0.401229 0.252542
N1    N     N_2   0.027170 0.455360 0.535550 -0.202622
N2    N     N_2   0.972830 0.544640 0.464450 -0.201479
O1    O     O_R   0.622710 0.286400 0.490790 -0.490654
O2    O     O_2   0.117508 0.348001 0.179672 -0.220113
O3    O     O_3   0.285006 0.169629 0.013352 -0.504536
O4    O     O_2   0.883498 0.651111 0.820220 -0.199732
O5    O     O_2   0.662017 0.794005 0.766909 -0.221637
O6    O     O_3   0.718218 0.830341 0.985329 -0.508625
O7    O     O_2   0.074514 0.865406 0.609928 -0.230783
O8    O     O_2   0.279372 0.840443 0.744059 -0.226800
O9    O     O_3   0.141815 0.091934 0.752325 -0.504613
O10   O     O_2   0.855286 0.926455 0.257198 -0.267123
O11   O     O_2   0.723237 0.160698 0.256192 -0.209807
O12   O     O_R   0.377290 0.713600 0.509210 -0.495214
O13   O     O_3   0.941994 0.147279 0.399165 -0.433207
O14   O     O_R   0.303660 0.256330 0.514730 -0.455173
O15   O     O_R   0.696340 0.743670 0.485270 -0.462336
O16   O     O_R   0.600900 0.509520 0.671740 -0.478362
O17   O     O_R   0.399100 0.490480 0.328260 -0.483811
O18   O     O_R   0.281840 0.479450 0.695690 -0.470054
O19   O     O_R   0.718160 0.520550 0.304310 -0.471143
O20   O     O_2   0.341001 0.205449 0.231905 -0.216792
S1    S     S_3+6 0.302764 0.293052 0.127964 0.063953
S2    S     S_3+6 0.698367 0.706201 0.871561 0.039977
S3    S     S_3+6 0.227186 0.951595 0.662369 0.077646
S4    S     S_3+6 0.774506 0.049583 0.338369 0.071511

loop_
_geom_bond_atom_site_label_1
_geom_bond_atom_site_label_2
_ccdc_geom_bond_type
Cu2   O18   S    
Cu1   O16   S    
C8    S2    S    
Cu1   Cu2   S    
Cu1   O19   S    
Cu2   O14   S    
H6    O13   S    
O8    S3    D    
O3    S1    S    
Cu2   O17   S    
C7    H3    S    
C2    C3    S    
O4    S2    D    
N1    N2    D    
C2    S4    S    
O11   S4    D    
H1    O3    S    
O10   S4    D    
C10   S3    S    
O5    S2    D    
Cu1   O1    S    
H7    N1    S    
C4    O16   A    
C1    O1    A    
C5    C7    S    
C5    O17   A    
H5    O9    S    
C9    S1    S    
O20   S1    D    
H8    N2    S    
Cu2   O12   S    
C2    C10   D    
C7    C9    D    
C3    O15   A    
C4    C6    S    
O9    S3    S    
Cu1   O15   S    
O2    S1    D    
C5    O19   A    
C6    C8    D    
Cu1   N2    S    
C3    O12   A    
H2    O6    S    
O13   S4    S    
C6    H4    S    
Cu2   N1    S    
O6    S2    S    
C1    C10   S    
C4    O18   A    
C1    O14   A    
O7    S3    D    
C8    C9    S    
