data_mof_unit_64196.cif
_audit_creation_date              2012-10-26T17:54:36-0400
_audit_creation_method            fapswitch 2.2
_symmetry_space_group_name_H-M    P1
_symmetry_Int_Tables_number       1
_space_group_crystal_system       triclinic
_cell_length_a                    18.829309
_cell_length_b                    18.775133
_cell_length_c                    18.871158
_cell_angle_alpha                 109.127793
_cell_angle_beta                  109.66619
_cell_angle_gamma                 109.448159
_cell_volume                      5146.39006598

loop_
_atom_site_label
_atom_site_type_symbol
_atom_type_description
_atom_site_fract_x
_atom_site_fract_y
_atom_site_fract_z
_atom_type_partial_charge
Br1   Br    Br    0.066280 0.601537 0.811811 -0.391991
Br2   Br    Br    0.594036 0.311398 0.577693 -0.412151
Br3   Br    Br    0.282583 0.511505 0.091095 -0.415950
Br4   Br    Br    0.224011 0.506256 0.418185 -0.369855
Br5   Br    Br    0.751772 0.068332 0.964865 -0.408859
Br6   Br    Br    0.724288 0.416706 0.986575 -0.307531
C1    C     C_R   0.618774 0.120246 0.001241 0.625099
C2    C     C_R   0.501409 0.764032 0.681889 0.249195
C3    C     C_R   0.501806 0.825524 0.748057 -0.122477
C4    C     C_R   0.496718 0.114542 0.118387 0.578191
C5    C     C_R   0.497212 0.812723 0.815605 -0.025882
C6    C     C_R   0.326836 0.812621 0.076814 -0.115164
C7    C     C_R   0.261612 0.749258 0.076229 -0.129071
C8    C     C_R   0.184226 0.685500 0.998360 0.058127
C9    C     C_R   0.171468 0.685933 0.920646 0.175858
C10   C     C_R   0.236005 0.751017 0.922142 -0.057068
C11   C     C_R   0.313873 0.814043 0.999884 0.017152
C12   C     C_R   0.811907 0.238422 0.986307 -0.125815
C13   C     C_R   0.618718 0.501220 0.619970 0.563827
C14   C     C_R   0.498336 0.385222 0.383078 0.552021
C15   C     C_R   0.381119 0.504441 0.385417 0.582818
C16   C     C_R   0.381055 0.881365 0.000371 0.557102
C17   C     C_R   0.498017 0.621594 0.619093 0.590657
C18   C     C_R   0.882954 0.502877 0.881887 0.588710
C19   C     C_R   0.879029 0.381102 0.997819 0.553822
C20   C     C_R   0.119842 0.500314 0.118077 0.551114
C21   C     C_R   0.118210 0.618838 0.999326 0.592294
C22   C     C_R   0.754043 0.580284 0.758116 -0.137826
C23   C     C_R   0.809533 0.314252 0.995287 -0.044102
C24   C     C_R   0.820376 0.583774 0.823401 0.211507
C25   C     C_R   0.817320 0.504986 0.815457 -0.001217
C26   C     C_R   0.749234 0.425419 0.742217 -0.110794
C27   C     C_R   0.683191 0.422634 0.677634 0.155525
C28   C     C_R   0.498127 0.880014 0.882077 0.587242
C29   C     C_R   0.685641 0.500636 0.686013 -0.002129
C30   C     C_R   0.324810 0.506250 0.248655 -0.130712
C31   C     C_R   0.261484 0.504160 0.181905 0.147019
C32   C     C_R   0.187025 0.500842 0.185259 0.000285
C33   C     C_R   0.177431 0.500804 0.255662 -0.119233
C34   C     C_R   0.742289 0.326429 0.003443 0.152971
C35   C     C_R   0.240272 0.502084 0.321969 0.167890
C36   C     C_R   0.314262 0.504235 0.318123 -0.001151
C37   C     C_2   0.424133 0.245226 0.249983 -0.134711
C38   C     C_2   0.496656 0.320821 0.312538 -0.086160
C39   C     C_2   0.423867 0.183934 0.176737 -0.142922
C40   C     C_2   0.494447 0.176105 0.187706 -0.101698
C41   C     C_R   0.748939 0.174652 0.987069 0.105833
C42   C     C_R   0.683741 0.266872 0.014076 0.224820
C43   C     C_R   0.685323 0.188814 0.002138 -0.003493
C44   C     C_R   0.491206 0.736558 0.817600 0.240804
C45   C     C_R   0.491662 0.675394 0.752000 -0.128544
C46   C     C_R   0.497145 0.688430 0.684687 -0.027122
Cu1   Cu    Cu3+1 0.438200 0.000380 0.938580 1.102787
Cu2   Cu    Cu3+1 0.561800 0.999620 0.061420 1.156295
Cu3   Cu    Cu3+1 0.438220 0.441470 0.503160 1.120883
Cu4   Cu    Cu3+1 0.561830 0.565070 0.503150 1.098270
Cu5   Cu    Cu3+1 0.999900 0.438590 0.938490 1.111585
Cu6   Cu    Cu3+1 0.999930 0.561410 0.061340 1.151296
H1    H     H_    0.363055 0.230287 0.249613 0.163017
H2    H     H_    0.382167 0.508795 0.246011 0.169064
H3    H     H_    0.120655 0.499503 0.258909 0.167097
H4    H     H_    0.363873 0.141940 0.114719 0.165671
H5    H     H_    0.551305 0.211572 0.251877 0.133205
H6    H     H_    0.862658 0.228407 0.977966 0.182984
H7    H     H_    0.428281 0.707187 0.455968 0.370450
H8    H     H_    0.922185 0.758247 0.842403 0.351986
H9    H     H_    0.602109 0.302862 0.162626 0.360709
H10   H     H_    0.444567 0.601485 0.916345 0.394212
H11   H     H_    0.488212 0.617140 0.753372 0.196318
H12   H     H_    0.506064 0.884324 0.747510 0.186323
H13   H     H_    0.386658 0.861280 0.137376 0.150875
H14   H     H_    0.271964 0.749028 0.136208 0.146486
H15   H     H_    0.225871 0.751695 0.862394 0.171925
H16   H     H_    0.754909 0.639857 0.763499 0.170614
H17   H     H_    0.746883 0.364994 0.735626 0.175166
H18   H     H_    0.555258 0.340149 0.307716 0.122406
O1    O     O_R   0.537990 0.090490 0.948120 -0.467942
O2    O     O_R   0.909750 0.552440 0.962210 -0.433605
O3    O     O_R   0.909720 0.357980 0.948050 -0.521416
O4    O     O_R   0.642370 0.089850 0.051860 -0.469996
O5    O     O_R   0.909750 0.461690 0.051790 -0.476546
O6    O     O_R   0.090070 0.447560 0.037620 -0.473692
O7    O     O_R   0.090100 0.551270 0.141360 -0.525767
O8    O     O_R   0.090070 0.538310 0.948030 -0.463485
O9    O     O_R   0.090100 0.642020 0.051770 -0.487882
O10   O     O_R   0.447800 0.089920 0.037730 -0.476340
O11   O     O_R   0.552180 0.089280 0.141460 -0.505779
O12   O     O_R   0.642390 0.554900 0.592760 -0.519247
O13   O     O_R   0.357630 0.910150 0.948140 -0.528467
O14   O     O_R   0.462010 0.909510 0.051880 -0.486781
O15   O     O_R   0.447820 0.910720 0.858540 -0.521718
O16   O     O_R   0.552200 0.910080 0.962270 -0.435858
O17   O     O_R   0.538000 0.450530 0.592770 -0.468271
O18   O     O_2   0.484874 0.856181 0.599877 -0.251401
O19   O     O_2   0.589068 0.805147 0.602112 -0.234424
O20   O     O_3   0.424020 0.692297 0.500665 -0.498290
O21   O     O_2   0.894325 0.703446 0.989073 -0.183393
O22   O     O_2   0.992452 0.692531 0.933330 -0.266849
O23   O     O_R   0.447840 0.361480 0.413570 -0.491307
O24   O     O_3   0.904895 0.766173 0.887307 -0.475851
O25   O     O_2   0.644304 0.388315 0.088888 -0.205175
O26   O     O_2   0.523382 0.241708 0.977276 -0.217329
O27   O     O_3   0.620105 0.267253 0.129044 -0.542837
O28   O     O_2   0.562929 0.771392 0.982265 -0.222480
O29   O     O_2   0.408634 0.728643 0.908300 -0.285969
O30   O     O_3   0.450855 0.608890 0.868783 -0.493464
O31   O     O_R   0.552220 0.465860 0.413560 -0.509749
O32   O     O_R   0.357660 0.451630 0.413550 -0.474739
O33   O     O_R   0.462040 0.556010 0.413540 -0.500677
O34   O     O_R   0.447820 0.540680 0.592750 -0.500628
O35   O     O_R   0.552200 0.645050 0.592740 -0.449043
O36   O     O_R   0.909730 0.448730 0.858460 -0.509624
S1    S     S_3+6 0.501870 0.782529 0.595688 0.067302
S2    S     S_3+6 0.905974 0.687733 0.911441 0.073387
S3    S     S_3+6 0.615489 0.293072 0.051059 0.078408
S4    S     S_3+6 0.478620 0.713157 0.897670 0.061045

loop_
_geom_bond_atom_site_label_1
_geom_bond_atom_site_label_2
_ccdc_geom_bond_type
Cu3   Cu4   S    
C20   O7    A    
C35   C36   A    
Cu5   O3    S    
O29   S4    D    
C30   C36   A    
C18   O36   A    
Cu3   O17   S    
C22   H16   S    
C12   C41   A    
C26   H17   S    
C17   C46   S    
H9    O27   S    
C33   C35   A    
Cu1   Cu2   S    
Br5   C41   S    
C30   C31   A    
Cu2   O14   S    
Cu2   O11   S    
Cu4   O12   S    
Cu5   O36   S    
C10   C11   A    
Br4   C35   S    
C9    C10   A    
Cu5   O6    S    
C39   H4    S    
C21   O9    A    
H8    O24   S    
C38   H18   S    
C28   O15   A    
O26   S3    D    
O28   S4    D    
H7    O20   S    
C22   C29   A    
C2    C3    A    
C6    C11   A    
C4    C40   S    
Cu1   O10   S    
Br1   C9    S    
C8    C21   S    
C2    C46   A    
Cu4   O35   S    
C13   O17   A    
C37   H1    S    
C1    O1    A    
C14   O31   A    
C20   O6    A    
C7    C8    A    
C19   O5    A    
H10   O30   S    
C14   C38   S    
O18   S1    D    
Cu2   O4    S    
C19   C23   S    
C33   H3    S    
C4    O11   A    
C10   H15   S    
O24   S2    S    
C3    H12   S    
C1    C43   S    
O27   S3    S    
C41   C43   A    
C13   O12   A    
Cu6   O5    S    
C20   C32   S    
C39   C40   D    
C45   C46   A    
O30   S4    S    
Cu1   O1    S    
C37   C38   D    
Cu4   O31   S    
Cu2   O16   S    
C31   C32   A    
C37   C39   S    
C25   C26   A    
C24   C25   A    
C44   C45   A    
C16   O14   A    
Cu5   O8    S    
C12   C23   A    
C3    C5    A    
C2    S1    S    
C42   S3    S    
Cu1   O15   S    
Br2   C27   S    
C18   O2    A    
C42   C43   A    
C6    H13   S    
Cu3   O34   S    
Cu1   O13   S    
O25   S3    D    
Br6   C34   S    
O20   S1    S    
Cu6   O9    S    
Cu4   O33   S    
C24   S2    S    
C34   C42   A    
C17   O34   A    
C4    O10   A    
C19   O3    A    
C5    C28   S    
C30   H2    S    
C15   O33   A    
C7    H14   S    
C17   O35   A    
C40   H5    S    
C11   C16   S    
Cu3   O32   S    
C26   C27   A    
C22   C24   A    
C18   C25   S    
C5    C44   A    
C13   C29   S    
Cu6   O7    S    
C21   O8    A    
C12   H6    S    
Cu5   Cu6   S    
C32   C33   A    
C14   O23   A    
O19   S1    D    
C23   C34   A    
C27   C29   A    
C16   O13   A    
C44   S4    S    
C28   O16   A    
C15   O32   A    
O22   S2    D    
Cu6   O2    S    
C15   C36   S    
C6    C7    A    
Br3   C31   S    
Cu3   O23   S    
C8    C9    A    
C45   H11   S    
O21   S2    D    
C1    O4    A    
