data_mof_unit_31325.cif
_audit_creation_date              2012-12-11T16:05:11-0500
_audit_creation_method            fapswitch 2.2
_symmetry_space_group_name_H-M    P1
_symmetry_Int_Tables_number       1
_space_group_crystal_system       triclinic
_cell_length_a                    10.781294
_cell_length_b                    10.752092
_cell_length_c                    16.824007
_cell_angle_alpha                 98.695467
_cell_angle_beta                  98.563055
_cell_angle_gamma                 60.599192
_cell_volume                      1673.22666367

loop_
_atom_site_label
_atom_site_type_symbol
_atom_type_description
_atom_site_fract_x
_atom_site_fract_y
_atom_site_fract_z
_atom_type_partial_charge
C1    C     C_R   0.380236 0.712725 0.386614 0.550152
C2    C     C_3   0.457818 0.654262 0.238805 -0.177916
C3    C     C_3   0.368142 0.756392 0.306921 0.023390
C4    C     C_R   0.405976 0.373870 0.357029 0.543601
C5    C     C_3   0.391822 0.877793 0.287191 -0.112224
C6    C     C_3   0.254623 0.926352 0.230249 -0.139377
C7    C     C_3   0.229856 0.805983 0.250918 -0.108200
C8    C     C_3   0.318227 0.704227 0.182053 -0.137762
C9    C     C_3   0.341396 0.824790 0.161721 0.056412
C10   C     C_3   0.485642 0.255974 0.786652 0.009660
C11   C     C_3   0.457952 0.400110 0.760601 -0.169593
C12   C     C_3   0.769362 0.302245 0.250064 -0.137908
C13   C     C_3   0.380615 0.371159 0.680952 0.006466
C14   C     C_3   0.408744 0.228723 0.707334 -0.002060
C15   C     C_3   0.264401 0.308498 0.744299 0.046371
C16   C     C_R   0.779749 0.375281 0.403170 0.550151
C17   C     C_3   0.236765 0.451106 0.718639 0.050809
C18   C     C_3   0.312344 0.479525 0.799588 -0.182693
C19   C     C_3   0.340568 0.335269 0.824353 -0.007439
C20   C     C_1   0.810962 0.348297 0.711132 -0.005366
C21   C     C_1   0.837519 0.322968 0.780167 -0.050696
C22   C     C_1   0.360249 0.749312 0.715623 -0.056085
C23   C     C_3   0.845909 0.335939 0.327945 0.059681
C24   C     C_1   0.329865 0.799099 0.783853 -0.051814
C25   C     C_R   0.964318 0.281104 0.101831 0.559221
C26   C     C_R   0.321864 0.302987 0.119037 0.528464
C27   C     C_R   0.298430 0.884511 0.085039 0.548318
C28   C     C_R   0.381564 0.709684 0.630738 0.539492
C29   C     C_R   0.881295 0.302344 0.862456 0.576580
C30   C     C_R   0.312756 0.297697 0.896270 0.570198
C31   C     C_R   0.283938 0.877006 0.860777 0.560323
C32   C     C_R   0.409630 0.378949 0.601177 0.550792
C33   C     C_R   0.770654 0.381753 0.630219 0.603044
C34   C     C_3   0.990152 0.213910 0.304053 -0.148247
C35   C     C_1   0.374601 0.361953 0.272187 -0.062701
C36   C     C_1   0.349061 0.344017 0.201045 -0.051479
C37   C     C_3   0.913719 0.180376 0.224306 -0.116879
C38   C     C_3   0.631517 0.146557 0.825533 -0.232652
C39   C     C_3   0.746885 0.065519 0.765376 -0.312767
C40   C     C_3   0.885688 0.947360 0.801913 -0.396749
C41   C     C_3   0.452381 0.083068 0.658576 -0.225014
C42   C     C_3   0.466560 0.974117 0.713352 -0.287158
C43   C     C_3   0.613509 0.839398 0.719813 -0.378426
C44   C     C_2   0.164744 0.245642 0.727418 0.566661
C45   C     C_3   0.011283 0.320637 0.261436 -0.135447
C46   C     C_2   0.096485 0.565309 0.684349 0.586232
C47   C     C_3   0.842268 0.593011 0.316861 -0.235198
C48   C     C_3   0.951928 0.593182 0.385788 -0.278056
C49   C     C_3   0.907185 0.743661 0.427141 -0.404023
C50   C     C_2   0.600123 0.786435 0.190019 0.545517
C51   C     C_3   0.866482 0.441887 0.286647 0.011492
C52   C     C_3   0.788645 0.409703 0.209061 -0.110050
C53   C     C_3   0.932352 0.289233 0.184192 0.033954
C54   C     C_3   0.478174 0.778360 0.217223 0.057476
Cr1   Cr    Cr6+3 0.608340 0.611040 0.520430 0.997047
Cr2   Cr    Cr6+3 0.287650 0.601120 0.489350 1.003566
Cr3   Cr    Cr6+3 0.604040 0.287870 0.490280 1.002661
Cr4   Cr    Cr6+3 0.054020 0.052700 0.970850 0.986034
Cr5   Cr    Cr6+3 0.059230 0.375120 0.993390 1.038111
Cr6   Cr    Cr6+3 0.374950 0.061200 0.992340 1.050521
H1    H     H_    0.671034 0.292002 0.246067 0.123478
H2    H     H_    0.707235 0.483378 0.166241 0.179481
H3    H     H_    0.531403 0.542295 0.249975 0.086180
H4    H     H_    0.419865 0.948746 0.332334 0.157076
H5    H     H_    0.898891 0.967515 0.868404 0.197263
H6    H     H_    0.890124 0.841232 0.789169 0.144232
H7    H     H_    0.975419 0.939614 0.773004 0.202924
H8    H     H_    0.713832 0.013252 0.712861 0.162163
H9    H     H_    0.766520 0.140217 0.739108 0.165748
H10   H     H_    0.667938 0.204905 0.875180 0.153947
H11   H     H_    0.619580 0.066155 0.852733 0.167005
H12   H     H_    0.184530 0.038319 0.218290 0.117164
H13   H     H_    0.604517 0.747054 0.733695 0.167272
H14   H     H_    0.669074 0.809457 0.663927 0.185108
H15   H     H_    0.679855 0.855260 0.772261 0.132178
H16   H     H_    0.439202 0.020990 0.775614 0.206888
H17   H     H_    0.381099 0.949540 0.688252 0.193566
H18   H     H_    0.366674 0.097983 0.609111 0.183396
H19   H     H_    0.548436 0.044216 0.626310 0.156955
H20   H     H_    0.107566 0.110509 0.760809 0.322853
H21   H     H_    0.987132 0.760472 0.642584 0.315194
H22   H     H_    0.892074 0.817620 0.382686 0.166963
H23   H     H_    0.126610 0.819839 0.265816 0.136590
H24   H     H_    0.806001 0.784669 0.455662 0.149958
H25   H     H_    0.991625 0.740564 0.474781 0.170319
H26   H     H_    0.969712 0.520273 0.431436 0.208615
H27   H     H_    0.053439 0.554432 0.359181 0.187065
H28   H     H_    0.855154 0.639067 0.265983 0.178218
H29   H     H_    0.731851 0.659655 0.335306 0.187289
H30   H     H_    0.740476 0.724138 0.106588 0.337602
H31   H     H_    0.289376 0.633894 0.136905 0.124636
H32   H     H_    0.535983 0.440388 0.765814 0.094466
H33   H     H_    0.272748 0.581437 0.839190 0.136202
H34   H     H_    0.933232 0.072452 0.196742 0.140811
H35   H     H_    0.070089 0.135505 0.345814 0.135301
H36   H     H_    0.111776 0.326453 0.264273 0.117406
O1    O     O_R   0.751220 0.499230 0.435170 -0.528200
O2    O     O_R   0.412990 0.180750 0.091610 -0.489480
O3    O     O_R   0.366620 0.943130 0.065760 -0.473059
O4    O     O_R   0.477220 0.727600 0.436870 -0.495756
O5    O     O_R   0.160510 0.906330 0.879210 -0.535149
O6    O     O_R   0.930190 0.179050 0.889450 -0.508667
O7    O     O_R   0.909140 0.398170 0.896710 -0.481866
O8    O     O_R   0.186190 0.363460 0.918830 -0.472745
O9    O     O_R   0.401670 0.173200 0.913310 -0.533704
O10   O     O_R   0.356120 0.936130 0.900470 -0.477581
O11   O     O_3   0.162740 0.163010 0.985530 -0.260780
O12   O     O_R   0.297880 0.469080 0.560050 -0.473113
O13   O     O_R   0.258650 0.745120 0.411470 -0.519398
O14   O     O_R   0.297070 0.467240 0.395960 -0.526484
O15   O     O_R   0.488830 0.252610 0.387790 -0.478456
O16   O     O_R   0.724400 0.302390 0.420980 -0.508937
O17   O     O_R   0.752100 0.501210 0.612190 -0.464067
O18   O     O_R   0.478040 0.729440 0.600970 -0.512991
O19   O     O_R   0.259530 0.747110 0.588490 -0.452942
O20   O     O_2   0.102082 0.249321 0.660313 -0.505203
O21   O     O_R   0.159051 0.167076 0.784192 -0.686388
O22   O     O_2   0.991106 0.548314 0.674030 -0.491043
O23   O     O_R   0.489720 0.254590 0.564810 -0.526989
O24   O     O_R   0.086267 0.692467 0.666140 -0.694824
O25   O     O_2   0.639279 0.869841 0.227064 -0.539324
O26   O     O_R   0.661324 0.707116 0.119355 -0.701337
O27   O     O_R   0.725220 0.304230 0.585080 -0.529974
O28   O     O_3   0.500010 0.500010 0.500020 -0.341842
O29   O     O_R   0.171830 0.913880 0.057510 -0.541115
O30   O     O_R   0.940690 0.186050 0.054730 -0.507382
O31   O     O_R   0.920470 0.405720 0.075010 -0.498582
O32   O     O_R   0.196690 0.370460 0.084120 -0.532552

loop_
_geom_bond_atom_site_label_1
_geom_bond_atom_site_label_2
_ccdc_geom_bond_type
C43   H13   S    
C7    H23   S    
C38   H10   S    
C11   C18   S    
C34   C37   S    
C47   H29   S    
C39   H8    S    
C13   C32   S    
C35   C36   T    
C50   O26   S    
Cr6   O3    S    
C6    C9    S    
C7    C8    S    
C52   C53   S    
C6    H12   S    
C12   C23   S    
C29   O7    A    
C50   C54   S    
C5    C6    S    
Cr5   O8    S    
Cr2   O28   S    
C49   H24   S    
C25   C53   S    
C15   C44   S    
C18   C19   S    
C3    C7    S    
C38   C39   S    
C16   O1    A    
Cr3   O16   S    
C45   C51   S    
Cr5   O31   S    
C46   O22   D    
Cr4   O11   S    
C41   C42   S    
C12   C37   S    
Cr2   O12   S    
C1    O13   A    
C38   H11   S    
C11   H32   S    
C8    C9    S    
C40   H7    S    
Cr1   O4    S    
C29   O6    A    
Cr4   O6    S    
Cr3   O23   S    
C37   C53   S    
C43   H14   S    
C4    C35   S    
C45   C53   S    
C22   C28   S    
C13   C14   S    
C27   O29   A    
H30   O26   S    
C50   O25   D    
C1    O4    A    
Cr2   O14   S    
C12   C52   S    
C43   H15   S    
C51   C52   S    
C49   H25   S    
C5    C54   S    
C17   C46   S    
C2    C54   S    
C39   C40   S    
C8    H31   S    
C47   C51   S    
Cr1   O17   S    
Cr5   O32   S    
C21   C29   S    
Cr5   O11   S    
C5    H4    S    
C1    C3    S    
C49   H22   S    
C15   C19   S    
C25   O30   A    
C28   O19   A    
Cr3   O27   S    
C23   C51   S    
C47   C48   S    
H21   O24   S    
C16   O16   A    
C10   C19   S    
C23   C34   S    
C27   O3    A    
Cr1   O1    S    
C17   C18   S    
C39   H9    S    
C48   H27   S    
C46   O24   S    
Cr4   O5    S    
C26   O32   A    
C34   H35   S    
Cr6   O11   S    
C34   C45   S    
C26   O2    A    
C14   C41   S    
C20   C33   S    
C26   C36   S    
C48   C49   S    
C4    O15   A    
Cr4   O30   S    
C16   C23   S    
C40   H5    S    
C30   O9    A    
C10   C14   S    
C31   O10   A    
C48   H26   S    
C42   C43   S    
C32   O23   A    
C31   O5    A    
Cr2   O13   S    
C41   H18   S    
Cr6   O10   S    
C2    H3    S    
C9    C27   S    
C15   C17   S    
C4    O14   A    
H20   O21   S    
C14   C15   S    
C33   O17   A    
C2    C8    S    
C3    C5    S    
C41   H19   S    
C6    C7    S    
Cr1   O18   S    
C42   H16   S    
C13   C17   S    
C10   C38   S    
Cr5   O7    S    
C47   H28   S    
C2    C3    S    
C25   O31   A    
C24   C31   S    
C52   H2    S    
Cr3   O28   S    
C12   H1    S    
C11   C13   S    
Cr3   O15   S    
C44   O21   S    
C28   O18   A    
Cr2   O19   S    
C45   H36   S    
C37   H34   S    
C22   C24   T    
C10   C11   S    
Cr1   O28   S    
C20   C21   T    
C44   O20   D    
Cr4   O29   S    
C32   O12   A    
Cr6   O2    S    
C30   O8    A    
C33   O27   A    
C18   H33   S    
C42   H17   S    
C40   H6    S    
C9    C54   S    
C19   C30   S    
Cr6   O9    S    
