data_mof_unit_43564.cif
_audit_creation_date              2012-12-10T20:48:19-0500
_audit_creation_method            fapswitch 2.2
_symmetry_space_group_name_H-M    P1
_symmetry_Int_Tables_number       1
_space_group_crystal_system       triclinic
_cell_length_a                    10.708288
_cell_length_b                    8.927227
_cell_length_c                    8.099087
_cell_angle_alpha                 89.950509
_cell_angle_beta                  90.156418
_cell_angle_gamma                 90.007991
_cell_volume                      774.231614033

loop_
_atom_site_label
_atom_site_type_symbol
_atom_type_description
_atom_site_fract_x
_atom_site_fract_y
_atom_site_fract_z
_atom_type_partial_charge
C1    C     C_R   0.499954 0.217971 0.500044 0.982974
C2    C     C_1   0.500023 0.934790 0.499943 -0.059320
C3    C     C_3   0.073488 0.547420 0.684582 0.758502
C4    C     C_3   0.927644 0.547002 0.686849 0.687468
C5    C     C_3   0.121252 0.506761 0.504438 -0.365694
C6    C     C_3   0.878712 0.509214 0.506471 -0.325098
C7    C     C_R   0.257267 0.503512 0.500557 1.064449
C8    C     C_R   0.742635 0.506476 0.501166 1.028611
C9    C     C_R   0.500051 0.782009 0.499959 0.978642
C10   C     C_1   0.499984 0.065182 0.500065 -0.068562
C11   C     C_3   0.071554 0.348867 0.451875 0.135559
C12   C     C_3   0.071901 0.621253 0.372291 0.052747
C13   C     C_3   0.926791 0.351417 0.450042 0.142634
C14   C     C_3   0.927648 0.628300 0.379617 0.098835
Cl1   Cl    Cl    0.139532 0.195497 0.566596 -0.365702
Cl2   Cl    Cl    0.150162 0.800379 0.370276 -0.445489
Cl3   Cl    Cl    0.855024 0.197496 0.559107 -0.355026
Cl4   Cl    Cl    0.865117 0.813281 0.412252 -0.405971
H1    H     H_    0.102670 0.326728 0.322996 0.118008
H2    H     H_    0.095848 0.575951 0.248142 0.133057
H3    H     H_    0.896688 0.334222 0.319603 0.110090
H4    H     H_    0.892595 0.597436 0.254509 0.123130
H5    H     H_    0.115196 0.480948 0.909709 0.349204
H6    H     H_    0.083209 0.769259 0.673720 0.426933
H7    H     H_    0.896580 0.474922 0.912914 0.326996
H8    H     H_    0.802598 0.678219 0.795774 0.367672
N1    N     N_1   0.500000 0.500030 0.073640 -0.009647
N2    N     N_1   0.500000 0.500030 0.926360 -0.005883
O1    O     O_R   0.500000 0.285340 0.636850 -0.597310
O2    O     O_3   0.123468 0.687076 0.735851 -0.708232
O3    O     O_3   0.884983 0.436215 0.798911 -0.677627
O4    O     O_3   0.883354 0.689423 0.737468 -0.726509
O5    O     O_R   0.500000 0.285340 0.363150 -0.620229
O6    O     O_R   0.314790 0.499970 0.636880 -0.543549
O7    O     O_R   0.314790 0.499970 0.363120 -0.641144
O8    O     O_R   0.685210 0.499970 0.636880 -0.590258
O9    O     O_R   0.685210 0.499970 0.363120 -0.649153
O10   O     O_R   0.500000 0.714650 0.636900 -0.624722
O11   O     O_R   0.500000 0.714650 0.363100 -0.604400
O12   O     O_3   0.117236 0.437698 0.796737 -0.650746
Zn1   Zn    Zn3+2 0.500000 0.499990 0.682780 1.098192
Zn2   Zn    Zn3+2 0.500000 0.499990 0.317220 1.056569

loop_
_geom_bond_atom_site_label_1
_geom_bond_atom_site_label_2
_ccdc_geom_bond_type
H7    O3    S    
C3    O2    S    
H8    O4    S    
C6    C14   S    
C14   Cl4   S    
C13   Cl3   S    
C14   H4    S    
C1    O1    A    
C3    C4    S    
C13   H3    S    
C6    C13   S    
C11   C13   S    
N1    Zn2   S    
C11   H1    S    
O8    Zn1   S    
C4    O4    S    
O6    Zn1   S    
C11   Cl1   S    
C12   H2    S    
O10   Zn1   S    
O5    Zn2   S    
C9    O10   A    
C12   C14   S    
C3    O12   S    
C5    C11   S    
O11   Zn2   S    
C7    O6    A    
H6    O2    S    
C4    O3    S    
C8    O9    A    
C1    O5    A    
H5    O12   S    
C2    C10   T    
C3    C5    S    
N2    Zn1   S    
C9    O11   A    
C5    C12   S    
C4    C6    S    
C8    O8    A    
O9    Zn2   S    
C5    C7    S    
O7    Zn2   S    
C6    C8    S    
O1    Zn1   S    
C2    C9    S    
C7    O7    A    
C1    C10   S    
C12   Cl2   S    
N1    N2    T    
