data_mof_unit_52195.cif
_audit_creation_date              2012-12-10T18:21:16-0500
_audit_creation_method            fapswitch 2.2
_symmetry_space_group_name_H-M    P1
_symmetry_Int_Tables_number       1
_space_group_crystal_system       triclinic
_cell_length_a                    14.957532
_cell_length_b                    14.016118
_cell_length_c                    10.684402
_cell_angle_alpha                 90.238609
_cell_angle_beta                  89.52083
_cell_angle_gamma                 90.072604
_cell_volume                      2239.84838565

loop_
_atom_site_label
_atom_site_type_symbol
_atom_type_description
_atom_site_fract_x
_atom_site_fract_y
_atom_site_fract_z
_atom_type_partial_charge
C1    C     C_R   0.326806 0.499961 0.495706 0.949608
C2    C     C_3   0.586658 0.448966 0.923702 -0.421438
C3    C     C_R   0.813772 0.565468 0.424361 -0.181152
C4    C     C_R   0.768596 0.499316 0.497804 -0.062633
C5    C     C_R   0.813689 0.430330 0.566109 -0.187152
C6    C     C_R   0.906679 0.425679 0.561517 0.030835
C7    C     C_R   0.952981 0.493948 0.487267 0.081462
C8    C     C_R   0.905935 0.562628 0.417255 0.123428
C9    C     C_R   0.954955 0.357503 0.631660 -0.049260
C10   C     C_R   0.048081 0.361382 0.630149 -0.212688
C11   C     C_R   0.093241 0.428959 0.557652 0.095527
C12   C     C_R   0.502343 0.500090 0.257722 0.909031
C13   C     C_R   0.046254 0.494990 0.484518 0.015144
C14   C     C_R   0.092546 0.562685 0.409691 0.041293
C15   C     C_R   0.044030 0.627834 0.337417 -0.126003
C16   C     C_R   0.951442 0.627893 0.341654 -0.221058
C17   C     C_R   0.185398 0.431593 0.558345 -0.279651
C18   C     C_R   0.231207 0.499332 0.487752 -0.153686
C19   C     C_R   0.186112 0.563745 0.410078 0.312340
C20   C     C_R   0.570275 0.797037 0.446409 0.021802
C21   C     C_R   0.570791 0.202731 0.447707 0.038235
C22   C     C_R   0.431037 0.798842 0.554064 -0.005187
C23   C     C_R   0.430671 0.201272 0.552880 -0.010357
C24   C     C_R   0.430300 0.899252 0.554743 0.029264
C25   C     C_R   0.430215 0.100898 0.554265 0.032115
C26   C     C_R   0.673209 0.499999 0.500278 0.945061
C27   C     C_R   0.502676 0.949399 0.500305 0.084291
C28   C     C_R   0.502828 0.050554 0.500448 0.082546
C29   C     C_R   0.574407 0.898178 0.446208 -0.076310
C30   C     C_R   0.575047 0.101535 0.447229 -0.063460
C31   C     C_R   0.358924 0.950224 0.608667 -0.161320
C32   C     C_R   0.358815 0.050157 0.608256 -0.168761
C33   C     C_R   0.648405 0.050428 0.394578 -0.067659
C34   C     C_R   0.647682 0.948770 0.393593 -0.073402
C35   C     C_R   0.499215 0.500313 0.742432 0.854582
C36   C     C_3   0.490551 0.604615 0.072709 -0.412754
C37   C     C_3   0.422765 0.442126 0.075520 -0.430757
C38   C     C_3   0.499438 0.606938 0.930103 -0.220992
C39   C     C_3   0.415241 0.449365 0.932432 -0.211220
C40   C     C_3   0.596575 0.458087 0.068370 -0.140369
C41   C     C_3   0.504694 0.500542 0.121450 -0.020884
C42   C     C_3   0.500961 0.500962 0.878802 -0.037403
H1    H     H_    0.536553 0.656811 0.116945 0.243067
H2    H     H_    0.426703 0.366911 0.106994 0.240315
H3    H     H_    0.085864 0.310341 0.684474 0.186253
H4    H     H_    0.221927 0.381448 0.615441 0.201490
H5    H     H_    0.076690 0.680225 0.278708 0.211917
H6    H     H_    0.915376 0.679378 0.286068 0.161434
H7    H     H_    0.622757 0.754800 0.403686 0.163684
H8    H     H_    0.623336 0.244940 0.406036 0.166262
H9    H     H_    0.376452 0.759344 0.596346 0.141484
H10   H     H_    0.375543 0.240865 0.593456 0.134456
H11   H     H_    0.302993 0.912748 0.650900 0.155996
H12   H     H_    0.302802 0.087826 0.650178 0.146228
H13   H     H_    0.422368 0.629690 0.099935 0.220186
H14   H     H_    0.360158 0.470567 0.118955 0.184387
H15   H     H_    0.438024 0.641915 0.893819 0.138850
H16   H     H_    0.357044 0.496302 0.912233 0.143565
H17   H     H_    0.646486 0.475579 0.872703 0.217563
H18   H     H_    0.583872 0.373130 0.893843 0.240050
H19   H     H_    0.777028 0.618477 0.372039 0.191879
H20   H     H_    0.775009 0.383065 0.625147 0.193353
N1    N     N_R   0.500070 0.750030 0.500050 -0.114809
N2    N     N_R   0.500070 0.249970 0.500050 -0.117709
O1    O     O_R   0.367860 0.580280 0.500020 -0.589392
O2    O     O_R   0.367860 0.419720 0.500020 -0.637198
O3    O     O_R   0.500000 0.580270 0.314790 -0.589960
O4    O     O_R   0.500000 0.419730 0.314790 -0.629554
O5    O     O_R   0.632160 0.580270 0.499960 -0.605140
O6    O     O_R   0.632160 0.419730 0.499960 -0.621259
O7    O     O_R   0.500030 0.580270 0.685200 -0.621758
O8    O     O_R   0.500030 0.419730 0.685200 -0.609787
Zn1   Zn    Zn3+2 0.500020 0.607200 0.499990 1.018478
Zn2   Zn    Zn3+2 0.500020 0.392800 0.499990 0.996178
Cl1   Cl    Cl    0.246899 0.641241 0.309262 -0.647925
C43   C     C_2   0.728014 0.102652 0.346649 0.880084
O9    O     O_2   0.753385 0.090918 0.238629 -0.558081
O10   O     O_R   0.773732 0.165442 0.425508 -0.757571
H21   H     H_    0.826366 0.197370 0.382295 0.360215
C44   C     C_2   0.726258 0.895300 0.345380 0.920135
O11   O     O_2   0.742855 0.893716 0.233175 -0.549202
O12   O     O_R   0.779904 0.845165 0.428901 -0.790414
H22   H     H_    0.831429 0.811405 0.385474 0.340268
C45   C     C_2   0.576462 0.672400 0.891448 0.982846
O13   O     O_2   0.640748 0.642845 0.831570 -0.610310
O14   O     O_R   0.571883 0.769034 0.923901 -0.778988
H23   H     H_    0.625780 0.806498 0.893367 0.370192
C46   C     C_2   0.391846 0.352640 0.877028 0.968748
O15   O     O_2   0.443106 0.285140 0.885605 -0.572346
O16   O     O_R   0.309069 0.340355 0.819531 -0.835597
H24   H     H_    0.298759 0.272273 0.790673 0.327487
C47   C     C_2   0.676977 0.522816 0.097044 0.938991
O17   O     O_2   0.673141 0.583465 0.179432 -0.674124
O18   O     O_R   0.758276 0.507466 0.034276 -0.750062
H25   H     H_    0.807122 0.552527 0.063058 0.359219
C48   C     C_2   0.618928 0.359728 0.122340 0.917048
O19   O     O_2   0.571194 0.290778 0.100793 -0.578289
O20   O     O_R   0.695333 0.347583 0.195469 -0.781465
H26   H     H_    0.705424 0.278720 0.219417 0.356246
C49   C     C_2   0.912195 0.281217 0.707628 0.928085
O21   O     O_2   0.848441 0.236386 0.667168 -0.573912
O22   O     O_R   0.948122 0.257528 0.823839 -0.773329
H27   H     H_    0.914338 0.203738 0.866345 0.370532

loop_
_geom_bond_atom_site_label_1
_geom_bond_atom_site_label_2
_ccdc_geom_bond_type
C27   C29   A    
C24   C27   A    
C15   H5    S    
C16   H6    S    
C6    C9    A    
C23   H10   S    
C7    C8    A    
C25   C28   A    
C12   O4    A    
C1    C18   S    
C12   C41   S    
C45   O14   S    
C38   C42   S    
C5    C6    A    
C2    H18   S    
O4    Zn2   S    
C15   C16   A    
O2    Zn2   S    
O1    Zn1   S    
C18   C19   A    
C32   H12   S    
C35   C42   S    
C47   O17   D    
C21   N2    A    
C34   C44   S    
C22   N1    A    
C37   H14   S    
C45   O13   D    
C11   C17   A    
C48   O20   S    
O6    Zn2   S    
C1    O1    A    
O5    Zn1   S    
O3    Zn1   S    
C9    C10   A    
C25   C32   A    
C35   O7    A    
C8    C16   A    
C13   C14   A    
C36   C41   S    
O18   H25   S    
C39   C46   S    
C40   C48   S    
C49   O22   S    
C21   H8    S    
C1    O2    A    
C39   C42   S    
C20   C29   A    
C3    H19   S    
C12   O3    A    
C43   O9    D    
O8    Zn2   S    
C3    C8    A    
O7    Zn1   S    
C2    H17   S    
C44   O11   D    
N1    Zn1   S    
C39   H16   S    
C29   C34   A    
C40   C47   S    
C20   H7    S    
C38   H15   S    
C33   C43   S    
C31   C32   A    
C2    C42   S    
C48   O19   D    
C10   H3    S    
C47   O18   S    
C17   C18   A    
C31   H11   S    
C44   O12   S    
C40   C41   S    
C46   O16   S    
C35   O8    A    
O12   H22   S    
C9    C49   S    
C26   O6    A    
C22   C24   A    
C3    C4    A    
O14   H23   S    
C23   N2    A    
C30   C33   A    
C38   C45   S    
O10   H21   S    
C14   C19   A    
C43   O10   S    
C4    C5    A    
C4    C26   S    
C17   H4    S    
C6    C7    A    
C21   C30   A    
C20   N1    A    
C19   Cl1   S    
C24   C31   A    
C37   C39   S    
C36   H13   S    
C36   C38   S    
C11   C13   A    
O16   H24   S    
C37   H2    S    
C28   C30   A    
C49   O21   D    
C33   C34   A    
C5    H20   S    
C23   C25   A    
C37   C41   S    
O22   H27   S    
C10   C11   A    
C2    C40   S    
C7    C13   A    
C46   O15   D    
O20   H26   S    
C27   C28   A    
C26   O5    A    
N2    Zn2   S    
C14   C15   A    
C36   H1    S    
C22   H9    S    
