data_mof_unit_49572.cif
_audit_creation_date              2012-12-10T16:56:35-0500
_audit_creation_method            fapswitch 2.2
_symmetry_space_group_name_H-M    P1
_symmetry_Int_Tables_number       1
_space_group_crystal_system       triclinic
_cell_length_a                    7.767765
_cell_length_b                    8.566854
_cell_length_c                    15.709031
_cell_angle_alpha                 90.712722
_cell_angle_beta                  85.987601
_cell_angle_gamma                 93.661366
_cell_volume                      1040.63825116

loop_
_atom_site_label
_atom_site_type_symbol
_atom_type_description
_atom_site_fract_x
_atom_site_fract_y
_atom_site_fract_z
_atom_type_partial_charge
C1    C     C_R   0.545805 0.794740 0.497796 0.966411
C2    C     C_3   0.410988 0.369300 0.030327 -0.249827
C3    C     C_1   0.506848 0.498307 0.750633 -0.114013
C4    C     C_1   0.493152 0.501693 0.249367 -0.114015
C5    C     C_3   0.336747 0.494916 0.975100 -0.272353
C6    C     C_3   0.663253 0.505083 0.024900 -0.272353
C7    C     C_3   0.504430 0.498483 0.916819 -0.030727
C8    C     C_3   0.495570 0.501517 0.083181 -0.030724
C9    C     C_1   0.507493 0.497783 0.825898 0.099154
C10   C     C_1   0.492507 0.502217 0.174102 0.099153
C11   C     C_R   0.454195 0.205260 0.502204 0.966411
C12   C     C_R   0.502284 0.499637 0.661934 0.899350
C13   C     C_R   0.497716 0.500363 0.338066 0.899350
C14   C     C_2   0.569917 0.958257 0.496548 -0.345913
C15   C     C_2   0.430083 0.041743 0.503452 -0.345913
C16   C     C_3   0.422654 0.625031 0.029199 0.541825
C17   C     C_3   0.577346 0.374968 0.970800 0.541823
C18   C     C_3   0.589012 0.630699 0.969673 -0.249817
H1    H     H_    0.659989 0.737971 0.943345 0.208061
H2    H     H_    0.799840 0.014981 0.986721 0.385450
H3    H     H_    0.340011 0.262029 0.056655 0.208048
H4    H     H_    0.796321 0.507578 0.046733 0.209410
H5    H     H_    0.203679 0.492422 0.953267 0.209411
H6    H     H_    0.701957 0.009386 0.489970 0.184386
H7    H     H_    0.298043 0.990614 0.510030 0.184386
H8    H     H_    0.013420 0.382156 0.436477 0.200295
H9    H     H_    0.986580 0.617844 0.563523 0.200296
H10   H     H_    0.200206 0.985044 0.013277 0.385447
N1    N     N_2   0.950320 0.457950 0.477300 -0.164440
N2    N     N_2   0.049680 0.542050 0.522700 -0.164440
O1    O     O_R   0.389250 0.738570 0.505570 -0.612486
O2    O     O_2   0.441501 0.892754 0.119735 -0.266263
O3    O     O_3   0.259404 0.895676 0.986775 -0.511898
O4    O     O_2   0.558503 0.107249 0.880261 -0.266260
O5    O     O_2   0.838697 0.258337 0.874470 -0.305957
O6    O     O_3   0.740588 0.104318 0.013224 -0.511894
O7    O     O_R   0.610750 0.261430 0.494430 -0.612486
O8    O     O_R   0.678390 0.711630 0.491020 -0.628114
O9    O     O_R   0.321610 0.288370 0.508980 -0.628114
O10   O     O_R   0.355460 0.513480 0.630490 -0.603890
O11   O     O_R   0.644540 0.486520 0.369510 -0.603890
O12   O     O_R   0.644600 0.486540 0.615950 -0.614936
O13   O     O_R   0.355400 0.513460 0.384050 -0.614936
O14   O     O_2   0.161307 0.741664 0.125533 -0.305943
S1    S     S_3+6 0.318580 0.792936 0.069200 0.042545
S2    S     S_3+6 0.681419 0.207064 0.930800 0.042539
Zn1   Zn    Zn3+2 0.306940 0.517990 0.509710 0.983926
Zn2   Zn    Zn3+2 0.693060 0.482010 0.490290 0.983926

loop_
_geom_bond_atom_site_label_1
_geom_bond_atom_site_label_2
_ccdc_geom_bond_type
C16   S1    S    
C12   O10   A    
O10   Zn1   S    
C12   O12   A    
O6    S2    S    
N1    N2    D    
C3    C9    T    
C1    C14   S    
O3    S1    S    
O2    S1    D    
O8    Zn2   S    
C5    H5    S    
C13   O13   A    
C7    C18   S    
C2    H3    S    
C13   O11   A    
C8    C16   S    
O12   Zn2   S    
C17   S2    S    
C2    C17   S    
C11   O9    A    
C11   C15   S    
C1    O8    A    
O4    S2    D    
C16   C18   S    
O1    Zn1   S    
O11   Zn2   S    
H10   O3    S    
C5    C7    S    
C6    C18   S    
C15   H7    S    
C2    C5    S    
N1    Zn2   S    
C4    C10   T    
H2    O6    S    
C7    C9    S    
N2    Zn1   S    
C1    O1    A    
O14   S1    D    
H8    N1    S    
O9    Zn1   S    
C18   H1    S    
C14   H6    S    
C4    C13   S    
C11   O7    A    
C6    C17   S    
C14   C15   D    
C5    C16   S    
C6    C8    S    
C3    C12   S    
O7    Zn2   S    
C7    C17   S    
O5    S2    D    
O13   Zn1   S    
C8    C10   S    
C2    C8    S    
H9    N2    S    
C6    H4    S    
