data_mof_unit_20403.cif
_audit_creation_date              2012-12-10T17:43:31-0500
_audit_creation_method            fapswitch 2.2
_symmetry_space_group_name_H-M    P1
_symmetry_Int_Tables_number       1
_space_group_crystal_system       triclinic
_cell_length_a                    14.969412
_cell_length_b                    10.723726
_cell_length_c                    9.897503
_cell_angle_alpha                 88.912548
_cell_angle_beta                  89.780032
_cell_angle_gamma                 92.04977
_cell_volume                      1587.50626172

loop_
_atom_site_label
_atom_site_type_symbol
_atom_type_description
_atom_site_fract_x
_atom_site_fract_y
_atom_site_fract_z
_atom_type_partial_charge
Br1   Br    Br    0.633943 0.696593 0.152724 -0.530401
Br2   Br    Br    0.743792 0.307125 0.725432 -0.540288
C1    C     C_R   0.504893 0.259769 0.502281 0.873345
C2    C     C_R   0.185022 0.432321 0.604073 -0.261511
C3    C     C_R   0.231385 0.496838 0.500485 -0.058514
C4    C     C_R   0.326934 0.499518 0.500227 0.854356
C5    C     C_R   0.186774 0.557020 0.395896 -0.260802
C6    C     C_R   0.509314 0.105053 0.762628 -0.131950
C7    C     C_R   0.478310 0.040043 0.877911 -0.126009
C8    C     C_R   0.432039 0.926392 0.865230 -0.146810
C9    C     C_R   0.424943 0.872229 0.738794 -0.156549
C10   C     C_R   0.464244 0.932184 0.623090 0.095376
C11   C     C_R   0.494119 0.056710 0.631669 0.093586
C12   C     C_R   0.908471 0.550482 0.396415 0.111194
C13   C     C_R   0.507336 0.125589 0.508279 -0.102582
C14   C     C_R   0.508833 0.064948 0.384454 -0.208214
C15   C     C_R   0.497461 0.938014 0.380901 -0.190236
C16   C     C_R   0.490585 0.738638 0.499427 0.901715
C17   C     C_R   0.478289 0.870815 0.499975 -0.138208
C18   C     C_R   0.381845 0.336215 0.143869 -0.136404
C19   C     C_R   0.323389 0.256332 0.075140 -0.199868
C20   C     C_R   0.323394 0.256799 0.935282 -0.201569
C21   C     C_R   0.382151 0.336752 0.863379 -0.152987
C22   C     C_R   0.442023 0.419201 0.929566 0.142609
C23   C     C_R   0.952627 0.354490 0.703633 -0.151283
C24   C     C_R   0.441998 0.419076 0.074265 0.106270
C25   C     C_R   0.554748 0.578715 0.068311 0.296635
C26   C     C_R   0.554699 0.578017 0.925523 -0.116595
C27   C     C_R   0.672989 0.495081 0.500107 0.966661
C28   C     C_R   0.816420 0.551221 0.398810 -0.268103
C29   C     C_R   0.768583 0.486116 0.500296 -0.146449
C30   C     C_R   0.811911 0.414704 0.599841 0.205432
C31   C     C_R   0.905510 0.417286 0.601759 0.059319
C32   C     C_R   0.953461 0.485378 0.499199 0.013817
C33   C     C_R   0.045406 0.359877 0.704680 -0.234605
C34   C     C_R   0.092520 0.426611 0.603298 0.123475
C35   C     C_R   0.046695 0.488675 0.499162 0.080006
C36   C     C_R   0.094276 0.554549 0.395159 0.118264
C37   C     C_R   0.048803 0.617113 0.292685 -0.217846
C38   C     C_R   0.956063 0.615651 0.293721 -0.175217
H1    H     H_    0.781786 0.604534 0.322504 0.211617
H2    H     H_    0.220959 0.384758 0.683554 0.148883
H3    H     H_    0.224150 0.607184 0.316573 0.156895
H4    H     H_    0.084917 0.667814 0.212645 0.150434
H5    H     H_    0.921534 0.665518 0.214492 0.167398
H6    H     H_    0.505603 0.892593 0.285017 0.200429
H7    H     H_    0.277850 0.193605 0.130929 0.152065
H8    H     H_    0.278122 0.194154 0.881985 0.150458
H9    H     H_    0.080340 0.311796 0.784822 0.152522
H10   H     H_    0.520206 0.115263 0.289580 0.178833
H11   H     H_    0.547868 0.190071 0.779626 0.208253
H12   H     H_    0.488720 0.079219 0.976897 0.153798
H13   H     H_    0.404370 0.878179 0.953797 0.141644
H14   H     H_    0.388700 0.783416 0.732508 0.159303
H15   H     H_    0.377509 0.330438 0.251103 0.204463
H16   H     H_    0.379336 0.330579 0.756303 0.200808
H17   H     H_    0.599095 0.641727 0.869079 0.188185
H18   H     H_    0.918918 0.302365 0.784491 0.200990
N1    N     N_R   0.499150 0.498800 0.142780 -0.146120
N2    N     N_R   0.499120 0.498720 0.857170 -0.143388
O1    O     O_R   0.500000 0.316780 0.614690 -0.648056
O2    O     O_R   0.499990 0.316750 0.385360 -0.644666
O3    O     O_R   0.367850 0.499980 0.614680 -0.650119
O4    O     O_R   0.367840 0.499960 0.385350 -0.646579
O5    O     O_R   0.500010 0.683250 0.614640 -0.627653
O6    O     O_R   0.500000 0.683220 0.385310 -0.584440
O7    O     O_R   0.632160 0.500040 0.614650 -0.577505
O8    O     O_R   0.632150 0.500020 0.385320 -0.581002
Zn1   Zn    Zn3+2 0.500010 0.500020 0.653130 0.956240
Zn2   Zn    Zn3+2 0.499990 0.499980 0.346870 0.977246

loop_
_geom_bond_atom_site_label_1
_geom_bond_atom_site_label_2
_ccdc_geom_bond_type
C4    O3    A    
C33   H9    S    
C20   H8    S    
C21   C22   A    
C2    C34   A    
C28   H1    S    
C12   C32   A    
C37   H4    S    
C5    H3    S    
C16   O6    A    
C27   O8    A    
C3    C5    A    
C24   N1    A    
C29   C30   A    
C11   C13   A    
C22   N2    A    
Br1   C25   S    
C30   C31   A    
C2    H2    S    
C26   N2    A    
C31   C32   A    
C1    C13   S    
C21   H16   S    
C27   C29   S    
C25   N1    A    
C26   H17   S    
C15   H6    S    
C16   O5    A    
C10   C11   A    
C9    H14   S    
C6    H11   S    
O6    Zn2   S    
C7    H12   S    
C18   C24   A    
N2    Zn1   S    
C12   C28   A    
C18   H15   S    
O5    Zn1   S    
C3    C4    S    
C10   C17   A    
Br2   C30   S    
C34   C35   A    
C15   C17   A    
C5    C36   A    
C22   C24   A    
C7    C8    A    
C35   C36   A    
O4    Zn2   S    
C1    O1    A    
C28   C29   A    
C14   C15   A    
C23   C31   A    
C23   H18   S    
N1    Zn2   S    
O1    Zn1   S    
C13   C14   A    
C32   C35   A    
C6    C11   A    
C37   C38   A    
C36   C37   A    
C38   H5    S    
O2    Zn2   S    
O8    Zn2   S    
C16   C17   S    
C8    C9    A    
C1    O2    A    
C4    O4    A    
C25   C26   A    
C23   C33   A    
C8    H13   S    
C20   C21   A    
C6    C7    A    
C27   O7    A    
C19   H7    S    
C18   C19   A    
C19   C20   A    
C12   C38   A    
O3    Zn1   S    
C9    C10   A    
C14   H10   S    
C2    C3    A    
O7    Zn1   S    
C33   C34   A    
