data_mof_unit_39978.cif
_audit_creation_date              2012-12-10T20:53:07-0500
_audit_creation_method            fapswitch 2.2
_symmetry_space_group_name_H-M    P1
_symmetry_Int_Tables_number       1
_space_group_crystal_system       triclinic
_cell_length_a                    18.331197
_cell_length_b                    18.333516
_cell_length_c                    18.286561
_cell_angle_alpha                 60.094007
_cell_angle_beta                  59.881929
_cell_angle_gamma                 60.022423
_cell_volume                      4345.55412815

loop_
_atom_site_label
_atom_site_type_symbol
_atom_type_description
_atom_site_fract_x
_atom_site_fract_y
_atom_site_fract_z
_atom_type_partial_charge
C1    C     C_R   0.389846 0.110184 0.110149 0.481411
C2    C     C_R   0.388634 0.798113 0.766253 -0.058437
C3    C     C_R   0.036014 0.550470 0.909548 -0.001068
C4    C     C_R   0.445241 0.088409 0.965782 0.017484
C5    C     C_R   0.554759 0.911591 0.034218 0.017484
C6    C     C_R   0.946144 0.945776 0.553717 0.019898
C7    C     C_R   0.053856 0.054224 0.446283 0.019898
C8    C     C_R   0.946012 0.554252 0.945918 0.007774
C9    C     C_R   0.053988 0.445748 0.054082 0.007774
C10   C     C_R   0.554021 0.945910 0.945964 0.017442
C11   C     C_R   0.445979 0.054090 0.054036 0.017442
C12   C     C_2   0.082865 0.649576 0.253582 0.231286
C13   C     C_R   0.195749 0.192071 0.661934 -0.098689
C14   C     C_2   0.917135 0.350425 0.746420 0.231287
C15   C     C_2   0.510277 0.355305 0.238784 0.225704
C16   C     C_2   0.489723 0.644695 0.761216 0.225704
C17   C     C_2   0.349468 0.202278 0.580713 0.230847
C18   C     C_2   0.650533 0.797722 0.419287 0.230847
C19   C     C_2   0.866414 0.479925 0.408383 0.238912
C20   C     C_2   0.133588 0.520075 0.591613 0.238912
C21   C     C_2   0.654859 0.277468 0.955268 0.269550
C22   C     C_2   0.345140 0.722532 0.044732 0.269549
C23   C     C_2   0.274349 0.961463 0.597801 0.226098
C24   C     C_R   0.804252 0.807930 0.338065 -0.098690
C25   C     C_2   0.725650 0.038538 0.402200 0.226097
C26   C     C_R   0.019259 0.622377 0.252842 0.040061
C27   C     C_R   0.980741 0.377624 0.747158 0.040061
C28   C     C_R   0.568913 0.290758 0.188841 0.050174
C29   C     C_R   0.431087 0.709242 0.811159 0.050174
C30   C     C_R   0.285291 0.157693 0.611125 0.033664
C31   C     C_R   0.714710 0.842307 0.388874 0.033664
C32   C     C_R   0.974194 0.565177 0.331366 -0.025450
C33   C     C_R   0.610154 0.889816 0.889851 0.481411
C34   C     C_R   0.025807 0.434824 0.668633 -0.025451
C35   C     C_R   0.583077 0.316964 0.096646 -0.014450
C36   C     C_R   0.416923 0.683036 0.903354 -0.014450
C37   C     C_R   0.312455 0.081350 0.589598 -0.016036
C38   C     C_R   0.687545 0.918651 0.410402 -0.016036
C39   C     C_R   0.914947 0.539594 0.327717 0.044265
C40   C     C_R   0.085055 0.460407 0.672281 0.044263
C41   C     C_R   0.639873 0.253340 0.051216 0.050246
C42   C     C_R   0.360127 0.746659 0.948784 0.050245
C43   C     C_R   0.248719 0.041505 0.618793 0.054030
C44   C     C_R   0.109867 0.110394 0.389962 0.483012
C45   C     C_R   0.751281 0.958496 0.381207 0.054031
C46   C     C_R   0.901924 0.571370 0.246089 -0.070970
C47   C     C_R   0.098079 0.428631 0.753908 -0.070971
C48   C     C_R   0.681596 0.165302 0.098368 -0.064930
C49   C     C_R   0.318403 0.834698 0.901631 -0.064931
C50   C     C_R   0.159502 0.078789 0.668260 -0.066508
C51   C     C_R   0.840498 0.921212 0.331740 -0.066508
C52   C     C_R   0.946700 0.626936 0.169243 -0.145115
C53   C     C_R   0.053303 0.373065 0.830755 -0.145115
C54   C     C_R   0.667424 0.140067 0.188651 -0.148601
C55   C     C_R   0.890133 0.889606 0.610038 0.483011
C56   C     C_R   0.332576 0.859933 0.811349 -0.148600
C57   C     C_R   0.133574 0.153090 0.689825 -0.161917
C58   C     C_R   0.866426 0.846911 0.310175 -0.161917
C59   C     C_R   0.938966 0.583813 0.471548 -0.153442
C60   C     C_R   0.061034 0.416187 0.528452 -0.153442
C61   C     C_R   0.589745 0.466282 0.992549 -0.158432
C62   C     C_R   0.410255 0.533718 0.007451 -0.158432
C63   C     C_R   0.464577 0.986204 0.591667 -0.173860
C64   C     C_R   0.535423 0.013796 0.408333 -0.173860
C65   C     C_R   0.948232 0.553294 0.554344 0.015461
C66   C     C_R   0.109980 0.389784 0.110315 0.480027
C67   C     C_R   0.051767 0.446706 0.445656 0.015461
C68   C     C_R   0.552381 0.555211 0.944901 0.009276
C69   C     C_R   0.447619 0.444789 0.055099 0.009276
C70   C     C_R   0.555629 0.945445 0.551929 0.016517
C71   C     C_R   0.444371 0.054555 0.448071 0.016517
C72   C     C_R   0.010094 0.468745 0.583221 -0.075620
C73   C     C_R   0.989906 0.531255 0.416779 -0.075620
C74   C     C_R   0.461411 0.589496 0.952376 -0.076532
C75   C     C_R   0.538589 0.410504 0.047624 -0.076532
C76   C     C_R   0.591773 0.959678 0.458729 -0.073486
C77   C     C_R   0.890020 0.610216 0.889685 0.480028
C78   C     C_R   0.408227 0.040322 0.541271 -0.073485
C79   C     C_R   0.108809 0.390119 0.389976 0.508991
C80   C     C_R   0.891191 0.609881 0.610024 0.508990
C81   C     C_R   0.390464 0.389678 0.110696 0.503579
C82   C     C_R   0.609536 0.610321 0.889304 0.503579
C83   C     C_R   0.389626 0.110540 0.390626 0.508827
C84   C     C_R   0.610374 0.889460 0.609374 0.508827
C85   C     C_R   0.188516 0.919981 0.452294 -0.051748
C86   C     C_R   0.811484 0.080019 0.547706 -0.051747
C87   C     C_R   0.926360 0.400795 0.180950 -0.091331
C88   C     C_R   0.004720 0.652431 0.172409 -0.073586
C89   C     C_R   0.073640 0.599204 0.819049 -0.091332
C90   C     C_R   0.392486 0.177098 0.929814 -0.087956
C91   C     C_R   0.607514 0.822902 0.070186 -0.087956
C92   C     C_R   0.227602 0.827464 0.481119 -0.085118
C93   C     C_R   0.772398 0.172536 0.518881 -0.085118
C94   C     C_R   0.837257 0.406073 0.216083 -0.092021
C95   C     C_R   0.162743 0.593927 0.783917 -0.092023
C96   C     C_R   0.392911 0.210017 0.842577 -0.105017
C97   C     C_R   0.607089 0.789983 0.157423 -0.105017
C98   C     C_R   0.174223 0.773605 0.533654 -0.100934
C99   C     C_R   0.995282 0.347571 0.827590 -0.073585
C100  C     C_R   0.825777 0.226395 0.466346 -0.100934
C101  C     C_R   0.783634 0.460201 0.162620 -0.114935
C102  C     C_R   0.216366 0.539798 0.837379 -0.114935
C103  C     C_R   0.446513 0.156247 0.788923 -0.107414
C104  C     C_R   0.553487 0.843753 0.211077 -0.107414
C105  C     C_R   0.081415 0.811930 0.558274 -0.084708
C106  C     C_R   0.918585 0.188070 0.441726 -0.084708
C107  C     C_R   0.818876 0.509219 0.073624 -0.102570
C108  C     C_R   0.181124 0.490780 0.926375 -0.102570
C109  C     C_R   0.499963 0.069334 0.822248 -0.094684
C110  C     C_R   0.611367 0.201887 0.233746 -0.058438
C111  C     C_R   0.500037 0.930665 0.177752 -0.094684
C112  C     C_R   0.040112 0.905808 0.529809 0.013634
C113  C     C_R   0.959888 0.094192 0.470191 0.013634
C114  C     C_R   0.909528 0.504350 0.035969 0.003403
C115  C     C_R   0.090472 0.495649 0.964031 0.003403
C116  C     C_R   0.499736 0.033807 0.911256 0.017073
C117  C     C_R   0.500264 0.966193 0.088744 0.017073
C118  C     C_R   0.094410 0.960535 0.475825 0.025420
C119  C     C_R   0.905589 0.039465 0.524175 0.025420
C120  C     C_R   0.963986 0.449530 0.090452 -0.001069
H1    H     H_    0.795079 0.298199 0.444750 0.161353
H2    H     H_    0.340823 0.560144 0.012207 0.156639
H3    H     H_    0.436764 0.976902 0.662624 0.142492
H4    H     H_    0.563235 0.023098 0.337376 0.142492
H5    H     H_    0.299647 0.797455 0.462363 0.128403
H6    H     H_    0.700353 0.202545 0.537637 0.128403
H7    H     H_    0.809517 0.368419 0.285230 0.140074
H8    H     H_    0.190484 0.631580 0.714769 0.140073
H9    H     H_    0.351960 0.277782 0.816316 0.132202
H10   H     H_    0.648040 0.722218 0.183684 0.132202
H11   H     H_    0.042633 0.767297 0.599353 0.114853
H12   H     H_    0.204921 0.701801 0.555250 0.161353
H13   H     H_    0.957367 0.232703 0.400647 0.114854
H14   H     H_    0.774068 0.551230 0.035154 0.117869
H15   H     H_    0.225932 0.448770 0.964846 0.117869
H16   H     H_    0.541728 0.030941 0.777112 0.119029
H17   H     H_    0.458272 0.969059 0.222888 0.119029
H18   H     H_    0.936375 0.650357 0.106758 0.129081
H19   H     H_    0.063629 0.349645 0.893240 0.129081
H20   H     H_    0.699971 0.071949 0.223878 0.118887
H21   H     H_    0.300029 0.928051 0.776122 0.118887
H22   H     H_    0.064764 0.180620 0.728514 0.150048
H23   H     H_    0.285729 0.535427 0.809689 0.131029
H24   H     H_    0.935236 0.819381 0.271486 0.150049
H25   H     H_    0.038624 0.695643 0.111450 0.165488
H26   H     H_    0.961378 0.304359 0.888550 0.165488
H27   H     H_    0.601295 0.180063 0.304097 0.155458
H28   H     H_    0.398706 0.819937 0.695903 0.155458
H29   H     H_    0.173465 0.249739 0.679896 0.161844
H30   H     H_    0.826536 0.750262 0.320103 0.161844
H31   H     H_    0.232788 0.959155 0.411355 0.110895
H32   H     H_    0.767212 0.040845 0.588645 0.110895
H33   H     H_    0.964833 0.358864 0.225775 0.126495
H34   H     H_    0.714271 0.464572 0.190310 0.131029
H35   H     H_    0.035167 0.641136 0.774224 0.126494
H36   H     H_    0.350895 0.222283 0.968113 0.120860
H37   H     H_    0.649105 0.777717 0.031887 0.120860
H38   H     H_    0.095638 0.626823 0.314638 0.125852
H39   H     H_    0.904361 0.373177 0.685365 0.125853
H40   H     H_    0.479579 0.425016 0.204897 0.115666
H41   H     H_    0.520421 0.574984 0.795103 0.115665
H42   H     H_    0.418239 0.178889 0.538986 0.131973
H43   H     H_    0.581761 0.821111 0.461014 0.131974
H44   H     H_    0.874580 0.455173 0.472366 0.122767
H45   H     H_    0.552741 0.817829 0.279074 0.149506
H46   H     H_    0.125421 0.544826 0.527632 0.122766
H47   H     H_    0.620932 0.344006 0.918146 0.117361
H48   H     H_    0.379068 0.655993 0.081854 0.117361
H49   H     H_    0.342665 0.931586 0.559518 0.107347
H50   H     H_    0.657335 0.068414 0.440482 0.107347
H51   H     H_    0.856862 0.553217 0.241506 0.165508
H52   H     H_    0.143142 0.446784 0.758490 0.165508
H53   H     H_    0.725113 0.115423 0.065456 0.169174
H54   H     H_    0.274886 0.884577 0.934544 0.169174
H55   H     H_    0.109501 0.050049 0.690959 0.174093
H56   H     H_    0.447259 0.182171 0.720926 0.149506
H57   H     H_    0.890498 0.949952 0.309041 0.174093
H58   H     H_    0.890407 0.648011 0.450336 0.149698
H59   H     H_    0.109593 0.351989 0.549663 0.149698
H60   H     H_    0.659177 0.439856 0.987792 0.156639
O1    O     O_3   0.250000 0.250000 0.250000 -0.446912
O2    O     O_R   0.865800 0.694910 0.573470 -0.542532
O3    O     O_R   0.305090 0.426530 0.134200 -0.541589
O4    O     O_R   0.694910 0.573470 0.865800 -0.541589
O5    O     O_R   0.426530 0.134200 0.305090 -0.546541
O6    O     O_R   0.573470 0.865800 0.694910 -0.546541
O7    O     O_R   0.134190 0.426530 0.134200 -0.541088
O8    O     O_R   0.865810 0.573470 0.865800 -0.541089
O9    O     O_R   0.426530 0.134200 0.134190 -0.543491
O10   O     O_R   0.573470 0.865800 0.865810 -0.543491
O11   O     O_R   0.134200 0.134190 0.426530 -0.532126
O12   O     O_3   0.750000 0.750000 0.750000 -0.446912
O13   O     O_R   0.865800 0.865810 0.573470 -0.532126
O14   O     O_R   0.426530 0.305080 0.134210 -0.536702
O15   O     O_R   0.573470 0.694920 0.865790 -0.536702
O16   O     O_R   0.305080 0.134210 0.426530 -0.538069
O17   O     O_R   0.694920 0.865790 0.573470 -0.538068
O18   O     O_R   0.134210 0.426530 0.305080 -0.531829
O19   O     O_R   0.865790 0.573470 0.694920 -0.531829
O20   O     O_2   0.122192 0.697937 0.185586 -0.488622
O21   O     O_2   0.877808 0.302065 0.814416 -0.488623
O22   O     O_2   0.495364 0.331344 0.318938 -0.502410
O23   O     O_R   0.305080 0.134200 0.134200 -0.539847
O24   O     O_2   0.504638 0.668656 0.681061 -0.502410
O25   O     O_2   0.326161 0.266344 0.601671 -0.499600
O26   O     O_2   0.673840 0.733656 0.398328 -0.499601
O27   O     O_2   0.816295 0.457505 0.404452 -0.528275
O28   O     O_2   0.183709 0.542495 0.595543 -0.528272
O29   O     O_2   0.705410 0.222912 0.916190 -0.469344
O30   O     O_2   0.294589 0.777088 0.083810 -0.469342
O31   O     O_2   0.219190 0.927682 0.623017 -0.509389
O32   O     O_2   0.780809 0.072319 0.376983 -0.509389
O33   O     O_R   0.694920 0.865800 0.865800 -0.539848
O34   O     O_R   0.134200 0.134200 0.305080 -0.538276
O35   O     O_R   0.865800 0.865800 0.694920 -0.538276
O36   O     O_R   0.134200 0.305080 0.134200 -0.545150
O37   O     O_R   0.865800 0.694920 0.865800 -0.545150
O38   O     O_R   0.134200 0.305090 0.426530 -0.542532
Zn1   Zn    Zn3+2 0.206620 0.206630 0.380140 0.948880
Zn2   Zn    Zn3+2 0.793380 0.793370 0.619860 0.948880
Zn3   Zn    Zn3+2 0.206630 0.380140 0.206620 0.944866
Zn4   Zn    Zn3+2 0.793370 0.619860 0.793380 0.944866
Zn5   Zn    Zn3+2 0.380140 0.206620 0.206630 0.937417
Zn6   Zn    Zn3+2 0.619860 0.793380 0.793370 0.937417
Zn7   Zn    Zn3+2 0.206620 0.206620 0.206620 0.930184
Zn8   Zn    Zn3+2 0.793380 0.793380 0.793380 0.930184

loop_
_geom_bond_atom_site_label_1
_geom_bond_atom_site_label_2
_ccdc_geom_bond_type
C25   H50   S    
C101  C107  A    
C40   C47   A    
C14   O21   D    
O2    Zn2   S    
C46   C52   A    
O1    Zn5   S    
C84   O6    A    
C1    C11   S    
C62   H2    S    
C6    C55   S    
C51   H57   S    
C92   H5    S    
O16   Zn1   S    
C47   H52   S    
C15   C28   S    
C92   C98   A    
C105  H11   S    
C38   C76   S    
C94   H7    S    
C53   C99   A    
C60   H59   S    
C48   C54   A    
C29   C36   A    
C35   C75   S    
C98   C105  A    
C57   H22   S    
C2    C29   A    
C34   C40   A    
C108  C115  A    
C96   H9    S    
C98   H12   S    
C97   H10   S    
C107  H14   S    
C86   H32   S    
C44   O11   A    
C55   O35   A    
O15   Zn6   S    
C20   C40   S    
C89   H35   S    
C13   C57   A    
C45   C51   A    
C68   C74   A    
C87   C94   A    
C82   O4    A    
C23   C43   S    
C46   H51   S    
C54   C110  A    
C100  H1    S    
C32   C39   A    
C83   O16   A    
O34   Zn7   S    
C9    C66   S    
C103  H56   S    
C38   C45   A    
O33   Zn8   S    
C109  C116  A    
C81   O14   A    
C93   H6    S    
C36   C42   A    
C95   H8    S    
C106  H13   S    
C54   H20   S    
C94   C101  A    
O1    Zn1   S    
C52   H18   S    
C88   H25   S    
C87   H33   S    
C102  C108  A    
C86   C119  A    
C67   C73   A    
C80   O2    A    
C14   C27   S    
O17   Zn2   S    
C70   C84   S    
C59   C73   A    
C4    C90   A    
C95   C102  A    
C8    C114  A    
O37   Zn8   S    
O13   Zn2   S    
C22   H48   S    
O12   Zn8   S    
C103  C109  A    
C104  H45   S    
C64   C71   A    
C65   C80   S    
C113  C119  A    
C66   O7    A    
C109  H16   S    
C19   O27   D    
C17   C30   S    
C7    C118  A    
C18   O26   D    
C49   H54   S    
C85   C92   A    
C4    C116  A    
C71   C83   S    
C27   C34   A    
C12   O20   D    
C106  C113  A    
O1    Zn3   S    
C9    C115  A    
C13   C30   A    
C52   C88   A    
O18   Zn3   S    
C67   C79   S    
C60   C67   A    
C108  H15   S    
C3    C8    A    
O11   Zn1   S    
C32   C73   S    
C51   C58   A    
C24   H30   S    
C33   O33   A    
C26   C32   A    
C79   O38   A    
O7    Zn3   S    
C28   C110  A    
C16   C29   S    
C64   H4    S    
C80   O19   A    
C61   C75   A    
C30   C37   A    
C12   C26   S    
C33   O10   A    
C89   C95   A    
C25   O32   D    
O4    Zn4   S    
C85   H31   S    
C107  C114  A    
C86   C93   A    
O10   Zn6   S    
C18   H43   S    
C23   H49   S    
C63   C70   A    
O3    Zn3   S    
C62   C74   A    
C27   C99   A    
C13   H29   S    
C11   C117  A    
C3    C89   A    
C64   C76   A    
O19   Zn4   S    
C7    C44   S    
C91   C97   A    
C4    C11   A    
C93   C100  A    
O12   Zn6   S    
C82   O15   A    
C5    C91   A    
C19   C39   S    
C39   C46   A    
C21   C41   S    
C56   H21   S    
C87   C120  A    
C55   O13   A    
C99   H26   S    
C70   C76   A    
C8    C77   S    
C84   O17   A    
C44   O34   A    
C37   C43   A    
C102  H23   S    
C81   O3    A    
C90   H36   S    
C110  H27   S    
C1    O23   A    
C25   C45   S    
C6    C119  A    
O23   Zn7   S    
C15   O22   D    
C10   C116  A    
C111  H17   S    
C48   H53   S    
C77   O8    A    
O6    Zn6   S    
C36   C74   S    
C53   H19   S    
C50   C57   A    
C6    C112  A    
C105  C112  A    
C59   H58   S    
C83   O5    A    
C104  C111  A    
C63   H3    S    
O9    Zn5   S    
C43   C50   A    
C90   C96   A    
C16   H41   S    
C65   C72   A    
C20   H46   S    
C37   C78   S    
C100  C106  A    
O36   Zn7   S    
C21   H47   S    
C31   C38   A    
C47   C53   A    
C14   H39   S    
C111  C117  A    
O35   Zn8   S    
O1    Zn7   S    
C7    C113  A    
C17   O25   D    
C24   C31   A    
C68   C82   S    
C5    C10   A    
C49   C56   A    
C3    C115  A    
C59   C65   A    
C112  C118  A    
C61   C68   A    
C77   O37   A    
O38   Zn1   S    
C22   C42   S    
C23   O31   D    
C101  H34   S    
C22   O30   D    
O12   Zn2   S    
C41   C48   A    
C21   O29   D    
C69   C75   A    
C10   C33   S    
C19   H44   S    
C60   C72   A    
C66   O36   A    
C85   C118  A    
C35   C41   A    
C91   H37   S    
C97   C104  A    
C69   C81   S    
C17   H42   S    
C34   C72   S    
O12   Zn4   S    
C26   C88   A    
C58   H24   S    
C15   H40   S    
C62   C69   A    
C61   H60   S    
C24   C58   A    
O5    Zn5   S    
C96   C103  A    
C5    C117  A    
C79   O18   A    
C9    C120  A    
C20   O28   D    
C50   H55   S    
C2    C56   A    
C18   C31   S    
C12   H38   S    
C42   C49   A    
C16   O24   D    
C28   C35   A    
C2    H28   S    
C71   C78   A    
C114  C120  A    
O8    Zn4   S    
O14   Zn5   S    
C63   C78   A    
C1    O9    A    
