data_mof_unit_26446.cif
_audit_creation_date              2012-12-11T14:15:03-0500
_audit_creation_method            fapswitch 2.2
_symmetry_space_group_name_H-M    P1
_symmetry_Int_Tables_number       1
_space_group_crystal_system       triclinic
_cell_length_a                    24.352102
_cell_length_b                    17.310482
_cell_length_c                    15.779057
_cell_angle_alpha                 89.461741
_cell_angle_beta                  128.487753
_cell_angle_gamma                 90.328893
_cell_volume                      5206.25799988

loop_
_atom_site_label
_atom_site_type_symbol
_atom_type_description
_atom_site_fract_x
_atom_site_fract_y
_atom_site_fract_z
_atom_type_partial_charge
C1    C     C_R   0.335563 0.387397 0.206865 0.412851
C2    C     C_R   0.683135 0.618748 0.499589 -0.012502
C3    C     C_3   0.627730 0.116495 0.203282 -0.235127
C4    C     C_3   0.574732 0.182646 0.153872 -1.006436
C5    C     C_3   0.278852 0.155667 0.755721 0.182360
C6    C     C_3   0.336835 0.192112 0.757070 -0.349515
C7    C     C_3   0.385197 0.242406 0.857093 -0.980588
C8    C     C_R   0.817777 0.117025 0.502381 -0.017126
C9    C     C_R   0.183135 0.118747 0.499589 -0.012501
C10   C     C_R   0.386373 0.687929 0.224342 0.050585
C11   C     C_R   0.646772 0.629953 0.857218 0.051013
C12   C     C_R   0.886374 0.187930 0.224344 0.050590
C13   C     C_R   0.146772 0.129953 0.857218 0.051015
C14   C     C_2   0.730799 0.657740 0.407213 -0.111636
C15   C     C_2   0.273457 0.657773 0.597816 -0.113764
C16   C     C_2   0.230799 0.157740 0.407213 -0.111637
C17   C     C_R   0.668753 0.402697 0.802021 0.413882
C18   C     C_2   0.773459 0.157778 0.597817 -0.113770
C19   C     C_2   0.741898 0.631703 0.497227 -0.158445
C20   C     C_2   0.260756 0.628547 0.508652 -0.165652
C21   C     C_2   0.241898 0.131702 0.497226 -0.158444
C22   C     C_2   0.760757 0.128552 0.508652 -0.165637
C23   C     C_2   0.283266 0.201541 0.408053 -0.109230
C24   C     C_2   0.721811 0.205412 0.592781 -0.111249
C25   C     C_2   0.783267 0.701541 0.408054 -0.109229
C26   C     C_2   0.221810 0.705409 0.592778 -0.111251
C27   C     C_2   0.339767 0.233914 0.498404 -0.184484
C28   C     C_R   0.835563 0.887396 0.206866 0.412849
C29   C     C_2   0.672530 0.244449 0.502091 -0.176927
C30   C     C_2   0.839767 0.733914 0.498404 -0.184484
C31   C     C_2   0.172535 0.744453 0.502091 -0.176925
C32   C     C_2   0.697854 0.363477 0.983048 -0.128017
C33   C     C_2   0.328091 0.293057 0.078979 -0.143475
C34   C     C_2   0.197855 0.863477 0.983048 -0.128014
C35   C     C_2   0.828091 0.793054 0.078981 -0.143473
C36   C     C_2   0.761817 0.336402 0.028088 -0.164344
C37   C     C_2   0.293966 0.238560 0.089936 -0.154335
C38   C     C_2   0.261817 0.836402 0.028088 -0.164346
C39   C     C_R   0.168753 0.902697 0.802021 0.413881
C40   C     C_2   0.793967 0.738557 0.089939 -0.154335
C41   C     C_2   0.360612 0.758827 0.160138 -0.133274
C42   C     C_2   0.692633 0.661455 0.966166 -0.120662
C43   C     C_2   0.860613 0.258829 0.160140 -0.133275
C44   C     C_2   0.192633 0.161456 0.966165 -0.120663
C45   C     C_R   0.590790 0.357402 0.412539 -0.192412
C46   C     C_R   0.419188 0.349953 0.584837 -0.191452
C47   C     C_R   0.090792 0.857403 0.412539 -0.192410
C48   C     C_R   0.919189 0.849954 0.584837 -0.191455
C49   C     C_2   0.301621 0.792686 0.129199 -0.144900
C50   C     C_R   0.386198 0.602906 0.590576 -0.218163
C51   C     C_2   0.758766 0.678652 0.009967 -0.148087
C52   C     C_2   0.801621 0.292686 0.129200 -0.144901
C53   C     C_2   0.258765 0.178655 0.009964 -0.148090
C54   C     C_R   0.663852 0.358931 0.593319 -0.054822
C55   C     C_R   0.338389 0.357216 0.407397 -0.068890
C56   C     C_R   0.163854 0.858932 0.593319 -0.054820
C57   C     C_R   0.838389 0.857216 0.407397 -0.068881
C58   C     C_R   0.580273 0.401966 0.807919 0.409754
C59   C     C_R   0.424996 0.385480 0.204670 0.483996
C60   C     C_R   0.080273 0.901965 0.807919 0.409759
C61   C     C_R   0.615992 0.600097 0.411133 -0.146926
C62   C     C_R   0.924996 0.885478 0.204671 0.483998
C63   C     C_R   0.358866 0.356823 0.153844 -0.142173
C64   C     C_R   0.650917 0.385725 0.867992 -0.110074
C65   C     C_R   0.858866 0.856821 0.153846 -0.142174
C66   C     C_R   0.150917 0.885725 0.867992 -0.110075
C67   C     C_R   0.642262 0.315989 0.503997 0.093228
C68   C     C_R   0.366274 0.309231 0.495193 0.104815
C69   C     C_R   0.142265 0.815991 0.503997 0.093227
C70   C     C_R   0.866274 0.809231 0.495193 0.104811
C71   C     C_R   0.312074 0.602220 0.410375 0.516302
C72   C     C_R   0.886199 0.102908 0.590576 -0.218165
C73   C     C_R   0.687424 0.605602 0.590329 0.527023
C74   C     C_R   0.812074 0.102219 0.410374 0.516290
C75   C     C_R   0.187424 0.105601 0.590329 0.527019
C76   C     C_R   0.442684 0.645843 0.249998 0.468214
C77   C     C_R   0.576967 0.611548 0.798771 0.524197
C78   C     C_R   0.942684 0.145843 0.249998 0.468213
C79   C     C_R   0.076967 0.111549 0.798771 0.524193
C80   C     C_R   0.667107 0.604872 0.798114 -0.253360
C81   C     C_R   0.352757 0.642686 0.251966 -0.213548
C82   C     C_R   0.167107 0.104873 0.798114 -0.253357
C83   C     C_R   0.115992 0.100097 0.411133 -0.146924
C84   C     C_R   0.852758 0.142686 0.251968 -0.213545
C85   C     C_3   0.483659 0.416729 0.803148 0.148254
C86   C     C_3   0.456056 0.446917 0.860043 -0.315881
C87   C     C_3   0.375580 0.446406 0.783213 -1.013751
C88   C     C_3   0.502948 0.441710 0.181487 0.154493
C89   C     C_3   0.463709 0.494868 0.082697 -0.343331
C90   C     C_3   0.515071 0.544160 0.079663 -0.959824
C91   C     C_3   0.983658 0.916732 0.803145 0.148257
C92   C     C_3   0.956055 0.946920 0.860041 -0.315889
C93   C     C_3   0.875579 0.946415 0.783208 -1.013745
C94   C     C_R   0.317777 0.617022 0.502382 -0.017137
C95   C     C_3   0.002948 0.941710 0.181486 0.154495
C96   C     C_3   0.963709 0.994868 0.082697 -0.343330
C97   C     C_3   0.015070 0.044159 0.079663 -0.959827
C98   C     C_3   0.202547 0.646351 0.261660 0.139443
C99   C     C_3   0.127731 0.616507 0.203263 -0.235089
C100  C     C_3   0.074734 0.682661 0.153894 -1.006501
C101  C     C_3   0.778848 0.655672 0.755719 0.182356
C102  C     C_3   0.836828 0.692122 0.757064 -0.349522
C103  C     C_3   0.885184 0.742423 0.857081 -0.980579
C104  C     C_3   0.702545 0.146338 0.261651 0.139475
H1    H     H_    0.794462 0.625959 0.572102 0.145853
H2    H     H_    0.660497 0.231024 0.425193 0.129726
H3    H     H_    0.521281 0.158941 0.112942 0.275151
H4    H     H_    0.575392 0.214785 0.093228 0.269200
H5    H     H_    0.304633 0.136772 0.840124 0.137634
H6    H     H_    0.238811 0.199938 0.734561 0.067700
H7    H     H_    0.369066 0.146004 0.758724 0.222747
H8    H     H_    0.312919 0.228652 0.683612 0.187451
H9    H     H_    0.354818 0.288976 0.859032 0.271866
H10   H     H_    0.426219 0.268586 0.855595 0.267856
H11   H     H_    0.411670 0.206965 0.932055 0.272376
H12   H     H_    0.499205 0.620379 0.212124 0.311699
H13   H     H_    0.859184 0.714072 0.577936 0.126772
H14   H     H_    0.505944 0.571268 0.801012 0.313902
H15   H     H_    0.999204 0.120379 0.212123 0.311699
H16   H     H_    0.005944 0.071269 0.801012 0.313899
H17   H     H_    0.160509 0.731034 0.425196 0.129714
H18   H     H_    0.277234 0.777686 0.165916 0.126195
H19   H     H_    0.781993 0.661904 0.972545 0.127054
H20   H     H_    0.777233 0.277686 0.165915 0.126196
H21   H     H_    0.281992 0.161909 0.972540 0.127053
H22   H     H_    0.781189 0.334719 0.982193 0.173915
H23   H     H_    0.286006 0.242679 0.150381 0.147234
H24   H     H_    0.281189 0.834719 0.982192 0.173915
H25   H     H_    0.207372 0.621884 0.435986 0.144093
H26   H     H_    0.786007 0.742677 0.150384 0.147233
H27   H     H_    0.384564 0.776262 0.123364 0.173663
H28   H     H_    0.669440 0.682064 0.002459 0.165643
H29   H     H_    0.884565 0.276264 0.123367 0.173664
H30   H     H_    0.169440 0.182064 0.002459 0.165644
H31   H     H_    0.676848 0.359963 0.026842 0.166326
H32   H     H_    0.336699 0.288171 0.019356 0.164152
H33   H     H_    0.176848 0.859962 0.026842 0.166325
H34   H     H_    0.836700 0.788168 0.019358 0.164153
H35   H     H_    0.564240 0.337392 0.331735 0.158761
H36   H     H_    0.294461 0.125958 0.572100 0.145851
H37   H     H_    0.459216 0.321673 0.659529 0.092893
H38   H     H_    0.064242 0.837394 0.331735 0.158758
H39   H     H_    0.959217 0.821673 0.659529 0.092896
H40   H     H_    0.703777 0.344280 0.677510 0.143058
H41   H     H_    0.295899 0.343984 0.324653 0.155757
H42   H     H_    0.203780 0.844282 0.677510 0.143060
H43   H     H_    0.795899 0.843984 0.324654 0.155756
H44   H     H_    0.719441 0.591647 0.829575 0.159897
H45   H     H_    0.306537 0.657167 0.242008 0.140800
H46   H     H_    0.219441 0.091648 0.829574 0.159893
H47   H     H_    0.707374 0.121891 0.435986 0.144082
H48   H     H_    0.806540 0.157170 0.242015 0.140776
H49   H     H_    0.403277 0.595703 0.671193 0.131711
H50   H     H_    0.602665 0.585290 0.334488 0.109816
H51   H     H_    0.903278 0.095708 0.671193 0.131711
H52   H     H_    0.102665 0.085291 0.334488 0.109817
H53   H     H_    0.677978 0.659424 0.330923 0.140214
H54   H     H_    0.326314 0.660284 0.673722 0.139559
H55   H     H_    0.177977 0.159426 0.330922 0.140214
H56   H     H_    0.826316 0.160288 0.673723 0.139556
H57   H     H_    0.236374 0.375624 0.090663 0.323610
H58   H     H_    0.265627 0.221892 0.329480 0.121070
H59   H     H_    0.758694 0.450048 0.907803 0.317592
H60   H     H_    0.736374 0.875621 0.090665 0.323610
H61   H     H_    0.258694 0.950048 0.907803 0.317591
H62   H     H_    0.473542 0.353772 0.796083 0.103076
H63   H     H_    0.454787 0.449778 0.727221 0.137889
H64   H     H_    0.476569 0.409840 0.931925 0.217583
H65   H     H_    0.473484 0.507100 0.884937 0.239454
H66   H     H_    0.355150 0.388124 0.748615 0.282185
H67   H     H_    0.355020 0.487889 0.715430 0.271176
H68   H     H_    0.355157 0.463861 0.826294 0.270770
H69   H     H_    0.734385 0.221160 0.669482 0.124443
H70   H     H_    0.550390 0.419110 0.194657 0.142823
H71   H     H_    0.522138 0.475772 0.253561 0.085098
H72   H     H_    0.431309 0.459375 0.009073 0.234073
H73   H     H_    0.427009 0.532225 0.083163 0.187243
H74   H     H_    0.553182 0.575184 0.156111 0.249605
H75   H     H_    0.485603 0.587326 0.012981 0.286327
H76   H     H_    0.546938 0.506947 0.068331 0.270467
H77   H     H_    0.973537 0.853776 0.796076 0.103079
H78   H     H_    0.954788 0.949784 0.727220 0.137888
H79   H     H_    0.976566 0.909840 0.931919 0.217581
H80   H     H_    0.765627 0.721891 0.329480 0.121069
H81   H     H_    0.973486 0.007101 0.884940 0.239457
H82   H     H_    0.855146 0.888137 0.748596 0.282185
H83   H     H_    0.855022 0.987907 0.715437 0.271174
H84   H     H_    0.855156 0.963863 0.826293 0.270771
H85   H     H_    0.050390 0.919110 0.194656 0.142829
H86   H     H_    0.022137 0.975772 0.253561 0.085097
H87   H     H_    0.931309 0.959375 0.009073 0.234072
H88   H     H_    0.927008 0.032224 0.083162 0.187243
H89   H     H_    0.053181 0.075183 0.156111 0.249605
H90   H     H_    0.985603 0.087326 0.012981 0.286328
H91   H     H_    0.234379 0.721153 0.669477 0.124443
H92   H     H_    0.046937 0.006947 0.068331 0.270466
H93   H     H_    0.204124 0.673836 0.199465 0.106272
H94   H     H_    0.214209 0.692917 0.319075 0.073705
H95   H     H_    0.113895 0.576609 0.137766 0.216940
H96   H     H_    0.124265 0.583546 0.260467 0.196660
H97   H     H_    0.086934 0.722994 0.217926 0.265147
H98   H     H_    0.021277 0.658952 0.112878 0.275157
H99   H     H_    0.075433 0.714867 0.093334 0.269209
H100  H     H_    0.804631 0.636778 0.840124 0.137631
H101  H     H_    0.738805 0.699939 0.734559 0.067707
H102  H     H_    0.359184 0.214072 0.577935 0.126771
H103  H     H_    0.869063 0.646017 0.758725 0.222744
H104  H     H_    0.812908 0.728658 0.683602 0.187456
H105  H     H_    0.854801 0.788994 0.859010 0.271867
H106  H     H_    0.926206 0.768604 0.855583 0.267862
H107  H     H_    0.911657 0.706988 0.932047 0.272367
H108  H     H_    0.704112 0.173804 0.199437 0.106303
H109  H     H_    0.714213 0.192916 0.319055 0.073672
H110  H     H_    0.613893 0.076567 0.137811 0.216955
H111  H     H_    0.624268 0.083567 0.260510 0.196633
H112  H     H_    0.586962 0.223044 0.217868 0.265134
N1    N     N_R   0.389060 0.424180 0.294540 -0.094367
N2    N     N_R   0.374530 0.423490 0.443400 -0.028973
N3    N     N_R   0.125470 0.923490 0.556600 -0.030155
N4    N     N_R   0.874530 0.923490 0.443400 -0.028971
N5    N     N_R   0.555250 0.423100 0.705420 -0.137791
N6    N     N_R   0.444750 0.423100 0.294580 -0.143955
N7    N     N_R   0.055250 0.923100 0.705420 -0.137794
N8    N     N_R   0.944750 0.923100 0.294580 -0.143956
N9    N     N_R   0.375210 0.577180 0.443400 -0.081019
N10   N     N_R   0.624790 0.577180 0.556600 -0.087512
N11   N     N_R   0.875210 0.077180 0.443400 -0.081019
N12   N     N_R   0.610940 0.424180 0.705460 -0.094321
N13   N     N_R   0.124790 0.077180 0.556600 -0.087512
N14   N     N_R   0.445430 0.577570 0.294580 -0.122899
N15   N     N_R   0.554570 0.577570 0.705420 -0.112282
N16   N     N_R   0.945430 0.077570 0.294580 -0.122899
N17   N     N_R   0.054570 0.077570 0.705420 -0.112283
N18   N     N_R   0.611620 0.576500 0.705460 -0.062298
N19   N     N_R   0.388380 0.576500 0.294540 -0.055533
N20   N     N_R   0.111620 0.076500 0.705460 -0.062298
N21   N     N_R   0.888380 0.076500 0.294540 -0.055534
N22   N     N_R   0.421010 0.576890 0.556640 -0.082409
N23   N     N_R   0.889060 0.924180 0.294540 -0.094366
N24   N     N_R   0.578990 0.576890 0.443360 -0.084117
N25   N     N_R   0.921010 0.076890 0.556640 -0.082408
N26   N     N_R   0.078990 0.076890 0.443360 -0.084116
N27   N     N_R   0.110940 0.924180 0.705460 -0.094321
N28   N     N_R   0.579670 0.423790 0.443360 -0.058743
N29   N     N_R   0.420330 0.423790 0.556640 -0.061054
N30   N     N_R   0.079670 0.923790 0.443360 -0.058743
N31   N     N_R   0.920330 0.923790 0.556640 -0.061053
N32   N     N_R   0.625470 0.423490 0.556600 -0.030155
Ni1   Ni    Ni4+2 0.383200 0.500680 0.370150 0.286369
Ni2   Ni    Ni4+2 0.616800 0.500680 0.629850 0.270495
Ni3   Ni    Ni4+2 0.883200 0.000680 0.370150 0.286370
Ni4   Ni    Ni4+2 0.116800 0.000680 0.629850 0.270495
Ni5   Ni    Ni4+2 0.512440 0.500680 0.370150 0.174876
Ni6   Ni    Ni4+2 0.487560 0.500680 0.629850 0.192354
Ni7   Ni    Ni4+2 0.012440 0.000680 0.370150 0.174877
Ni8   Ni    Ni4+2 0.987560 0.000680 0.629850 0.192354
O1    O     O_3   0.266683 0.397837 0.164370 -0.756112
O2    O     O_3   0.750090 0.588413 0.690790 -0.649257
O3    O     O_3   0.750089 0.083113 0.309785 -0.646955
O4    O     O_3   0.250090 0.088410 0.690789 -0.649255
O5    O     O_3   0.484254 0.668556 0.223897 -0.766598
O6    O     O_3   0.543551 0.609266 0.843297 -0.764358
O7    O     O_3   0.984254 0.168557 0.223897 -0.766598
O8    O     O_3   0.043551 0.109267 0.843297 -0.764360
O9    O     O_3   0.733651 0.426053 0.835649 -0.760680
O10   O     O_3   0.766683 0.897836 0.164370 -0.756112
O11   O     O_3   0.233651 0.926053 0.835649 -0.760679
O12   O     O_3   0.555798 0.430152 0.861896 -0.644052
O13   O     O_3   0.461486 0.376918 0.164141 -0.668532
O14   O     O_3   0.055798 0.930150 0.861896 -0.644055
O15   O     O_3   0.961486 0.876917 0.164141 -0.668529
O16   O     O_3   0.250089 0.583124 0.309780 -0.646961

loop_
_geom_bond_atom_site_label_1
_geom_bond_atom_site_label_2
_ccdc_geom_bond_type
C3    C104  S    
C54   H40   S    
C76   O5    S    
C13   C79   A    
C101  C102  S    
C4    H112  S    
C82   N20   A    
C86   H65   S    
C51   H19   S    
C78   O7    S    
N9    N22   A    
C84   N21   A    
C20   H25   S    
N14   Ni5   S    
C61   H50   S    
N18   Ni2   S    
C90   H74   S    
C55   C68   A    
C28   O10   S    
C71   C94   A    
C74   O3    S    
C3    H110  S    
C4    H4    S    
C47   H38   S    
C59   O13   S    
N24   Ni5   S    
C16   C21   D    
C88   H71   S    
N22   Ni6   S    
C18   C24   S    
C85   H62   S    
C32   C36   D    
C7    H10   S    
C104  H109  S    
C12   C43   S    
C17   C64   A    
C5    C6    S    
C100  H99   S    
C39   O11   S    
C43   C52   D    
C55   H41   S    
C5    H6    S    
C26   H91   S    
C50   H49   S    
C3    H111  S    
N26   Ni7   S    
C45   H35   S    
C88   H70   S    
C12   C84   A    
C11   C42   S    
C75   N13   A    
C6    H7    S    
C97   H89   S    
C43   H29   S    
N15   Ni6   S    
C24   C29   D    
C47   C69   A    
C17   O9    S    
C27   C68   S    
C11   C77   A    
N17   Ni8   S    
C29   C67   S    
C100  H98   S    
N7    Ni8   S    
H15   O7    S    
C95   C96   S    
N7    N27   A    
C71   O16   S    
H16   O8    S    
C12   C78   A    
C99   H96   S    
C45   C67   A    
C8    C22   S    
C81   N19   A    
N17   N20   A    
H12   O5    S    
C62   N8    A    
C57   C70   A    
C55   N2    A    
C102  H103  S    
C39   N27   A    
C95   H86   S    
C2    C61   A    
C62   O15   S    
C52   H20   S    
C23   H58   S    
C37   C53   S    
C93   H82   S    
C91   O14   S    
C42   H28   S    
C60   C66   A    
C26   C31   D    
C72   H51   S    
C34   C38   D    
H59   O9    S    
C10   C41   S    
C44   H30   S    
C79   O8    S    
C71   N9    A    
C85   O12   S    
C103  H105  S    
C102  C103  S    
N16   Ni7   S    
N1    Ni1   S    
N20   Ni4   S    
C58   O12   S    
C24   H69   S    
C1    C63   A    
C103  H106  S    
C41   C49   D    
C34   C66   S    
C30   C70   S    
C58   N5    A    
N32   Ni2   S    
C46   H37   S    
N12   Ni2   S    
C98   H93   S    
C58   C64   A    
C15   C20   D    
C4    H3    S    
C90   H76   S    
C8    C72   A    
N10   N24   A    
C77   O6    S    
C98   H94   S    
C14   H53   S    
N23   Ni3   S    
C85   H63   S    
N2    N29   A    
C80   N18   A    
C50   N22   A    
C86   H64   S    
C96   H87   S    
C32   C64   S    
C15   H54   S    
C103  H107  S    
C91   C92   S    
C41   H27   S    
C86   C87   S    
C50   C94   A    
C15   C26   S    
C6    H8    S    
C83   H52   S    
C98   O16   S    
C85   C86   S    
C87   H66   S    
H60   O10   S    
C13   C82   A    
C92   H79   S    
C5    O4    S    
C33   C37   D    
N28   N32   A    
C48   H39   S    
C104  O3    S    
C97   H90   S    
C46   C68   A    
C74   N11   A    
C56   N3    A    
C59   N6    A    
C28   N23   A    
C100  H97   S    
C38   H24   S    
C99   C100  S    
C83   N26   A    
C80   H44   S    
C33   C63   S    
C87   H67   S    
C96   C97   S    
C34   H33   S    
C8    C74   A    
C44   C53   D    
N3    N30   A    
N14   N19   A    
N25   Ni8   S    
C88   C89   S    
C37   H23   S    
C45   N28   A    
C79   N17   A    
C82   H46   S    
C2    C73   A    
C53   H21   S    
C9    C83   A    
C84   H48   S    
C57   N4    A    
N4    N31   A    
C54   N32   A    
C56   C69   A    
C16   C23   S    
C23   C27   D    
C89   H73   S    
C57   H43   S    
C76   N14   A    
N16   N21   A    
N2    Ni1   S    
C29   H2    S    
C91   H78   S    
C104  H108  S    
C49   H18   S    
C3    C4    S    
C60   N7    A    
C93   H83   S    
C38   C49   S    
C97   H92   S    
N11   Ni3   S    
C77   N15   A    
H57   O1    S    
C25   C30   D    
N10   Ni2   S    
C40   H26   S    
N5    Ni6   S    
N1    N6    A    
N9    Ni1   S    
N27   Ni4   S    
C92   H81   S    
C62   C65   A    
C2    C19   S    
C18   C22   D    
C61   N24   A    
C10   C76   A    
C72   N25   A    
C7    H11   S    
C101  O2    S    
C36   H22   S    
C46   N29   A    
C48   C70   A    
C101  H100  S    
C36   C52   S    
C90   H75   S    
N11   N25   A    
C32   H31   S    
C101  H101  S    
C25   H80   S    
C102  H104  S    
C95   O15   S    
C6    C7    S    
C54   C67   A    
C30   H13   S    
C48   N31   A    
C40   C51   S    
N29   Ni6   S    
C42   C51   D    
C10   C81   A    
C59   C63   A    
C89   H72   S    
C17   N12   A    
N28   Ni5   S    
C27   H102  S    
N5    N12   A    
C7    H9    S    
C22   H47   S    
C91   H77   S    
C28   C65   A    
C89   C90   S    
C35   H34   S    
N31   Ni8   S    
N13   N26   A    
N6    Ni5   S    
C33   H32   S    
C9    C21   S    
C73   N10   A    
C5    H5    S    
H14   O6    S    
C81   H45   S    
C87   H68   S    
C1    O1    S    
C14   C19   D    
C92   C93   S    
C39   C66   A    
C35   C40   D    
N15   N18   A    
C20   C94   S    
C47   N30   A    
C14   C25   S    
C56   H42   S    
C96   H88   S    
N8    N23   A    
N3    Ni4   S    
N13   Ni4   S    
C18   H56   S    
C11   C80   A    
C95   H85   S    
C93   H84   S    
C88   O13   S    
C31   C69   S    
C75   O4    S    
C19   H1    S    
C98   C99   S    
N30   Ni7   S    
N4    Ni3   S    
C99   H95   S    
C35   C65   S    
N21   Ni3   S    
C1    N1    A    
C9    C75   A    
C21   H36   S    
C60   O14   S    
C73   O2    S    
C31   H17   S    
C78   N16   A    
C13   C44   S    
N8    Ni7   S    
C16   H55   S    
N19   Ni1   S    
H61   O11   S    
