data_mof_unit_17276.cif
_audit_creation_date              2012-10-26T21:01:06-0400
_audit_creation_method            fapswitch 2.2
_symmetry_space_group_name_H-M    P1
_symmetry_Int_Tables_number       1
_space_group_crystal_system       triclinic
_cell_length_a                    10.867125
_cell_length_b                    10.78191
_cell_length_c                    9.545676
_cell_angle_alpha                 89.973425
_cell_angle_beta                  90.147713
_cell_angle_gamma                 90.32576
_cell_volume                      1118.42933036

loop_
_atom_site_label
_atom_site_type_symbol
_atom_type_description
_atom_site_fract_x
_atom_site_fract_y
_atom_site_fract_z
_atom_type_partial_charge
C1    C     C_R   0.501934 0.262492 0.500092 0.570041
C2    C     C_R   0.422604 0.423715 0.074620 0.378139
C3    C     C_R   0.420493 0.427317 0.924789 -0.022781
C4    C     C_R   0.265044 0.506589 0.499692 0.583568
C5    C     C_R   0.589672 0.561570 0.926587 0.192272
C6    C     C_3   0.620439 0.696251 0.919209 0.133951
C7    C     C_3   0.619171 0.697098 0.078864 -0.255504
C8    C     C_R   0.501649 0.737633 0.500158 0.544439
C9    C     C_R   0.734823 0.500608 0.500137 0.552895
C10   C     C_2   0.929758 0.561711 0.401833 -0.172193
C11   C     C_2   0.867380 0.497964 0.499443 -0.150317
C12   C     C_R   0.511084 0.129450 0.501880 0.038492
C13   C     C_2   0.065581 0.552912 0.386738 0.247511
C14   C     C_2   0.132382 0.523089 0.501330 -0.083946
C15   C     C_R   0.468245 0.063773 0.617747 0.035436
C16   C     C_3   0.353763 0.223259 0.114236 -0.010673
C17   C     C_3   0.230316 0.167324 0.072128 -0.406169
C18   C     C_3   0.761149 0.840038 0.838238 -0.013782
C19   C     C_3   0.892232 0.857466 0.785940 -0.371993
C20   C     C_3   0.056156 0.584208 0.139347 0.031917
C21   C     C_3   0.014088 0.453502 0.096046 -0.278720
C22   C     C_3   0.951250 0.454540 0.952859 -0.479028
C23   C     C_R   0.567441 0.065188 0.391703 -0.183048
C24   C     C_3   0.152148 0.155997 0.673134 -0.012820
C25   C     C_3   0.045728 0.179761 0.573093 -0.371779
C26   C     C_R   0.567181 0.935785 0.391941 -0.160308
C27   C     C_R   0.510607 0.870924 0.502271 0.016903
C28   C     C_R   0.469059 0.936279 0.618830 -0.047058
C29   C     C_3   0.347485 0.928926 0.691496 -0.226496
C30   C     C_3   0.345898 0.070057 0.688432 0.146544
C31   C     C_R   0.589394 0.562059 0.073603 0.071663
Cu1   Cu    Cu3+1 0.499990 0.499980 0.640670 0.951835
Cu2   Cu    Cu3+1 0.500010 0.500020 0.359330 1.015835
H1    H     H_    0.877757 0.619264 0.330202 0.125793
H2    H     H_    0.608147 0.887058 0.304955 0.113660
H3    H     H_    0.274835 0.884296 0.626064 0.159800
H4    H     H_    0.356095 0.890773 0.799242 0.076637
H5    H     H_    0.385463 0.174011 0.209523 0.182014
H6    H     H_    0.422482 0.203198 0.030665 0.073153
H7    H     H_    0.193670 0.215916 0.978728 0.114141
H8    H     H_    0.241653 0.067557 0.046628 0.098796
H9    H     H_    0.163729 0.176022 0.159616 0.165477
H10   H     H_    0.749948 0.895160 0.936040 0.113059
H11   H     H_    0.697288 0.875386 0.756337 0.139801
H12   H     H_    0.352908 0.115848 0.792909 0.080481
H13   H     H_    0.905686 0.804407 0.687458 0.163777
H14   H     H_    0.910204 0.957268 0.765091 0.087373
H15   H     H_    0.958596 0.824155 0.866086 0.143323
H16   H     H_    0.116396 0.620535 0.054667 0.152959
H17   H     H_    0.979173 0.651058 0.144447 0.112700
H18   H     H_    0.095547 0.392415 0.091217 0.205644
H19   H     H_    0.949022 0.414424 0.174105 0.159305
H20   H     H_    0.867624 0.513062 0.956217 0.203162
H21   H     H_    0.923695 0.358615 0.923680 0.134572
H22   H     H_    0.014956 0.490932 0.871577 0.147605
H23   H     H_    0.353696 0.372214 0.867680 0.120420
H24   H     H_    0.174499 0.244184 0.728346 0.129037
H25   H     H_    0.122079 0.084538 0.750519 0.114559
H26   H     H_    0.020526 0.092782 0.517426 0.154812
H27   H     H_    0.964610 0.212659 0.632717 0.084096
H28   H     H_    0.072169 0.251393 0.494943 0.162061
H29   H     H_    0.546074 0.751915 0.869396 0.114317
H30   H     H_    0.710643 0.715294 0.127401 0.129619
H31   H     H_    0.542229 0.752827 0.121483 0.110187
H32   H     H_    0.911386 0.439475 0.576765 0.085351
H33   H     H_    0.090333 0.515193 0.603800 0.040249
H34   H     H_    0.607727 0.114487 0.304018 0.112796
N1    N     N_R   0.500780 0.500930 0.147930 -0.228508
N2    N     N_R   0.500780 0.500890 0.852020 -0.287559
O1    O     O_R   0.500000 0.319640 0.618810 -0.512246
O2    O     O_3   0.739573 0.712869 0.863230 -0.555704
O3    O     O_3   0.128491 0.582860 0.262997 -0.530940
O4    O     O_3   0.255078 0.116240 0.595979 -0.541491
O5    O     O_R   0.500010 0.319680 0.381230 -0.490430
O6    O     O_R   0.321940 0.499980 0.618760 -0.530419
O7    O     O_R   0.321950 0.500020 0.381180 -0.383244
O8    O     O_R   0.499990 0.680320 0.618770 -0.504214
O9    O     O_R   0.500000 0.680360 0.381190 -0.511656
O10   O     O_R   0.678050 0.499980 0.618820 -0.468487
O11   O     O_R   0.678060 0.500020 0.381240 -0.513501
O12   O     O_3   0.339122 0.350694 0.147269 -0.517168

loop_
_geom_bond_atom_site_label_1
_geom_bond_atom_site_label_2
_ccdc_geom_bond_type
C30   H12   S    
Cu1   O6    S    
C19   H13   S    
C22   H21   S    
C29   H3    S    
C26   C27   A    
C29   C30   S    
C1    O5    A    
C28   C29   S    
C3    N2    A    
C2    N1    A    
C5    C6    S    
C19   H14   S    
Cu2   O9    S    
C18   C19   S    
C9    O10   A    
C23   C26   A    
C23   H34   S    
C17   H9    S    
C4    O6    A    
C20   H17   S    
Cu1   O8    S    
C16   C17   S    
C5    N2    A    
C25   H27   S    
C13   C14   D    
C8    O9    A    
C31   N1    A    
C1    C12   S    
C22   H20   S    
C6    O2    S    
C7    C31   S    
C24   C25   S    
C30   O4    S    
C19   H15   S    
C24   H24   S    
Cu1   O1    S    
C17   H7    S    
C20   H16   S    
C18   H11   S    
C3    H23   S    
Cu2   O5    S    
Cu2   O7    S    
C12   C23   A    
C12   C15   A    
C14   H33   S    
C10   H1    S    
C25   H28   S    
C9    C11   S    
C7    H30   S    
C22   H22   S    
C8    O8    A    
C21   H18   S    
C15   C30   S    
C18   O2    S    
Cu1   N2    S    
C10   C13   S    
Cu2   O11   S    
C6    C7    S    
C13   O3    S    
C1    O1    A    
Cu1   Cu2   S    
C6    H29   S    
C2    C3    A    
C18   H10   S    
Cu1   O10   S    
C15   C28   A    
C16   O12   S    
C4    C14   S    
C24   O4    S    
C17   H8    S    
C7    H31   S    
C4    O7    A    
C10   C11   D    
C16   H6    S    
C26   H2    S    
C20   C21   S    
C24   H25   S    
C29   H4    S    
C27   C28   A    
C8    C27   S    
C20   O3    S    
C2    O12   S    
C25   H26   S    
C21   C22   S    
C9    O11   A    
C21   H19   S    
C11   H32   S    
Cu2   N1    S    
C16   H5    S    
C5    C31   A    
