data_mof_unit_36018.cif
_audit_creation_date              2012-12-10T18:02:10-0500
_audit_creation_method            fapswitch 2.2
_symmetry_space_group_name_H-M    P1
_symmetry_Int_Tables_number       1
_space_group_crystal_system       triclinic
_cell_length_a                    10.773147
_cell_length_b                    9.511563
_cell_length_c                    23.525644
_cell_angle_alpha                 90.001766
_cell_angle_beta                  90.336205
_cell_angle_gamma                 89.981475
_cell_volume                      2410.61855847

loop_
_atom_site_label
_atom_site_type_symbol
_atom_type_description
_atom_site_fract_x
_atom_site_fract_y
_atom_site_fract_z
_atom_type_partial_charge
C1    C     C_R   0.262309 0.499999 0.499999 0.877637
C2    C     C_R   0.737682 0.499995 0.500022 0.878029
C3    C     C_R   0.485880 0.369421 0.238726 0.008299
C4    C     C_R   0.493120 0.369645 0.761334 0.006394
C5    C     C_R   0.489671 0.371905 0.298375 -0.222943
C6    C     C_R   0.495016 0.372062 0.701676 -0.197917
C7    C     C_R   0.496485 0.499554 0.328271 -0.050260
C8    C     C_R   0.501002 0.499656 0.671732 -0.050138
C9    C     C_R   0.499382 0.626480 0.298042 -0.145080
C10   C     C_R   0.506675 0.626521 0.701920 -0.169710
C11   C     C_R   0.496589 0.625862 0.238951 -0.087267
C12   C     C_R   0.505969 0.625999 0.761010 -0.089582
C13   C     C_R   0.490321 0.498889 0.208983 0.275929
C14   C     C_R   0.499120 0.499192 0.791026 0.276227
C15   C     C_R   0.065472 0.447383 0.547680 0.116990
C16   C     C_R   0.934492 0.552488 0.452331 0.118065
C17   C     C_R   0.935722 0.447564 0.547714 0.100192
C18   C     C_R   0.064238 0.552374 0.452308 0.100500
C19   C     C_R   0.871480 0.500012 0.500021 -0.196070
C20   C     C_R   0.128497 0.499952 0.500004 -0.195268
C21   C     C_R   0.425341 0.074471 0.463412 0.007545
C22   C     C_R   0.574664 0.925532 0.536585 0.005204
C23   C     C_R   0.574635 0.074409 0.536596 0.010178
C24   C     C_R   0.425360 0.925593 0.463406 0.008022
C25   C     C_R   0.499177 0.499935 0.390875 0.840390
C26   C     C_R   0.500531 0.499988 0.609124 0.839538
C27   C     C_R   0.606535 0.483198 0.881055 0.604836
C28   C     C_R   0.385942 0.531192 0.118952 0.611047
C29   C     C_R   0.389046 0.531736 0.879181 0.609400
C30   C     C_R   0.603237 0.481569 0.120854 0.602016
C31   C     C_R   0.384623 0.535990 0.939218 -0.071329
C32   C     C_R   0.608676 0.482738 0.060813 -0.069323
C33   C     C_R   0.496335 0.510134 0.969923 -0.036498
C34   C     C_R   0.497100 0.509321 0.030106 -0.036819
C35   C     C_R   0.607600 0.484551 0.940543 -0.040581
C36   C     C_R   0.385768 0.534597 0.059479 -0.043396
C37   C     C_R   0.274053 0.563701 0.969923 0.200216
C38   C     C_R   0.719796 0.457973 0.030107 0.197982
C39   C     C_R   0.276251 0.562189 0.029164 -0.162127
C40   C     C_R   0.717604 0.459592 0.970863 -0.164815
Cu1   Cu    Cu3+1 0.500000 0.640660 0.500000 0.993722
Cu2   Cu    Cu3+1 0.500000 0.359340 0.500000 0.995456
H1    H     H_    0.190685 0.582855 0.051632 0.215790
H2    H     H_    0.803343 0.439882 0.948393 0.217106
H3    H     H_    0.486088 0.273906 0.321753 0.198867
H4    H     H_    0.490013 0.274108 0.678297 0.205432
H5    H     H_    0.504421 0.726408 0.320008 0.177412
H6    H     H_    0.511683 0.726378 0.679930 0.170781
H7    H     H_    0.500339 0.724626 0.216118 0.147556
H8    H     H_    0.510544 0.724808 0.783810 0.147786
H9    H     H_    0.365534 0.130654 0.434118 0.136085
H10   H     H_    0.634482 0.869350 0.565874 0.135544
H11   H     H_    0.634382 0.130517 0.565907 0.150087
H12   H     H_    0.365604 0.869486 0.434098 0.148394
N1    N     N_R   0.498260 0.504522 0.851955 -0.462640
N2    N     N_R   0.493068 0.503570 0.148059 -0.462474
N3    N     N_R   0.500000 0.852070 0.500000 -0.169720
N4    N     N_R   0.500000 0.147930 0.500000 -0.170033
O1    O     O_R   0.319640 0.618740 0.500000 -0.566763
O2    O     O_R   0.680360 0.381260 0.500000 -0.566319
O3    O     O_R   0.680360 0.618740 0.500000 -0.568136
O4    O     O_R   0.319640 0.381260 0.500000 -0.568122
O5    O     O_R   0.499960 0.618810 0.417880 -0.576241
O6    O     O_R   0.500040 0.381190 0.582120 -0.576313
O7    O     O_R   0.500040 0.618810 0.582120 -0.589448
O8    O     O_R   0.499960 0.381190 0.417880 -0.589025
O9    O     O_2   0.712604 0.459660 0.852297 -0.496956
O10   O     O_2   0.279717 0.554094 0.147674 -0.493080
O11   O     O_2   0.285989 0.552643 0.847696 -0.470643
O12   O     O_2   0.705860 0.458482 0.152385 -0.474977
I1    I     I_    0.096141 0.611342 0.934327 -0.157923
I2    I     I_    0.898489 0.414128 0.065685 -0.147718
C41   C     C_2   0.476750 0.230973 0.209252 0.898473
O13   O     O_2   0.451715 0.224319 0.158571 -0.569207
O14   O     O_R   0.495397 0.106671 0.239964 -0.760878
H13   H     H_    0.486298 0.019400 0.215535 0.342384
C42   C     C_2   0.483481 0.231237 0.790786 0.903210
O15   O     O_2   0.461825 0.224778 0.841669 -0.570119
O16   O     O_R   0.497911 0.106710 0.759829 -0.760505
H14   H     H_    0.488948 0.019509 0.784260 0.342089
I3    I     I_    0.167324 0.373505 0.620373 -0.237061
I4    I     I_    0.832577 0.625992 0.379588 -0.233873
I5    I     I_    0.835639 0.375102 0.620622 -0.273137
I6    I     I_    0.164252 0.624863 0.379398 -0.280375

loop_
_geom_bond_atom_site_label_1
_geom_bond_atom_site_label_2
_ccdc_geom_bond_type
C23   N4    A    
C30   C32   A    
C8    C26   S    
Cu1   Cu2   S    
Cu1   O3    S    
C1    O4    A    
Cu2   N4    S    
C22   N3    A    
C28   N2    A    
C15   I3    S    
C42   O15   D    
C28   O10   S    
C1    O1    A    
C25   O5    A    
C27   N1    A    
C24   H12   S    
C15   C17   A    
C41   O13   D    
C26   O6    A    
C33   C35   A    
C24   N3    A    
C18   I6    S    
C31   C33   A    
C32   C38   A    
Cu2   O4    S    
C18   C20   A    
C3    C13   A    
C2    O3    A    
C13   N2    S    
C14   N1    S    
C41   O14   S    
C2    O2    A    
C30   O12   S    
C23   H11   S    
C29   O11   S    
C42   O16   S    
C39   H1    S    
C15   C20   A    
C38   I2    S    
Cu1   O1    S    
C4    C6    A    
Cu2   O2    S    
C5    C7    A    
C6    C8    A    
C29   N1    A    
C27   C35   A    
C30   N2    A    
C31   C37   A    
C17   I5    S    
C32   C34   A    
O14   H13   S    
C11   H7    S    
C12   H8    S    
C40   H2    S    
C29   C31   A    
C16   I4    S    
C33   C34   A    
C9    C11   A    
C10   C12   A    
C16   C18   A    
C12   C14   A    
C9    H5    S    
C37   I1    S    
C10   H6    S    
Cu1   O5    S    
Cu2   O6    S    
C21   H9    S    
C22   H10   S    
C7    C9    A    
C1    C20   S    
C6    H4    S    
C2    C19   S    
C26   O7    A    
C36   C39   A    
C25   O8    A    
C3    C5    A    
Cu1   O7    S    
C7    C25   S    
C35   C40   A    
Cu1   N3    S    
C4    C42   S    
C37   C39   A    
C38   C40   A    
C11   C13   A    
C5    H3    S    
C16   C19   A    
C17   C19   A    
C34   C36   A    
C4    C14   A    
C3    C41   S    
C27   O9    S    
O16   H14   S    
C21   N4    A    
C28   C36   A    
C8    C10   A    
C21   C24   A    
Cu2   O8    S    
C22   C23   A    
