data_mof_unit_56265.cif
_audit_creation_date              2012-12-11T15:09:39-0500
_audit_creation_method            fapswitch 2.2
_symmetry_space_group_name_H-M    P1
_symmetry_Int_Tables_number       1
_space_group_crystal_system       triclinic
_cell_length_a                    20.968254
_cell_length_b                    7.145383
_cell_length_c                    14.03437
_cell_angle_alpha                 90.377924
_cell_angle_beta                  98.46574
_cell_angle_gamma                 89.664756
_cell_volume                      2079.73479587

loop_
_atom_site_label
_atom_site_type_symbol
_atom_type_description
_atom_site_fract_x
_atom_site_fract_y
_atom_site_fract_z
_atom_type_partial_charge
O1    O     O_R   0.447130 0.507140 0.597350 -0.538465
O2    O     O_R   0.552870 0.007140 0.402650 -0.538683
O3    O     O_R   0.578910 0.181280 0.586990 -0.538597
O4    O     O_R   0.421090 0.681280 0.413010 -0.538839
C1    C     C_R   0.604598 0.344307 0.606962 0.727754
C2    C     C_R   0.395503 0.844461 0.392715 0.725636
O5    O     O_R   0.449230 0.177860 0.608640 -0.539989
O6    O     O_R   0.550770 0.677860 0.391360 -0.540722
O7    O     O_R   0.422260 0.000770 0.424450 -0.535210
O8    O     O_R   0.577740 0.500770 0.575550 -0.534933
C3    C     C_R   0.432757 0.346642 0.634102 0.688198
C4    C     C_R   0.566958 0.845020 0.365624 0.689553
O9    O     O_3   0.491310 0.336980 0.439550 -0.375578
O10   O     O_3   0.508690 0.836980 0.560450 -0.374745
V1    V     V_3+5 0.501610 0.064760 0.511210 1.421263
V2    V     V_3+5 0.498390 0.564760 0.488790 1.422403
C5    C     C_R   0.618431 0.761063 0.126073 -0.140277
C6    C     C_R   0.382678 0.311545 0.877757 -0.140108
H1    H     H_    0.528113 0.759979 0.179930 0.102430
H2    H     H_    0.473106 0.311089 0.823891 0.100581
H3    H     H_    0.699500 0.721903 0.004257 0.130925
H4    H     H_    0.301882 0.266524 0.999685 0.125861
H5    H     H_    0.596458 0.717893 0.054590 0.112153
H6    H     H_    0.405545 0.289290 0.951270 0.110917
C7    C     C_R   0.606307 0.845539 0.288681 -0.032704
C8    C     C_R   0.393000 0.353571 0.710729 -0.029583
C9    C     C_R   0.917383 0.917819 0.300401 0.380626
C10   C     C_R   0.080384 0.380889 0.696509 0.401922
C11   C     C_R   0.879849 0.931782 0.373875 -0.188702
C12   C     C_R   0.117560 0.369080 0.621951 -0.210582
C13   C     C_R   0.814018 0.900215 0.355763 -0.203793
C14   C     C_R   0.184297 0.358944 0.641723 -0.200860
C15   C     C_R   0.782430 0.860497 0.261653 0.033071
C16   C     C_R   0.216691 0.350682 0.737475 0.033618
C17   C     C_R   0.820476 0.841564 0.185184 -0.070756
C18   C     C_R   0.178932 0.338404 0.814255 -0.079002
C19   C     C_R   0.713981 0.842065 0.241383 0.084720
C20   C     C_R   0.285444 0.348031 0.758621 0.085156
C21   C     C_R   0.685212 0.788356 0.147629 0.078869
C22   C     C_R   0.315276 0.321603 0.854957 0.077663
C23   C     C_R   0.722657 0.764498 0.074988 -0.286951
C24   C     C_R   0.278082 0.298530 0.927971 -0.268627
C25   C     C_R   0.788729 0.803967 0.089859 0.388832
C26   C     C_R   0.210854 0.308271 0.910038 0.379705
C27   C     C_R   0.672669 0.874441 0.311013 -0.197840
C28   C     C_R   0.326031 0.368368 0.687237 -0.197989
C29   C     C_R   0.579338 0.787279 0.196645 -0.169310
C30   C     C_R   0.421260 0.325130 0.805767 -0.169985
C31   C     C_R   0.888636 0.869143 0.206614 -0.171861
C32   C     C_R   0.110433 0.357847 0.792204 -0.157101
H7    H     H_    0.690209 0.917799 0.383755 0.096462
H8    H     H_    0.307470 0.392331 0.612547 0.094041
H9    H     H_    0.789212 0.910810 0.417472 0.126773
H10   H     H_    0.209004 0.353416 0.579734 0.131407
H11   H     H_    0.901833 0.972509 0.445553 0.135760
H12   H     H_    0.094672 0.369051 0.547563 0.125363
C33   C     C_1   0.166525 0.855999 0.168222 -0.200848
C34   C     C_1   0.834527 0.354774 0.829102 -0.215328
C35   C     C_1   0.218882 0.853111 0.219538 -0.009052
C36   C     C_1   0.782315 0.351854 0.777340 -0.021907
C37   C     C_1   0.280586 0.852170 0.279688 -0.001503
C38   C     C_1   0.720288 0.352141 0.717886 -0.007523
C39   C     C_1   0.332997 0.850677 0.330887 -0.203056
C40   C     C_1   0.667499 0.350517 0.667703 -0.200893
O11   O     O_R   0.922300 0.202240 0.924350 -0.546507
O12   O     O_R   0.077700 0.702240 0.075650 -0.560253
O13   O     O_R   0.050780 0.535130 0.891350 -0.566698
O14   O     O_R   0.949220 0.035130 0.108650 -0.534539
C41   C     C_R   0.069001 0.367656 0.867601 0.806343
C42   C     C_R   0.930590 0.869839 0.131866 0.836457
O15   O     O_R   0.921100 0.531560 0.912990 -0.529971
O16   O     O_R   0.078900 0.031560 0.087010 -0.520871
O17   O     O_R   0.947120 0.708470 0.097370 -0.530323
O18   O     O_R   0.052880 0.208470 0.902630 -0.519731
C43   C     C_R   0.896345 0.363202 0.892487 0.738838
C44   C     C_R   0.104071 0.863362 0.106496 0.734303
O19   O     O_3   0.008710 0.375800 0.060400 -0.387425
O20   O     O_3   0.991290 0.875800 0.939600 -0.384098
V3    V     V_3+5 0.998380 0.648080 0.988790 1.416864
V4    V     V_3+5 0.001620 0.148080 0.011210 1.473051
O21   O     O_3   0.980781 0.977118 0.317397 -0.576108
C45   C     C_3   0.020057 0.832905 0.362660 0.041811
H13   H     H_    0.022213 0.713954 0.311473 0.118426
H14   H     H_    0.001637 0.782118 0.428271 0.112035
C46   C     C_3   0.087955 0.910021 0.392625 -0.273514
H15   H     H_    0.106198 0.967094 0.328424 0.194983
H16   H     H_    0.086166 0.026273 0.445256 0.197257
C47   C     C_3   0.134452 0.759601 0.438153 -0.841143
H17   H     H_    0.119325 0.710259 0.506170 0.231693
H18   H     H_    0.183711 0.818953 0.454997 0.237945
H19   H     H_    0.135933 0.639378 0.387879 0.228641
O22   O     O_3   0.013539 0.393310 0.676857 -0.586914
C48   C     C_3   0.993621 0.562394 0.628695 0.029020
H20   H     H_    0.943200 0.542825 0.592885 0.152710
H21   H     H_    0.022107 0.597208 0.570551 0.107175
C49   C     C_3   0.994737 0.726194 0.700101 -0.299179
H22   H     H_    0.964637 0.690860 0.756197 0.218667
H23   H     H_    0.045007 0.751339 0.735237 0.197076
C50   C     C_3   0.968619 0.905788 0.650357 -0.806596
H24   H     H_    0.998125 0.945939 0.594234 0.236267
H25   H     H_    0.970580 0.020737 0.704338 0.259818
H26   H     H_    0.917666 0.886602 0.617009 0.215698
O23   O     O_3   0.822868 0.794862 0.012194 -0.573385
C51   C     C_3   0.793739 0.905723 0.933698 0.065544
H27   H     H_    0.830782 0.000145 0.913691 0.159013
H28   H     H_    0.753647 0.998292 0.950206 0.105391
C52   C     C_3   0.771641 0.780417 0.846651 -0.304569
H29   H     H_    0.815022 0.721841 0.820548 0.210343
H30   H     H_    0.742047 0.664265 0.868093 0.201059
C53   C     C_3   0.732402 0.885685 0.763741 -0.820635
H31   H     H_    0.692252 0.964909 0.788930 0.233776
H32   H     H_    0.711655 0.784545 0.707341 0.234653
H33   H     H_    0.764208 0.981825 0.730997 0.239581
O24   O     O_3   0.176838 0.257182 0.983248 -0.574528
C54   C     C_3   0.184384 0.390317 0.059332 0.106445
H34   H     H_    0.136775 0.402600 0.083972 0.185449
H35   H     H_    0.196225 0.533547 0.036072 0.075142
C55   C     C_3   0.234530 0.325058 0.144158 -0.334168
H36   H     H_    0.249168 0.178223 0.132515 0.219813
H37   H     H_    0.278344 0.413260 0.148161 0.167743
C56   C     C_3   0.209211 0.337392 0.240784 -0.784038
H38   H     H_    0.195007 0.483028 0.255680 0.227104
H39   H     H_    0.247437 0.291772 0.299483 0.227816
H40   H     H_    0.166667 0.245385 0.240338 0.231488

loop_
_geom_bond_atom_site_label_1
_geom_bond_atom_site_label_2
_ccdc_geom_bond_type
O14   V4    S    
C20   C22   A    
C48   H20   S    
C9    C11   A    
C23   C25   A    
O1    C3    A    
O16   C44   A    
O2    C4    A    
C2    O7    A    
O15   V3    S    
O21   C45   S    
O3    V1    S    
C21   C23   A    
C46   H15   S    
O5    C3    A    
O12   V3    S    
C5    H5    S    
C6    H6    S    
C33   C44   S    
C32   C41   S    
H1    C29   S    
C33   C35   T    
C27   H7    S    
C34   C36   T    
C54   H34   S    
C49   C50   S    
C28   H8    S    
C36   C38   S    
C5    C21   A    
C37   C39   T    
C6    C22   A    
C55   H36   S    
C56   H40   S    
C38   C40   T    
C53   H32   S    
C53   H31   S    
C10   C32   A    
C54   H35   S    
C49   H23   S    
C17   C31   A    
C52   H29   S    
C13   C15   A    
C12   C14   A    
C17   C25   A    
C7    C29   A    
C8    C30   A    
O5    V1    S    
C26   O24   S    
O6    V2    S    
O11   V4    S    
O18   V4    S    
C11   C13   A    
C52   H30   S    
C24   C26   A    
C14   H10   S    
C51   H27   S    
C34   C43   S    
O24   C54   S    
C25   O23   S    
O19   V3    S    
C35   C37   S    
C56   H39   S    
C46   H16   S    
C9    O21   S    
O13   V3    S    
O4    C2    A    
O20   V3    S    
C11   H11   S    
C3    C8    S    
C12   H12   S    
C15   C19   A    
O16   V4    S    
C1    C40   S    
O13   C41   A    
C55   C56   S    
C14   C16   A    
C2    C39   S    
O4    V2    S    
C50   H24   S    
C47   H19   S    
O6    C4    A    
C54   C55   S    
O12   C44   A    
C49   H22   S    
C42   O17   A    
O17   V3    S    
O20   V4    S    
C41   O18   A    
C10   O22   S    
O1    V2    S    
C13   H9    S    
O2    V1    S    
C53   H33   S    
C56   H38   S    
H2    C30   S    
H3    C23   S    
O14   C42   A    
C50   H25   S    
C47   H18   S    
C48   C49   S    
C45   H14   S    
C31   C42   S    
C52   C53   S    
C18   C26   A    
C19   C27   A    
C7    C27   A    
C18   C32   A    
C46   C47   S    
C16   C20   A    
C5    C29   A    
O3    C1    A    
C6    C30   A    
C51   H28   S    
C45   C46   S    
O11   C43   A    
C4    C7    S    
C10   C12   A    
O7    V1    S    
C1    O8    A    
C19   C21   A    
O8    V2    S    
O15   C43   A    
O19   V4    S    
H4    C24   S    
C22   C24   A    
O22   C48   S    
C15   C17   A    
C16   C18   A    
C55   H37   S    
C20   C28   A    
C8    C28   A    
C50   H26   S    
C47   H17   S    
C48   H21   S    
C45   H13   S    
O9    V2    S    
O23   C51   S    
O10   V1    S    
C51   C52   S    
C9    C31   A    
