data_mof_unit_67261.cif
_audit_creation_date              2013-03-05T16:01:28-0500
_audit_creation_method            fapswitch 2.2
_symmetry_space_group_name_H-M    P1
_symmetry_Int_Tables_number       1
_space_group_crystal_system       triclinic
_cell_length_a                    20.213198
_cell_length_b                    20.512116
_cell_length_c                    8.660142
_cell_angle_alpha                 90.077895
_cell_angle_beta                  93.205187
_cell_angle_gamma                 89.966211
_cell_volume                      3585.00819256

loop_
_atom_site_label
_atom_site_type_symbol
_atom_site_description
_atom_site_fract_x
_atom_site_fract_y
_atom_site_fract_z
_atom_type_partial_charge
P1    P     P_3+3 0.136530 0.426510 0.931350 0.482993
P2    P     P_3+3 0.136530 0.573490 0.431350 0.477906
P3    P     P_3+3 0.636530 0.926510 0.931350 0.485219
P4    P     P_3+3 0.636530 0.073490 0.431350 0.475718
O1    O     O_2   0.130070 0.404060 0.104920 -0.383013
O2    O     O_2   0.130070 0.595940 0.604920 -0.407702
O3    O     O_2   0.630070 0.904060 0.104920 -0.383651
O4    O     O_2   0.630070 0.095940 0.604920 -0.409174
O5    O     O_3   0.075780 0.466370 0.861070 -0.329927
O6    O     O_3   0.075780 0.533630 0.361070 -0.312940
O7    O     O_3   0.575780 0.966370 0.861070 -0.328402
O8    O     O_3   0.575780 0.033630 0.361070 -0.312906
O9    O     O_3   0.022320 0.344950 0.359800 -0.339024
O10   O     O_3   0.022320 0.655050 0.859800 -0.365008
O11   O     O_3   0.522320 0.844950 0.359800 -0.359269
O12   O     O_3   0.522320 0.155050 0.859800 -0.364507
O13   O     O_2   0.141402 0.307134 0.283425 -0.415544
O14   O     O_2   0.137515 0.699152 0.788247 -0.415665
O15   O     O_2   0.640069 0.806151 0.285392 -0.403735
O16   O     O_2   0.636323 0.201463 0.786263 -0.418519
O17   O     O_3   0.210365 0.471389 0.965953 -0.598753
O18   O     O_3   0.212102 0.531606 0.451626 -0.621842
O19   O     O_3   0.710338 0.971321 0.966046 -0.598209
O20   O     O_3   0.712274 0.032028 0.453712 -0.626444
O21   O     O_3   0.059709 0.210545 0.320384 -0.488815
O22   O     O_3   0.051295 0.791415 0.820618 -0.499192
O23   O     O_3   0.556536 0.710429 0.312282 -0.501111
O24   O     O_3   0.546977 0.291409 0.822984 -0.490340
C1    C     C_3   0.994314 0.113153 0.348342 0.475297
C2    C     C_3   0.988446 0.890154 0.847688 0.522035
C3    C     C_3   0.497148 0.608961 0.337833 0.510594
C4    C     C_3   0.485824 0.389818 0.867722 0.526599
P5    P     P_3+3 0.863410 0.426100 0.379280 0.771271
P6    P     P_3+3 0.863410 0.573900 0.879280 0.762837
P7    P     P_3+3 0.363410 0.926100 0.379280 0.765502
P8    P     P_3+3 0.363410 0.073900 0.879280 0.764093
P9    P     P_3+3 0.921662 0.281564 0.916798 0.556616
P10   P     P_3+3 0.917620 0.715462 0.420959 0.584262
P11   P     P_3+3 0.420886 0.782040 0.918154 0.567343
P12   P     P_3+3 0.418457 0.216011 0.420927 0.571510
O25   O     O_2   0.869860 0.403670 0.205810 -0.230269
O26   O     O_2   0.869860 0.596330 0.705810 -0.234442
O27   O     O_2   0.369860 0.903670 0.205810 -0.234041
O28   O     O_2   0.369860 0.096330 0.705810 -0.234660
O29   O     O_3   0.977590 0.344880 0.951200 -0.260736
O30   O     O_3   0.977590 0.655120 0.451200 -0.275175
O31   O     O_3   0.477590 0.844880 0.951200 -0.267246
O32   O     O_3   0.477590 0.155120 0.451200 -0.277188
O33   O     O_2   0.868931 0.290995 0.038121 -0.360107
O34   O     O_2   0.865362 0.703068 0.541548 -0.348929
O35   O     O_2   0.367706 0.792771 0.037766 -0.350727
O36   O     O_2   0.365772 0.203516 0.540475 -0.353933
O37   O     O_3   0.790792 0.472994 0.373130 -0.558837
O38   O     O_3   0.790412 0.527540 0.873378 -0.563128
O39   O     O_3   0.290595 0.972614 0.374275 -0.564743
O40   O     O_3   0.290387 0.027492 0.872555 -0.559252
O41   O     O_3   0.961740 0.208012 0.971172 -0.523067
O42   O     O_3   0.953392 0.790643 0.477237 -0.484879
O43   O     O_3   0.460128 0.708652 0.976740 -0.495240
O44   O     O_3   0.454921 0.290755 0.479040 -0.506392
C5    C     C_3   0.025597 0.203943 0.912815 0.192796
C6    C     C_3   0.015576 0.799032 0.412451 0.196768
C7    C     C_3   0.522588 0.702387 0.911945 0.192130
C8    C     C_3   0.518274 0.298263 0.419480 0.191319
H1    H     H_    0.029588 0.233418 0.807888 0.005421
H2    H     H_    0.019903 0.770058 0.306044 0.001988
H3    H     H_    0.525322 0.730501 0.804144 0.002381
H4    H     H_    0.523546 0.269531 0.313614 0.000977
C9    C     C_3   0.041142 0.132142 0.875567 1.147028
C10   C     C_3   0.024834 0.871528 0.373490 1.158051
C11   C     C_3   0.535880 0.629997 0.876924 1.157165
C12   C     C_3   0.529694 0.370848 0.384169 1.148744
H5    H     H_    0.060931 0.106360 0.980760 0.044554
H6    H     H_    0.044091 0.898892 0.477005 0.032063
H7    H     H_    0.555618 0.604508 0.982558 0.021981
H8    H     H_    0.548189 0.397082 0.489970 0.050701
C13   C     C_3   0.799441 0.465186 0.814142 1.571827
C14   C     C_3   0.800310 0.534819 0.312192 1.573201
C15   C     C_3   0.299735 0.965152 0.813395 1.574175
C16   C     C_3   0.299438 0.034389 0.312382 1.576501
C17   C     C_3   0.731778 0.431847 0.803232 0.226399
C18   C     C_3   0.732651 0.567885 0.295932 0.227866
C19   C     C_3   0.232036 0.931905 0.798276 0.227902
C20   C     C_3   0.231651 0.067248 0.300289 0.222658
H9    H     H_    0.698107 0.459652 0.721315 0.109186
H10   H     H_    0.700040 0.539309 0.213162 0.101368
H11   H     H_    0.199432 0.959688 0.714026 0.102171
H12   H     H_    0.197481 0.037377 0.223881 0.106360
Ba1   Ba    Ba6+2 0.999980 0.452130 0.155200 1.793597
Ba2   Ba    Ba6+2 0.999980 0.547870 0.655200 1.792357
Ba3   Ba    Ba6+2 0.499980 0.952130 0.155200 1.793053
Ba4   Ba    Ba6+2 0.499980 0.047870 0.655200 1.788666
C21   C     C_3   0.204992 0.538819 0.938686 0.290258
C22   C     C_3   0.208397 0.463339 0.454653 0.221334
C23   C     C_3   0.705200 0.038529 0.935758 0.291330
C24   C     C_3   0.709669 0.963697 0.449270 0.262705
H13   H     H_    0.200896 0.547192 0.812289 0.097446
H14   H     H_    0.198467 0.444833 0.335090 0.119762
H15   H     H_    0.701656 0.045874 0.808903 0.099482
H16   H     H_    0.702235 0.947283 0.327322 0.114847
C25   C     C_3   0.269313 0.573016 0.005042 -0.135119
C26   C     C_3   0.277415 0.437949 0.519398 -0.055048
C27   C     C_3   0.769209 0.072929 0.003120 -0.136642
C28   C     C_3   0.778036 0.938768 0.517580 -0.088315
O45   O     O_3   0.924190 0.533610 0.949240 -0.221820
O46   O     O_3   0.924190 0.466390 0.449240 -0.228076
O47   O     O_3   0.424190 0.033610 0.949240 -0.224300
O48   O     O_3   0.424190 0.966390 0.449240 -0.223583
P13   P     P_3+3 0.081058 0.716119 0.894872 0.519252
P14   P     P_3+3 0.085805 0.287858 0.390043 0.537124
P15   P     P_3+3 0.580109 0.216840 0.894926 0.515105
P16   P     P_3+3 0.583897 0.786218 0.389893 0.530881
C29   C     C_3   0.999973 0.188559 0.381536 0.402044
C30   C     C_3   0.990912 0.814456 0.878615 0.398877
C31   C     C_3   0.498347 0.684428 0.374510 0.398768
C32   C     C_3   0.488893 0.314007 0.892848 0.347326
C33   C     C_R   0.247579 0.307466 0.990571 -0.036717
C34   C     C_R   0.245082 0.693833 0.495289 -0.031913
C35   C     C_R   0.745991 0.806364 0.990972 -0.028719
C36   C     C_R   0.744158 0.194306 0.496326 -0.033747
C37   C     C_R   0.149204 0.346023 0.827654 0.085223
C38   C     C_R   0.146123 0.655550 0.331535 0.081994
C39   C     C_R   0.648300 0.845583 0.827388 0.077681
C40   C     C_R   0.645892 0.155519 0.331336 0.080799
C41   C     C_R   0.106224 0.332879 0.698039 0.341109
C42   C     C_R   0.103197 0.668437 0.201278 0.345851
C43   C     C_R   0.605383 0.832670 0.697149 0.344265
C44   C     C_R   0.603211 0.168119 0.200457 0.347087
C45   C     C_R   0.122201 0.285481 0.590429 -0.150239
C46   C     C_R   0.116753 0.718315 0.097487 -0.140312
C47   C     C_R   0.620238 0.784035 0.590965 -0.132187
C48   C     C_R   0.616572 0.218246 0.097088 -0.141427
C49   C     C_R   0.170794 0.239568 0.628811 0.767835
C50   C     C_R   0.164346 0.764993 0.139048 0.749058
C51   C     C_R   0.668519 0.737880 0.630157 0.759957
C52   C     C_R   0.663884 0.265109 0.139222 0.749561
C53   C     C_R   0.209399 0.244395 0.768317 -0.397963
C54   C     C_R   0.205206 0.758223 0.275531 -0.397653
C55   C     C_R   0.707679 0.743115 0.769041 -0.401103
C56   C     C_R   0.704446 0.258573 0.276205 -0.391328
C57   C     C_R   0.202297 0.300308 0.863340 -0.264585
C58   C     C_R   0.198907 0.701665 0.368737 -0.259862
C59   C     C_R   0.700782 0.799230 0.863817 -0.257076
C60   C     C_R   0.698281 0.201929 0.369191 -0.264911
C61   C     C_R   0.799579 0.700336 0.941038 -0.379648
C62   C     C_R   0.798343 0.299751 0.445059 -0.381320
C63   C     C_R   0.300716 0.201130 0.940802 -0.377781
C64   C     C_R   0.299701 0.798985 0.443234 -0.381522
C65   C     C_R   0.793719 0.757354 0.033334 -0.041967
C66   C     C_R   0.794746 0.241126 0.533728 -0.000548
C67   C     C_R   0.295355 0.258408 0.032673 -0.031374
C68   C     C_R   0.295995 0.740468 0.532091 -0.001449
C69   C     C_R   0.849471 0.652264 0.986013 0.019150
C70   C     C_R   0.848801 0.347708 0.487802 0.041921
C71   C     C_R   0.349918 0.152478 0.986275 0.026457
C72   C     C_R   0.349714 0.847233 0.486758 0.018164
C73   C     C_R   0.885898 0.659893 0.127859 0.497156
C74   C     C_R   0.885749 0.339677 0.628709 0.518844
C75   C     C_R   0.386099 0.159833 0.128541 0.501022
C76   C     C_R   0.386451 0.839335 0.628059 0.520295
C77   C     C_R   0.876473 0.713461 0.223208 0.051754
C78   C     C_R   0.879939 0.283806 0.718771 0.029990
C79   C     C_R   0.377433 0.213885 0.223097 0.055882
C80   C     C_R   0.380412 0.783603 0.718536 0.025668
C81   C     C_R   0.833802 0.763486 0.171932 -0.177472
C82   C     C_R   0.841422 0.231280 0.660903 -0.190698
C83   C     C_R   0.335671 0.264462 0.171024 -0.174705
C84   C     C_R   0.342206 0.730958 0.660247 -0.196389
C85   C     C_R   0.754770 0.693922 0.810098 0.955750
C86   C     C_R   0.752035 0.307295 0.317307 0.945018
C87   C     C_R   0.256031 0.194942 0.809753 0.959571
C88   C     C_R   0.253132 0.806687 0.315962 0.944006
H17   H     H_    0.244245 0.351195 0.058501 0.158178
H18   H     H_    0.239018 0.652550 0.569475 0.159766
H19   H     H_    0.742778 0.850213 0.058464 0.156757
H20   H     H_    0.738297 0.152905 0.570218 0.161488
N1    N     N_3   0.943767 0.224190 0.305286 -0.141790
H21   H     H_    0.918774 0.195571 0.221336 0.199066
H22   H     H_    0.908215 0.233793 0.384389 0.017845
N2    N     N_3   0.934668 0.783367 0.792445 -0.124853
H23   H     H_    0.889997 0.799916 0.832830 0.046387
H24   H     H_    0.935460 0.733236 0.811083 0.144136
N3    N     N_3   0.439346 0.714595 0.297001 -0.120930
H25   H     H_    0.396443 0.696309 0.342641 0.055259
H26   H     H_    0.438771 0.764569 0.317676 0.142457
N4    N     N_3   0.429119 0.282735 0.821292 -0.251062
H27   H     H_    0.440326 0.236404 0.780968 0.184148
H28   H     H_    0.408853 0.309425 0.727749 0.197100
N5    N     N_3   0.736929 0.364900 0.748003 -0.251064
H29   H     H_    0.688921 0.346528 0.728897 0.172340
H30   H     H_    0.759866 0.336712 0.836092 0.211446
N6    N     N_3   0.738352 0.634294 0.238404 -0.249101
H31   H     H_    0.759230 0.663265 0.327628 0.219425
H32   H     H_    0.690688 0.652422 0.212743 0.159500
N7    N     N_3   0.237813 0.864896 0.743842 -0.250614
H33   H     H_    0.190008 0.846488 0.721463 0.166789
H34   H     H_    0.259645 0.836759 0.833434 0.213331
N8    N     N_3   0.235845 0.132620 0.235636 -0.247578
H35   H     H_    0.259092 0.162921 0.319103 0.214265
H36   H     H_    0.187651 0.150410 0.215816 0.167337
F1    F     F_    0.705351 0.432695 0.947354 -0.581700
F2    F     F_    0.704610 0.568294 0.438274 -0.571006
F3    F     F_    0.203656 0.932867 0.940198 -0.575309
F4    F     F_    0.206801 0.069985 0.445995 -0.575918
N9    N     N_3   0.148530 0.567532 0.011017 -0.219291
H37   H     H_    0.134537 0.538599 0.102593 0.179463
H38   H     H_    0.108954 0.572276 0.929621 0.201868
N10   N     N_3   0.157231 0.440320 0.552137 -0.220735
H39   H     H_    0.150489 0.473888 0.639691 0.164869
H40   H     H_    0.112944 0.435477 0.485350 0.193210
N11   N     N_3   0.648414 0.068014 0.005405 -0.219192
H41   H     H_    0.633673 0.039749 0.097471 0.178486
H42   H     H_    0.609366 0.072737 0.922639 0.202946
N12   N     N_3   0.657133 0.937742 0.539134 -0.214532
H43   H     H_    0.647809 0.969485 0.629147 0.162946
H44   H     H_    0.614158 0.932462 0.467813 0.194640
N13   N     N_3   0.278408 0.562297 0.171961 -0.185972
H45   H     H_    0.323416 0.583173 0.211551 0.144965
H46   H     H_    0.242553 0.588592 0.226030 0.131767
N14   N     N_3   0.295306 0.470080 0.667135 -0.198238
H47   H     H_    0.343144 0.455099 0.702994 0.173968
H48   H     H_    0.298457 0.520332 0.650359 0.139735
N15   N     N_3   0.777361 0.062426 0.170162 -0.185956
H49   H     H_    0.821643 0.084298 0.210680 0.133013
H50   H     H_    0.740547 0.087904 0.222846 0.129832
N16   N     N_3   0.793161 0.968393 0.669324 -0.195253
H51   H     H_    0.839827 0.951938 0.710110 0.169226
H52   H     H_    0.797805 0.018731 0.656226 0.141874
N17   N     N_3   0.265515 0.643206 0.974195 -0.202261
H53   H     H_    0.248073 0.650770 0.859890 0.137266
H54   H     H_    0.231564 0.664817 0.043763 0.095329
N18   N     N_3   0.277148 0.367048 0.544923 -0.182115
H55   H     H_    0.233272 0.345827 0.500545 0.087717
H56   H     H_    0.281747 0.355795 0.662590 0.126372
N19   N     N_3   0.765416 0.143108 0.971561 -0.208344
H57   H     H_    0.747477 0.150567 0.857555 0.137396
H58   H     H_    0.731925 0.165058 0.041890 0.094787
N20   N     N_3   0.776805 0.868027 0.537081 -0.212188
H59   H     H_    0.746745 0.856822 0.626690 0.088541
H60   H     H_    0.824369 0.851950 0.573023 0.198851
N21   N     N_3   0.326833 0.546220 0.931922 -0.206544
H61   H     H_    0.332657 0.497907 0.967854 0.157506
H62   H     H_    0.369550 0.570425 0.974642 0.225603
N22   N     N_3   0.328203 0.452951 0.409799 -0.127557
H63   H     H_    0.340799 0.502123 0.418599 0.151827
H64   H     H_    0.308610 0.446921 0.296663 0.110625
N23   N     N_3   0.827326 0.046100 0.932247 -0.207680
H65   H     H_    0.833522 0.997978 0.969631 0.157265
H66   H     H_    0.869720 0.070835 0.975141 0.209607
N24   N     N_3   0.830478 0.955883 0.413866 -0.130082
H67   H     H_    0.839936 0.005700 0.422979 0.153420
H68   H     H_    0.813531 0.948592 0.299194 0.119186
N25   N     N_3   0.002179 0.199568 0.548736 -0.193681
H69   H     H_    0.989992 0.248133 0.569741 0.079063
H70   H     H_    0.965197 0.173310 0.597991 0.106914
N26   N     N_3   0.988117 0.801445 0.044418 -0.197878
H71   H     H_    0.945640 0.822155 0.085787 0.073496
H72   H     H_    0.980669 0.751686 0.060432 0.064539
N27   N     N_3   0.499283 0.695678 0.541457 -0.197837
H73   H     H_    0.486168 0.744070 0.561133 0.056736
H74   H     H_    0.461974 0.669439 0.589213 0.103114
N28   N     N_3   0.491966 0.300430 0.058167 -0.189599
H75   H     H_    0.452134 0.322611 0.107937 0.091679
H76   H     H_    0.482928 0.250847 0.073163 0.078230
N29   N     N_3   0.936222 0.083517 0.414864 -0.200287
H77   H     H_    0.946881 0.070387 0.530206 0.166337
H78   H     H_    0.896254 0.115843 0.411284 0.036732
N30   N     N_3   0.938029 0.924302 0.932885 -0.205504
H79   H     H_    0.954297 0.930560 0.048470 0.179987
H80   H     H_    0.893377 0.898701 0.928003 0.049156
N31   N     N_3   0.450361 0.571966 0.427525 -0.189720
H81   H     H_    0.470052 0.563845 0.540010 0.185018
H82   H     H_    0.405299 0.596484 0.432186 0.055416
N32   N     N_3   0.428502 0.419951 0.936475 -0.210750
H83   H     H_    0.438317 0.428271 0.054523 0.160863
H84   H     H_    0.386648 0.390191 0.922455 0.047901
F5    F     F_    0.988177 0.102847 0.190377 -0.701839
F6    F     F_    0.973034 0.900422 0.691932 -0.689363
F7    F     F_    0.477644 0.600309 0.183467 -0.696158
F8    F     F_    0.480546 0.402765 0.710746 -0.690808
F9    F     F_    0.088776 0.128711 0.767289 -0.712475
F10   F     F_    0.070096 0.878306 0.260546 -0.720749
F11   F     F_    0.582629 0.624506 0.766918 -0.712997
F12   F     F_    0.576714 0.377332 0.275186 -0.721467
F13   F     F_    0.052551 0.371044 0.666751 -0.625911
F14   F     F_    0.051846 0.627978 0.165472 -0.622965
F15   F     F_    0.552901 0.872140 0.663803 -0.624231
F16   F     F_    0.551976 0.127525 0.164381 -0.623368
F17   F     F_    0.181884 0.191861 0.525264 -0.587860
F18   F     F_    0.173423 0.814501 0.039070 -0.577720
F19   F     F_    0.678495 0.689260 0.528164 -0.584133
F20   F     F_    0.672714 0.314823 0.039762 -0.586299
N33   N     N_3   0.831658 0.820914 0.262781 -0.149856
H85   H     H_    0.846769 0.859135 0.193597 0.139232
H86   H     H_    0.782248 0.827639 0.286735 0.143041
N34   N     N_3   0.860079 0.167223 0.714054 -0.185407
H87   H     H_    0.859228 0.165084 0.833217 0.200133
H88   H     H_    0.832686 0.129316 0.662929 0.097644
N35   N     N_3   0.334921 0.322325 0.260870 -0.138764
H89   H     H_    0.350402 0.360106 0.190875 0.131384
H90   H     H_    0.285888 0.330200 0.285587 0.136544
N36   N     N_3   0.360150 0.667126 0.715790 -0.183039
H91   H     H_    0.358637 0.665603 0.834844 0.204967
H92   H     H_    0.333019 0.629111 0.664474 0.099050
F21   F     F_    0.927825 0.612276 0.179611 -0.573569
F22   F     F_    0.926615 0.387931 0.682078 -0.576055
F23   F     F_    0.427305 0.111731 0.180991 -0.573915
F24   F     F_    0.426999 0.887754 0.681885 -0.574958
F25   F     F_    0.753091 0.638408 0.725588 -0.573593
F26   F     F_    0.750636 0.363003 0.233877 -0.578649
F27   F     F_    0.253659 0.139220 0.726047 -0.569400
F28   F     F_    0.251478 0.862487 0.232876 -0.581583
N37   N     N_3   0.054317 0.079859 0.409473 -0.117801
H93   H     H_    0.092970 0.092651 0.340481 0.220078
H94   H     H_    0.047796 0.029630 0.393944 0.168845
N38   N     N_3   0.053297 0.919602 0.887718 -0.109116
H95   H     H_    0.085803 0.906559 0.803153 0.194717
H96   H     H_    0.048696 0.970313 0.879692 0.177075
N39   N     N_3   0.563448 0.580975 0.365391 -0.109493
H97   H     H_    0.592490 0.595905 0.275927 0.176638
H98   H     H_    0.560035 0.530259 0.354377 0.175680
N40   N     N_3   0.546717 0.420280 0.933232 -0.118513
H99   H     H_    0.585742 0.406800 0.865711 0.229642
H100  H     H_    0.542123 0.470853 0.921244 0.173014
N41   N     N_3   0.074944 0.227812 0.028096 -0.154414
H101  H     H_    0.073273 0.278569 0.029696 0.193224
H102  H     H_    0.122266 0.214875 0.996356 0.059034
N42   N     N_3   0.068515 0.778945 0.523510 -0.165270
H103  H     H_    0.069302 0.728194 0.529139 0.190472
H104  H     H_    0.114145 0.793266 0.483964 0.053412
N43   N     N_3   0.574384 0.726086 0.021528 -0.161294
H105  H     H_    0.573667 0.776865 0.022132 0.189090
H106  H     H_    0.620703 0.711714 0.986198 0.057111
N44   N     N_3   0.569424 0.276290 0.532651 -0.157242
H107  H     H_    0.569751 0.225493 0.533612 0.192050
H108  H     H_    0.615860 0.290814 0.498174 0.059477
F29   F     F_    0.984942 0.099558 0.819580 -0.721098
F30   F     F_    0.965291 0.899269 0.322431 -0.713103
F31   F     F_    0.478506 0.598692 0.824089 -0.724166
F32   F     F_    0.471509 0.400423 0.330018 -0.709975
F33   F     F_    0.822839 0.469879 0.669634 -0.731379
F34   F     F_    0.825411 0.529191 0.169577 -0.729242
F35   F     F_    0.324685 0.969883 0.670493 -0.729526
F36   F     F_    0.322925 0.028667 0.168086 -0.729241
F37   F     F_    0.842990 0.429714 0.909705 -0.640963
F38   F     F_    0.842729 0.570921 0.409110 -0.641788
F39   F     F_    0.342289 0.929494 0.910897 -0.640618
F40   F     F_    0.342727 0.070706 0.406795 -0.638920

loop_
_geom_bond_atom_site_label_1
_geom_bond_atom_site_label_2
_geom_bond_distance
_ccdc_geom_bond_type
C35   C65   1.426950 A    
O10   P13   1.741101 S    
N40   H100  1.046242 S    
C49   C53   1.404525 A    
C35   C59   1.398667 A    
O8    Ba3   2.830245 S    
C29   N1    1.475595 S    
N15   H49   1.044284 S    
C36   C60   1.408094 A    
C52   C56   1.410323 A    
C51   C55   1.406408 A    
O40   C15   1.393597 S    
C70   C74   1.404441 A    
O20   C24   1.403009 S    
C23   H15   1.107405 S    
C28   N24   1.470162 S    
C1    F5    1.382663 S    
N31   H81   1.045045 S    
C24   N12   1.452917 S    
N22   H63   1.042050 S    
C6    C10   1.539125 S    
N32   H83   1.044270 S    
P2    Ba2   3.500751 S    
O10   Ba2   2.842161 S    
O24   C32   1.427372 S    
C27   N15   1.463013 S    
C62   C66   1.431738 A    
C8    N44   1.456008 S    
P6    O26   1.584095 D    
Ba1   O46   3.057847 S    
C10   H6    1.109078 S    
C12   F12   1.382949 S    
P4    O8    1.569409 S    
C63   C71   1.447821 A    
O28   Ba4   2.867483 S    
C20   F4    1.385045 S    
C73   F21   1.353081 S    
C84   N36   1.434908 S    
C46   C50   1.390389 A    
C7    N43   1.456454 S    
P3    C39   1.908441 S    
O24   P15   1.769465 S    
O1    Ba1   2.863581 S    
N20   H60   1.047101 S    
C9    F29   1.382270 S    
C43   F15   1.352629 S    
C80   C84   1.404716 A    
C22   N10   1.450713 S    
C44   F16   1.351898 S    
C21   C25   1.558553 S    
C18   F2    1.385276 S    
C76   F24   1.353674 S    
C10   F10   1.383334 S    
C27   N23   1.462363 S    
N38   H95   1.045314 S    
C49   F17   1.353448 S    
C28   N20   1.461458 S    
N3    H25   1.043105 S    
O22   C30   1.425685 S    
N17   H53   1.043836 S    
O16   P15   1.547407 D    
C14   C18   1.525728 S    
C62   C70   1.450135 A    
N18   H56   1.044184 S    
C4    C32   1.571200 S    
C17   N5    1.459080 S    
C45   C49   1.387597 A    
N34   H87   1.034061 S    
N30   H80   1.043255 S    
P6    O38   1.754171 S    
C30   N2    1.469933 S    
C24   C28   1.558762 S    
C41   C45   1.396009 A    
P8    O28   1.584095 D    
C26   N22   1.469552 S    
P9    O29   1.736808 S    
P11   O31   1.738131 S    
P6    C69   1.882046 S    
C33   H17   1.076145 S    
P12   O32   1.738239 S    
C1    C29   1.575885 S    
N12   H43   1.040215 S    
P5    O46   1.573537 S    
C20   H12   1.112944 S    
Ba2   O45   3.058682 S    
N27   H74   1.032183 S    
O5    Ba2   2.832039 S    
O41   C5    1.414596 S    
O43   C7    1.415684 S    
O44   C8    1.415612 S    
C14   F34   1.365922 S    
O37   C14   1.391825 S    
O12   P15   1.739075 S    
C31   N27   1.462853 S    
P2    O18   1.752485 S    
O39   C16   1.392011 S    
O17   C21   1.406576 S    
C67   C83   1.416183 A    
O19   C23   1.406354 S    
C55   C85   1.418663 A    
P16   C47   1.852270 S    
C19   N7    1.459211 S    
C43   C47   1.399634 A    
P3    O7    1.569520 S    
C13   F33   1.365902 S    
N7    H33   1.045523 S    
C5    H1    1.098861 S    
C22   C26   1.563441 S    
C42   C46   1.400038 A    
N8    H36   1.045312 S    
P11   C80   1.871029 S    
N24   H68   1.042847 S    
P9    O41   1.764095 S    
P8    C71   1.885349 S    
P9    C78   1.868918 S    
O23   C31   1.425009 S    
P11   O35   1.549380 D    
N39   H98   1.046492 S    
P12   O44   1.762053 S    
O14   P13   1.546783 D    
C8    H4    1.099375 S    
N38   H96   1.046361 S    
C1    N37   1.464899 S    
N25   H69   1.044206 S    
N12   H44   1.042941 S    
N37   H94   1.046312 S    
C66   C82   1.424103 A    
P4    C40   1.907815 S    
P14   C45   1.847298 S    
C4    N40   1.465996 S    
N21   H61   1.043746 S    
C5    N41   1.455753 S    
N5    H30   1.045263 S    
C55   C59   1.424100 A    
Ba4   O48   2.830365 S    
O6    Ba1   2.830245 S    
N1    H22   1.038761 S    
N26   H72   1.042390 S    
P7    O27   1.582864 D    
C26   N14   1.465711 S    
O38   C13   1.393107 S    
P10   O42   1.760210 S    
O18   C22   1.402709 S    
N41   H101  1.041772 S    
C3    C31   1.579744 S    
N14   H47   1.045081 S    
C23   C27   1.558126 S    
N9    H38   1.040821 S    
N36   H92   1.038558 S    
C2    F6    1.383675 S    
C6    H2    1.103405 S    
C71   C75   1.405134 A    
C72   C76   1.404936 A    
C65   C81   1.415583 A    
Ba3   Ba4   4.752159 S    
N44   H107  1.042007 S    
C81   N33   1.417655 S    
N13   H45   1.045822 S    
O2    Ba2   2.865056 S    
O11   Ba3   2.845474 S    
O26   Ba2   2.867483 S    
N6    H32   1.044863 S    
C63   C67   1.425514 A    
C37   C41   1.406344 A    
N33   H85   1.043520 S    
P5    Ba1   3.503558 S    
N35   H90   1.038117 S    
C39   C43   1.408861 A    
C48   C52   1.390267 A    
C74   F22   1.353763 S    
C33   C67   1.427801 A    
C34   C68   1.428063 A    
N29   H78   1.044002 S    
O22   P13   1.766120 S    
C13   F37   1.381531 S    
O4    Ba4   2.865056 S    
C42   F14   1.351520 S    
C21   H13   1.106747 S    
C27   N19   1.466759 S    
O11   P16   1.741054 S    
C64   C68   1.430923 A    
N42   H103  1.042292 S    
C2    N38   1.467266 S    
C19   H11   1.112807 S    
N15   H50   1.035304 S    
N28   H75   1.038687 S    
C88   F28   1.352201 S    
C11   F11   1.383276 S    
N4    H27   1.041202 S    
C85   F25   1.352212 S    
N41   H102  1.043941 S    
C24   H16   1.110226 S    
N34   H88   1.038926 S    
N22   H64   1.043285 S    
N32   H84   1.044982 S    
C77   C81   1.396917 A    
P10   O30   1.741723 S    
C34   H18   1.074835 S    
N16   H51   1.044570 S    
O32   Ba4   2.843520 S    
Ba1   O45   2.832160 S    
C17   H9    1.112853 S    
C75   F23   1.353343 S    
N7    H34   1.045220 S    
O42   C6    1.415506 S    
C26   N18   1.471394 S    
C1    N29   1.468905 S    
O25   Ba1   2.868968 S    
C16   C20   1.525021 S    
C6    N42   1.457848 S    
C82   N34   1.436032 S    
P1    O1    1.585067 D    
C76   C80   1.396068 A    
P3    O3    1.585067 D    
P4    O20   1.752325 S    
C22   H14   1.110079 S    
P3    Ba3   3.499474 S    
C35   H19   1.075915 S    
C78   C82   1.405002 A    
C36   H20   1.074598 S    
P10   C77   1.861946 S    
N2    H24   1.041064 S    
N10   H39   1.038075 S    
C83   N35   1.418847 S    
N19   H57   1.044014 S    
C9    H5    1.108993 S    
O29   Ba1   2.840214 S    
C12   H8    1.108786 S    
C40   C44   1.409585 A    
P8    Ba4   3.502257 S    
N23   H66   1.046003 S    
N40   H99   1.044751 S    
C68   C84   1.423643 A    
C41   F13   1.352780 S    
P2    C38   1.908182 S    
C10   F30   1.381382 S    
C61   C85   1.417186 A    
C29   N25   1.463396 S    
C54   C88   1.418292 A    
C37   C57   1.445347 A    
P1    O5    1.569520 S    
Ba2   O46   2.830365 S    
C19   F3    1.385215 S    
C54   C58   1.424026 A    
C17   F1    1.384895 S    
C20   N8    1.458143 S    
N24   H67   1.041765 S    
O15   P16   1.546554 D    
C32   N4    1.473559 S    
C33   C57   1.400106 A    
N35   H89   1.043404 S    
P8    O40   1.755017 S    
O21   C29   1.419348 S    
P9    O33   1.549784 D    
N11   H41   1.043382 S    
C13   C17   1.527618 S    
P11   O43   1.763048 S    
C15   F35   1.365817 S    
O12   Ba4   2.842161 S    
C3    N31   1.469064 S    
C2    N30   1.468122 S    
N4    H28   1.042895 S    
C73   C77   1.392974 A    
N2    H23   1.042821 S    
C2    C30   1.576307 S    
C53   C57   1.422536 A    
N20   H59   1.038079 S    
C56   C86   1.418700 A    
C18   N6    1.457901 S    
P6    O45   1.573641 S    
O31   Ba3   2.840214 S    
Ba3   O48   3.057847 S    
C56   C60   1.424044 A    
C31   N3    1.471903 S    
O30   Ba2   2.843520 S    
C36   C66   1.426928 A    
P5    O25   1.582864 D    
C23   N11   1.456941 S    
N17   H54   1.037099 S    
N43   H105  1.041695 S    
C18   H10   1.112827 S    
C15   C19   1.528260 S    
N37   H93   1.043606 S    
N18   H55   1.041935 S    
C69   C73   1.405018 A    
N5    H29   1.045640 S    
N39   H97   1.044222 S    
N30   H79   1.043779 S    
N1    H21   1.042347 S    
C25   N17   1.465866 S    
C64   C72   1.449507 A    
Ba1   Ba2   4.752159 S    
C61   C65   1.424310 A    
P4    Ba4   3.500751 S    
C16   F40   1.381379 S    
P1    O17   1.765076 S    
P3    O19   1.763982 S    
P4    O4    1.583834 D    
C21   N9    1.455995 S    
O13   P14   1.545749 D    
N14   H48   1.043635 S    
N9    H37   1.042940 S    
C86   F26   1.352201 S    
C12   F32   1.381819 S    
C47   C51   1.388042 A    
N3    H26   1.040523 S    
N44   H108  1.044432 S    
C50   F18   1.354604 S    
C87   F27   1.352078 S    
P7    O48   1.573537 S    
O7    Ba4   2.832039 S    
C9    F9    1.382755 S    
N8    H35   1.044386 S    
C25   N21   1.461326 S    
N29   H77   1.045621 S    
C4    F8    1.383724 S    
C61   C69   1.448096 A    
O3    Ba3   2.863581 S    
C16   F36   1.366237 S    
P8    O47   1.573641 S    
N19   H58   1.037760 S    
P2    O2    1.583834 D    
C44   C48   1.400486 A    
C63   C87   1.416008 A    
P1    C37   1.902354 S    
P5    O37   1.752814 S    
C7    H3    1.102016 S    
P7    O39   1.752074 S    
C4    N32   1.467767 S    
P7    C72   1.895639 S    
P12   C79   1.861636 S    
N42   H104  1.044124 S    
N25   H70   1.033248 S    
P5    C70   1.895186 S    
N28   H76   1.043010 S    
P12   O36   1.547888 D    
O27   Ba3   2.868968 S    
N21   H62   1.045563 S    
C38   C42   1.409356 A    
C79   C83   1.396384 A    
P6    Ba2   3.502257 S    
O9    P14   1.745906 S    
C25   N13   1.463839 S    
Ba4   O47   3.058682 S    
N26   H71   1.039026 S    
C14   F38   1.380808 S    
N43   H106  1.043344 S    
O21   P14   1.766330 S    
N11   H42   1.040640 S    
O23   P16   1.769457 S    
N16   H52   1.043767 S    
C62   C86   1.417258 A    
C75   C79   1.394215 A    
C38   C58   1.448726 A    
N27   H73   1.043507 S    
P2    O6    1.569409 S    
C3    F7    1.383672 S    
C5    C9    1.543190 S    
N31   H82   1.042930 S    
N36   H91   1.033704 S    
P1    Ba1   3.499474 S    
O9    Ba1   2.845474 S    
C7    C11   1.541566 S    
C34   C58   1.408538 A    
C50   C54   1.410520 A    
N23   H65   1.044511 S    
C28   N16   1.463822 S    
P10   O34   1.547715 D    
N13   H46   1.035487 S    
C30   N26   1.465018 S    
C15   F39   1.381142 S    
N6    H31   1.044454 S    
N33   H86   1.040422 S    
C11   H7    1.108897 S    
C64   C88   1.417784 A    
C11   F31   1.381085 S    
C8    C12   1.540485 S    
C52   F20   1.354034 S    
C53   C87   1.417112 A    
C32   N28   1.456796 S    
C74   C78   1.395823 A    
C3    N39   1.464993 S    
P15   C48   1.861384 S    
N10   H40   1.042979 S    
C39   C59   1.446056 A    
P13   C46   1.860034 S    
C40   C60   1.447966 A    
C51   F19   1.353783 S    
Ba3   O47   2.832160 S    
P7    Ba3   3.503558 S    
