data_mof_unit_61127.cif
_audit_creation_date              2012-12-10T17:59:41-0500
_audit_creation_method            fapswitch 2.2
_symmetry_space_group_name_H-M    P1
_symmetry_Int_Tables_number       1
_space_group_crystal_system       triclinic
_cell_length_a                    18.642925
_cell_length_b                    18.569904
_cell_length_c                    18.733468
_cell_angle_alpha                 109.211297
_cell_angle_beta                  109.898221
_cell_angle_gamma                 108.968926
_cell_volume                      5012.80311831

loop_
_atom_site_label
_atom_site_type_symbol
_atom_type_description
_atom_site_fract_x
_atom_site_fract_y
_atom_site_fract_z
_atom_type_partial_charge
C1    C     C_R   0.620629 0.620122 0.500631 0.927644
C2    C     C_R   0.687426 0.686141 0.501705 -0.093593
C3    C     C_R   0.677226 0.496743 0.756020 -0.247495
C4    C     C_R   0.378971 0.499898 0.379322 0.852486
C5    C     C_R   0.740583 0.496533 0.821724 0.141993
C6    C     C_R   0.816138 0.502190 0.817791 -0.038677
C7    C     C_R   0.828340 0.508511 0.750047 -0.256541
C8    C     C_R   0.764308 0.507379 0.683960 0.127063
C9    C     C_R   0.688867 0.501279 0.687572 -0.025357
C10   C     C_R   0.264634 0.335230 0.537349 -0.205718
C11   C     C_R   0.200429 0.271505 0.537172 0.330505
C12   C     C_3   0.173735 0.455778 0.245006 -0.166283
C13   C     C_R   0.185314 0.185448 0.499485 -0.201190
C14   C     C_R   0.233262 0.162505 0.461697 0.335301
C15   C     C_R   0.296887 0.226571 0.461604 -0.202629
C16   C     C_R   0.379462 0.379470 0.499874 0.905520
C17   C     C_R   0.312726 0.312816 0.499581 -0.168890
C18   C     C_R   0.003213 0.620026 0.122937 0.920282
C19   C     C_R   0.124504 0.500135 0.124805 0.842674
C20   C     C_R   0.004441 0.379628 0.884107 0.850982
C21   C     C_R   0.882765 0.500936 0.883471 0.911242
C22   C     C_R   0.001157 0.879684 0.380546 0.932439
C23   C     C_3   0.254034 0.538942 0.328456 -0.164775
C24   C     C_R   0.879742 0.879579 0.500063 0.872229
C25   C     C_R   0.999365 0.120450 0.619207 0.889497
C26   C     C_R   0.119814 0.119786 0.499788 1.015520
C27   C     C_R   0.973270 0.740586 0.167899 0.354919
C28   C     C_R   0.621778 0.500660 0.620969 0.930950
C29   C     C_R   0.972306 0.803961 0.231311 -0.173264
C30   C     C_R   0.002365 0.813651 0.314945 -0.129113
C31   C     C_R   0.033848 0.760359 0.335915 -0.132630
C32   C     C_R   0.034178 0.695916 0.272838 0.048158
C33   C     C_R   0.003340 0.686155 0.188639 -0.145771
C34   C     C_3   0.311645 0.500003 0.312614 0.019958
C35   C     C_R   0.081994 0.322192 0.821257 -0.177514
C36   C     C_R   0.080627 0.258230 0.756044 -0.118097
C37   C     C_R   0.000172 0.187509 0.685236 0.000771
C38   C     C_R   0.921027 0.179791 0.679274 -0.180738
C39   C     C_R   0.922452 0.242447 0.745874 -0.170446
C40   C     C_3   0.329117 0.544286 0.259848 -0.150472
C41   C     C_R   0.002949 0.313517 0.816400 -0.014938
C42   C     C_3   0.270265 0.583203 0.274462 -0.163044
C43   C     C_3   0.191184 0.500087 0.192159 0.018900
C44   C     C_3   0.248729 0.461218 0.176307 -0.148504
C45   C     C_R   0.768807 0.744999 0.578354 0.376836
C46   C     C_3   0.232471 0.416896 0.230358 -0.152903
C47   C     C_R   0.832278 0.808356 0.577242 -0.213482
C48   C     C_R   0.813750 0.813335 0.500632 -0.086457
C49   C     C_R   0.732268 0.754561 0.424561 -0.166465
C50   C     C_R   0.669278 0.690219 0.424923 -0.248395
Cl1   Cl    Cl    0.141423 0.301629 0.586089 -0.631276
Cl2   Cl    Cl    0.213977 0.054114 0.412744 -0.603400
Cl3   Cl    Cl    0.934986 0.730075 0.062997 -0.608826
Cl4   Cl    Cl    0.794067 0.739127 0.675231 -0.602627
H1    H     H_    0.283684 0.651002 0.290562 0.147242
H2    H     H_    0.144289 0.377383 0.875997 0.146067
H3    H     H_    0.141885 0.264083 0.760240 0.162829
H4    H     H_    0.858809 0.124569 0.624461 0.147727
H5    H     H_    0.861228 0.236367 0.741940 0.150386
H6    H     H_    0.244539 0.429514 0.112287 0.132237
H7    H     H_    0.218879 0.349051 0.214231 0.151756
H8    H     H_    0.108672 0.419715 0.237459 0.158502
H9    H     H_    0.257693 0.570645 0.392189 0.159743
H10   H     H_    0.895481 0.854043 0.636139 0.187824
H11   H     H_    0.717895 0.757754 0.364913 0.163640
H12   H     H_    0.606138 0.644368 0.365936 0.149186
H13   H     H_    0.775909 0.551935 0.949244 0.225617
H14   H     H_    0.667890 0.483601 0.882758 0.184304
H15   H     H_    0.785453 0.462575 0.583477 0.186465
H16   H     H_    0.834196 0.572853 0.642145 0.223888
H17   H     H_    0.118642 0.648342 0.282547 0.176567
H18   H     H_    0.017668 0.577280 0.257326 0.205138
H19   H     H_    0.618373 0.492449 0.757496 0.149043
H20   H     H_    0.886910 0.512959 0.747785 0.159980
H21   H     H_    0.276481 0.401880 0.566480 0.198544
H22   H     H_    0.334178 0.209056 0.432521 0.199974
H23   H     H_    0.394457 0.580384 0.267936 0.128692
H24   H     H_    0.948862 0.846011 0.215494 0.197844
H25   H     H_    0.057277 0.768088 0.400883 0.175754
N1    N     N_3   0.729296 0.491705 0.892569 -0.425337
N2    N     N_3   0.776595 0.514421 0.614564 -0.423695
N3    N     N_3   0.067650 0.642604 0.296008 -0.451749
O1    O     O_R   0.592040 0.539900 0.448690 -0.622767
O2    O     O_R   0.948580 0.908330 0.356880 -0.632340
O3    O     O_R   0.960490 0.908280 0.552000 -0.627234
O4    O     O_R   0.591220 0.643330 0.551330 -0.585515
O5    O     O_R   0.856260 0.908310 0.447800 -0.631414
O6    O     O_R   0.051420 0.091500 0.642940 -0.632008
O7    O     O_R   0.947190 0.091540 0.538750 -0.604682
O8    O     O_R   0.143740 0.091510 0.552020 -0.600761
O9    O     O_R   0.039510 0.091550 0.447830 -0.593884
O10   O     O_R   0.408100 0.448290 0.356370 -0.627238
O11   O     O_R   0.407270 0.551710 0.459000 -0.629204
O12   O     O_R   0.054890 0.643310 0.094620 -0.578674
O13   O     O_R   0.408780 0.356670 0.448670 -0.626180
O14   O     O_R   0.407960 0.460100 0.551310 -0.630682
O15   O     O_R   0.592730 0.448290 0.541000 -0.613796
O16   O     O_R   0.591900 0.551710 0.643630 -0.601805
O17   O     O_R   0.951430 0.539890 0.094630 -0.634917
O18   O     O_R   0.044450 0.448260 0.096050 -0.629975
O19   O     O_R   0.147910 0.551670 0.096030 -0.626977
O20   O     O_R   0.952840 0.356630 0.912840 -0.620916
O21   O     O_R   0.056290 0.460040 0.912820 -0.621432
O22   O     O_R   0.859820 0.448260 0.911420 -0.608977
O23   O     O_R   0.963280 0.551670 0.911400 -0.599378
O24   O     O_R   0.052810 0.908290 0.461080 -0.612196
Zn1   Zn    Zn3+2 0.500550 0.430940 0.431470 0.985042
Zn2   Zn    Zn3+2 0.499450 0.569060 0.568530 1.013027
Zn3   Zn    Zn3+2 0.934780 0.430920 0.003740 0.977380
Zn4   Zn    Zn3+2 0.072940 0.569020 0.003710 1.016820
Zn5   Zn    Zn3+2 0.069600 0.999890 0.569480 1.006905
Zn6   Zn    Zn3+2 0.930400 0.999940 0.430340 1.009249

loop_
_geom_bond_atom_site_label_1
_geom_bond_atom_site_label_2
_ccdc_geom_bond_type
C28   O15   A    
H14   N1    S    
O23   Zn4   S    
C27   C29   A    
C11   C13   A    
C35   C36   A    
C20   C41   S    
C7    C8    A    
C39   C41   A    
C20   O21   A    
C27   C33   A    
O7    Zn6   S    
O2    Zn6   S    
C23   C42   S    
C49   H11   S    
O21   Zn4   S    
C34   C40   S    
C36   C37   A    
C12   C43   S    
O11   Zn2   S    
C30   C31   A    
C20   O20   A    
C10   C17   A    
O17   Zn3   S    
O16   Zn2   S    
C1    C2    S    
H16   N2    S    
C2    C50   A    
C25   C37   S    
C38   H4    S    
O6    Zn5   S    
C14   Cl2   S    
C29   H24   S    
C31   C32   A    
C44   C46   S    
C8    C9    A    
C34   C46   S    
C29   C30   A    
C24   O3    A    
H17   N3    S    
C40   C42   S    
C15   H22   S    
O14   Zn2   S    
O18   Zn3   S    
C13   C14   A    
C21   O22   A    
O8    Zn5   S    
C35   C41   A    
C24   O5    A    
C19   C43   S    
C7    H20   S    
O24   Zn5   S    
C45   C47   A    
C2    C45   A    
C38   C39   A    
C4    C34   S    
C16   O14   A    
C46   H7    S    
C8    N2    S    
C24   C48   S    
C11   Cl1   S    
C12   C46   S    
C36   H3    S    
C47   H10   S    
C16   C17   S    
O5    Zn6   S    
C3    C5    A    
O19   Zn4   S    
C22   O24   A    
C6    C21   S    
O12   Zn4   S    
C25   O6    A    
C22   O2    A    
O9    Zn6   S    
C43   C44   S    
C37   C38   A    
C3    C9    A    
C42   H1    S    
C12   H8    S    
C10   H21   S    
O10   Zn1   S    
C47   C48   A    
C12   C23   S    
C23   C34   S    
C39   H5    S    
C5    N1    S    
C50   H12   S    
O13   Zn1   S    
C48   C49   A    
C45   Cl4   S    
C18   O12   A    
C13   C26   S    
C26   O8    A    
C18   O17   A    
C28   O16   A    
C1    O4    A    
C15   C17   A    
C16   O13   A    
C22   C30   S    
C35   H2    S    
C14   C15   A    
O4    Zn2   S    
H13   N1    S    
O3    Zn5   S    
C19   O18   A    
C27   Cl3   S    
C31   H25   S    
C6    C7    A    
C1    O1    A    
C32   N3    S    
C25   O7    A    
C32   C33   A    
C26   O9    A    
C19   O19   A    
C5    C6    A    
C44   H6    S    
C23   H9    S    
O1    Zn1   S    
C40   H23   S    
C3    H19   S    
C18   C33   S    
C21   O23   A    
H15   N2    S    
C10   C11   A    
C4    O11   A    
O15   Zn1   S    
C40   C44   S    
C49   C50   A    
C42   C43   S    
O22   Zn3   S    
O20   Zn3   S    
H18   N3    S    
C9    C28   S    
C4    O10   A    
