data_mof_unit_35964.cif
_audit_creation_date              2012-12-10T19:18:32-0500
_audit_creation_method            fapswitch 2.2
_symmetry_space_group_name_H-M    P1
_symmetry_Int_Tables_number       1
_space_group_crystal_system       triclinic
_cell_length_a                    15.720587
_cell_length_b                    15.017413
_cell_length_c                    10.525211
_cell_angle_alpha                 89.083906
_cell_angle_beta                  89.702053
_cell_angle_gamma                 90.08224
_cell_volume                      2484.46456197

loop_
_atom_site_label
_atom_site_type_symbol
_atom_type_description
_atom_site_fract_x
_atom_site_fract_y
_atom_site_fract_z
_atom_type_partial_charge
C1    C     C_R   0.337994 0.499928 0.501033 0.878109
C2    C     C_3   0.501851 0.502081 0.123146 -0.034230
C3    C     C_3   0.051816 0.590052 0.600422 0.270357
C4    C     C_3   0.050342 0.409403 0.607977 0.295566
C5    C     C_3   0.946775 0.412975 0.615144 0.345966
C6    C     C_3   0.949907 0.597597 0.582253 0.348587
C7    C     C_1   0.750446 0.500386 0.511009 -0.070611
C8    C     C_3   0.082723 0.498989 0.534468 -0.022892
C9    C     C_3   0.916427 0.500933 0.536125 -0.015741
C10   C     C_3   0.951122 0.490615 0.396661 -0.557576
C11   C     C_3   0.048175 0.497185 0.396069 -0.403618
C12   C     C_1   0.825224 0.501076 0.523326 0.163243
C13   C     C_1   0.174408 0.499186 0.523513 0.156464
C14   C     C_R   0.500797 0.500741 0.257224 0.870917
C15   C     C_1   0.249447 0.499614 0.512123 -0.041144
C16   C     C_3   0.408284 0.051858 0.516436 -0.131096
C17   C     C_3   0.411672 0.947268 0.532688 -0.160010
C18   C     C_3   0.555558 0.052702 0.625584 0.450290
C19   C     C_3   0.568598 0.943367 0.609650 0.435619
C20   C     C_3   0.502136 0.090191 0.501476 -0.136702
C21   C     C_3   0.503559 0.909686 0.499530 -0.127765
C22   C     C_3   0.528658 0.948367 0.360659 0.174256
C23   C     C_3   0.539753 0.055683 0.368014 0.125069
C24   C     C_1   0.500340 0.808933 0.497829 0.274879
C25   C     C_1   0.499748 0.190995 0.498769 0.286816
C26   C     C_R   0.662103 0.500091 0.500227 0.885231
C27   C     C_R   0.500927 0.499279 0.743169 0.888826
C28   C     C_3   0.505998 0.586213 0.038123 -0.167661
C29   C     C_3   0.429172 0.462132 0.045650 -0.163617
C30   C     C_3   0.433681 0.545734 0.957259 -0.205896
C31   C     C_3   0.501494 0.498093 0.877650 -0.009148
C32   C     C_3   0.572106 0.537033 0.957838 0.089646
C33   C     C_3   0.497736 0.416877 0.965578 0.106154
C34   C     C_3   0.570450 0.454302 0.045342 -0.225773
H1    H     H_    0.378350 0.582414 0.917495 0.167950
H2    H     H_    0.923865 0.540588 0.329508 0.217545
H3    H     H_    0.930856 0.429981 0.347658 0.227421
H4    H     H_    0.399413 0.933257 0.632880 0.264622
H5    H     H_    0.378754 0.078919 0.603085 0.233882
H6    H     H_    0.510787 0.655798 0.071504 0.166618
H7    H     H_    0.370999 0.430387 0.086084 0.158257
H8    H     H_    0.625953 0.417469 0.084262 0.158941
H9    H     H_    0.067453 0.556490 0.340054 0.236148
H10   H     H_    0.075955 0.442535 0.340431 0.260848
N1    N     N_1   0.498630 0.731150 0.497460 -0.066967
N2    N     N_1   0.498630 0.268850 0.497460 -0.056679
O1    O     O_R   0.377210 0.574260 0.500130 -0.588258
O2    O     O_R   0.377210 0.425740 0.500130 -0.599031
O3    O     O_R   0.500050 0.574220 0.314080 -0.630785
O4    O     O_R   0.500050 0.425780 0.314080 -0.631019
O5    O     O_R   0.622930 0.574200 0.500140 -0.573350
O6    O     O_R   0.622930 0.425800 0.500140 -0.605841
O7    O     O_R   0.500090 0.574240 0.686180 -0.602078
O8    O     O_R   0.500090 0.425760 0.686180 -0.583890
Zn1   Zn    Zn3+2 0.500090 0.599130 0.500180 1.055274
Zn2   Zn    Zn3+2 0.500090 0.400870 0.500180 1.045369
S1    S     S_3+6 0.655843 0.115654 0.654510 0.128716
O9    O     O_2   0.699554 0.076397 0.768947 -0.158473
O10   O     O_2   0.720383 0.120583 0.549549 -0.248691
O11   O     O_3   0.631335 0.221632 0.689347 -0.538228
H11   H     H_    0.684855 0.248132 0.720743 0.388798
S2    S     S_3+6 0.679913 0.908872 0.573063 0.138667
O12   O     O_2   0.680319 0.813835 0.530024 -0.277058
O13   O     O_2   0.725349 0.962833 0.473004 -0.230692
O14   O     O_3   0.739526 0.911942 0.705289 -0.397585
H12   H     H_    0.792854 0.880529 0.683357 0.412103
S3    S     S_3+6 0.495494 0.084578 0.773058 0.053285
O15   O     O_2   0.552088 0.084856 0.887753 -0.218770
O16   O     O_2   0.462804 0.177933 0.756089 -0.313235
O17   O     O_3   0.410489 0.021816 0.811419 -0.562771
H13   H     H_    0.386361 0.048887 0.888861 0.389333
S4    S     S_3+6 0.551253 0.876881 0.759186 0.090435
O18   O     O_2   0.589427 0.785881 0.743926 -0.269603
O19   O     O_2   0.596829 0.919415 0.867587 -0.188581
O20   O     O_3   0.449878 0.857867 0.803339 -0.564164
H14   H     H_    0.453508 0.822822 0.883681 0.377976
N3    N     N_3   0.500233 0.103160 0.258206 -0.478047
H15   H     H_    0.437199 0.088677 0.239892 0.219223
H16   H     H_    0.532762 0.087561 0.174512 0.212104
N4    N     N_3   0.462651 0.922028 0.268267 -0.452352
H17   H     H_    0.405617 0.955855 0.278311 0.254264
H18   H     H_    0.483271 0.935089 0.175161 0.196206
N5    N     N_3   0.629830 0.080715 0.361106 -0.327480
H19   H     H_    0.634391 0.150279 0.360953 0.218053
H20   H     H_    0.656838 0.063596 0.273994 0.217975
N6    N     N_3   0.608008 0.906623 0.315926 -0.347421
H21   H     H_    0.599308 0.837927 0.307670 0.210803
H22   H     H_    0.622090 0.928575 0.223386 0.201652
N7    N     N_3   0.350232 0.081224 0.415250 -0.436810
H23   H     H_    0.351544 0.150728 0.408353 0.212233
H24   H     H_    0.287631 0.066453 0.442200 0.224966
N8    N     N_3   0.341628 0.901997 0.466990 -0.403084
H25   H     H_    0.283960 0.924173 0.504928 0.229781
H26   H     H_    0.342187 0.834109 0.490199 0.232144
N9    N     N_3   0.649813 0.576259 0.905724 -0.375960
H27   H     H_    0.685756 0.598560 0.982178 0.204566
H28   H     H_    0.632582 0.632642 0.852648 0.261626
N10   N     N_3   0.492848 0.325093 0.924224 -0.349369
H29   H     H_    0.487013 0.284833 0.005724 0.208768
H30   H     H_    0.551522 0.309686 0.883094 0.254996
S5    S     S_3+6 0.892624 0.645323 0.720261 0.050337
O21   O     O_2   0.922760 0.739577 0.735801 -0.269676
O22   O     O_2   0.799195 0.648903 0.690962 -0.246720
O23   O     O_3   0.903968 0.595920 0.863021 -0.490202
H31   H     H_    0.864803 0.628101 0.920225 0.391394
S6    S     S_3+6 0.900190 0.404606 0.777879 0.041329
O24   O     O_2   0.955982 0.435958 0.883458 -0.267255
O25   O     O_2   0.816840 0.453292 0.783411 -0.258108
O26   O     O_3   0.878606 0.297062 0.813129 -0.520632
H32   H     H_    0.842286 0.298307 0.890288 0.392491
N11   N     N_3   0.075349 0.586815 0.735456 -0.435076
H33   H     H_    0.034438 0.546762 0.786904 0.276624
H34   H     H_    0.069637 0.649711 0.775846 0.260828
N12   N     N_3   0.086680 0.406014 0.736518 -0.415328
H35   H     H_    0.153072 0.409003 0.732676 0.209673
H36   H     H_    0.071841 0.345038 0.780713 0.289988
S7    S     S_3+6 0.093103 0.307423 0.532647 -0.025454
O27   O     O_2   0.062755 0.293312 0.399335 -0.314226
O28   O     O_2   0.188658 0.310780 0.530046 -0.312007
O29   O     O_3   0.065439 0.217686 0.621487 -0.533966
H37   H     H_    0.094318 0.166813 0.580939 0.404450
S8    S     S_3+6 0.111389 0.688853 0.539706 0.010640
O30   O     O_2   0.121320 0.693028 0.397775 -0.293108
O31   O     O_2   0.068628 0.773005 0.581538 -0.259323
O32   O     O_3   0.209857 0.687469 0.602139 -0.541235
H38   H     H_    0.205184 0.719149 0.683686 0.371776
N13   N     N_3   0.907646 0.334020 0.555208 -0.388960
H39   H     H_    0.923087 0.275318 0.603700 0.312676
H40   H     H_    0.923853 0.322471 0.461768 0.223687
N14   N     N_3   0.928722 0.662241 0.478281 -0.405974
H41   H     H_    0.926417 0.728225 0.507601 0.292560
H42   H     H_    0.971165 0.662137 0.402313 0.221008

loop_
_geom_bond_atom_site_label_1
_geom_bond_atom_site_label_2
_ccdc_geom_bond_type
S5    O21   D    
N9    H27   S    
C2    C28   S    
N11   H33   S    
C34   H8    S    
C6    N14   S    
C3    C6    S    
C6    C9    S    
N12   H35   S    
C27   O8    A    
N3    H15   S    
C8    C13   S    
C7    C26   S    
C23   N5    S    
C30   H1    S    
C2    C29   S    
C24   N1    T    
C4    N12   S    
C19   C21   S    
C18   C19   S    
S7    O28   D    
C30   C31   S    
N6    H22   S    
S1    O10   D    
C14   O3    A    
C20   C25   S    
C28   H6    S    
C19   S2    S    
C29   C33   S    
C33   N10   S    
C6    S5    S    
S2    O13   D    
C31   C32   S    
C3    N11   S    
C16   C17   S    
C31   C33   S    
C11   H9    S    
O17   H13   S    
C1    C15   S    
N7    H24   S    
C9    C10   S    
C18   C20   S    
C3    S8    S    
C4    C8    S    
C2    C34   S    
N3    H16   S    
C16   N7    S    
S5    O22   D    
C21   C22   S    
C19   S4    S    
C17   N8    S    
S4    O20   S    
O23   H31   S    
C5    S6    S    
O7    Zn1   S    
C7    C12   T    
O8    Zn2   S    
C27   C31   S    
S3    O15   D    
C28   C32   S    
N4    H18   S    
C3    C8    S    
O26   H32   S    
S7    O29   S    
N6    H21   S    
N4    H17   S    
S1    O11   S    
C18   S3    S    
O3    Zn1   S    
C17   C21   S    
O11   H11   S    
S3    O16   D    
C32   C34   S    
N14   H42   S    
O20   H14   S    
N13   H40   S    
C5    C9    S    
C29   C30   S    
C26   O6    A    
C18   S1    S    
N5    H19   S    
C20   C23   S    
C16   C20   S    
C5    N13   S    
S2    O12   D    
N8    H26   S    
C33   C34   S    
C11   H10   S    
N11   H34   S    
C23   N3    S    
S4    O19   D    
N5    H20   S    
O14   H12   S    
S5    O23   S    
N10   H30   S    
C13   C15   T    
O32   H38   S    
C4    S7    S    
S8    O31   D    
N13   H39   S    
O29   H37   S    
O1    Zn1   S    
O2    Zn2   S    
N9    H28   S    
S2    O14   S    
C29   H7    S    
C1    O1    A    
S4    O18   D    
N12   H36   S    
C27   O7    A    
C1    O2    A    
C10   H3    S    
S3    O17   S    
S8    O32   S    
C28   C30   S    
N14   H41   S    
N7    H23   S    
C22   N4    S    
S7    O27   D    
S1    O9    D    
C14   O4    A    
S6    O25   D    
C8    C11   S    
N8    H25   S    
O5    Zn1   S    
C17   H4    S    
C22   N6    S    
C2    C14   S    
C9    C12   S    
O4    Zn2   S    
C10   C11   S    
C16   H5    S    
C4    C5    S    
C32   N9    S    
N1    Zn1   S    
N10   H29   S    
S6    O24   D    
C21   C24   S    
N2    Zn2   S    
C22   C23   S    
C10   H2    S    
S8    O30   D    
C26   O5    A    
C25   N2    T    
O6    Zn2   S    
S6    O26   S    
