data_mof_unit_52916.cif
_audit_creation_date              2012-12-10T16:57:07-0500
_audit_creation_method            fapswitch 2.2
_symmetry_space_group_name_H-M    P1
_symmetry_Int_Tables_number       1
_space_group_crystal_system       triclinic
_cell_length_a                    7.819674
_cell_length_b                    8.547008
_cell_length_c                    16.973309
_cell_angle_alpha                 93.244912
_cell_angle_beta                  79.156375
_cell_angle_gamma                 93.986457
_cell_volume                      1110.35938343

loop_
_atom_site_label
_atom_site_type_symbol
_atom_type_description
_atom_site_fract_x
_atom_site_fract_y
_atom_site_fract_z
_atom_type_partial_charge
C1    C     C_R   0.546134 0.794680 0.498015 0.933204
C2    C     C_R   0.453861 0.205316 0.501981 0.955391
C3    C     C_2   0.570380 0.958349 0.496779 -0.350546
C4    C     C_2   0.429607 0.041633 0.503189 -0.364504
C5    C     C_R   0.475280 0.501689 0.654047 0.930282
C6    C     C_R   0.525811 0.501927 0.346411 0.960565
C7    C     C_R   0.460771 0.496401 0.740832 -0.304401
C8    C     C_R   0.550239 0.530416 0.261628 -0.269406
C9    C     C_R   0.612075 0.468871 0.769396 -0.370764
C10   C     C_R   0.436877 0.628496 0.236384 -0.378478
C11   C     C_R   0.608282 0.454672 0.850417 0.480419
C12   C     C_R   0.459785 0.664914 0.156556 0.494563
C13   C     C_R   0.453213 0.482369 0.904891 -0.168836
C14   C     C_R   0.587256 0.590511 0.100531 -0.174687
C15   C     C_R   0.297892 0.506479 0.877683 0.380174
C16   C     C_R   0.701918 0.491775 0.124735 0.380786
C17   C     C_R   0.301628 0.514113 0.795131 0.410769
C18   C     C_R   0.692626 0.472109 0.206875 0.369573
C19   C     C_2   0.456891 0.494489 0.990088 -0.121245
C20   C     C_2   0.577707 0.590284 0.016657 -0.013520
H1    H     H_    0.735684 0.457798 0.728823 0.239744
H2    H     H_    0.331857 0.679527 0.278822 0.211308
H3    H     H_    0.675164 0.659315 0.976536 0.160954
H4    H     H_    0.357536 0.429614 0.031506 0.158310
H5    H     H_    0.703233 0.009696 0.490609 0.218382
H6    H     H_    0.296753 0.990283 0.509360 0.215462
N1    N     N_2   0.953500 0.457650 0.478520 0.135941
N2    N     N_2   0.046500 0.542350 0.521480 0.139949
O1    O     O_R   0.388470 0.738640 0.505270 -0.610608
O2    O     O_R   0.611530 0.261360 0.494730 -0.598478
O3    O     O_R   0.679650 0.711510 0.491500 -0.583334
O4    O     O_R   0.320350 0.288490 0.508500 -0.579886
O5    O     O_R   0.337210 0.515200 0.623500 -0.575718
O6    O     O_R   0.662790 0.484800 0.376500 -0.575506
O7    O     O_R   0.628380 0.488060 0.609730 -0.597484
O8    O     O_R   0.371620 0.511940 0.390270 -0.603866
Zn1   Zn    Zn3+2 0.305580 0.518120 0.509190 1.078419
Zn2   Zn    Zn3+2 0.694420 0.481880 0.490810 1.084647
O9    O     O_3   0.809899 0.381502 0.232614 -0.591224
C21   C     C_3   0.971634 0.468481 0.227304 -0.140992
H7    H     H_    0.062767 0.398424 0.251306 0.208566
H8    H     H_    0.958259 0.580765 0.263919 0.156824
H9    H     H_    0.032047 0.491768 0.164115 0.171467
O10   O     O_3   0.147740 0.530775 0.768253 -0.553446
C22   C     C_3   0.122223 0.692277 0.766304 -0.143882
H10   H     H_    0.993695 0.704847 0.749552 0.210925
H11   H     H_    0.224000 0.750596 0.720734 0.147926
H12   H     H_    0.119288 0.754005 0.825785 0.112340
O11   O     O_3   0.139327 0.514031 0.930126 -0.544786
C23   C     C_3   0.130433 0.658864 0.974964 -0.156215
H13   H     H_    0.235526 0.749638 0.952809 0.099011
H14   H     H_    0.133241 0.637815 0.038483 0.212468
H15   H     H_    0.003526 0.708022 0.973548 0.164119
O12   O     O_3   0.822561 0.415261 0.067958 -0.553645
C24   C     C_3   0.764925 0.255702 0.060757 -0.209166
H16   H     H_    0.640879 0.242820 0.037309 0.138837
H17   H     H_    0.748852 0.195923 0.118395 0.169761
H18   H     H_    0.865003 0.193898 0.017509 0.167156
O13   O     O_3   0.343883 0.758907 0.132602 -0.621630
C25   C     C_3   0.422720 0.911919 0.124134 -0.344002
H19   H     H_    0.542007 0.914447 0.076515 0.142211
H20   H     H_    0.454221 0.962157 0.182065 0.184544
H21   H     H_    0.329283 0.988224 0.105801 0.190406
O14   O     O_3   0.759702 0.427098 0.877472 -0.542394
C26   C     C_3   0.809305 0.273910 0.852276 -0.158438
H22   H     H_    0.848536 0.260754 0.785957 0.158246
H23   H     H_    0.703620 0.184308 0.874574 0.097620
H24   H     H_    0.925243 0.250999 0.877725 0.202157
Cl1   Cl    Cl    0.050287 0.307145 0.418203 -0.517725
Cl2   Cl    Cl    0.949512 0.692928 0.581603 -0.554611

loop_
_geom_bond_atom_site_label_1
_geom_bond_atom_site_label_2
_ccdc_geom_bond_type
C1    O3    A    
C23   H14   S    
C18   O9    S    
O3    Zn2   S    
C15   C17   A    
C14   C20   S    
C11   C13   A    
C4    H6    S    
C19   C20   D    
N1    Cl1   S    
C20   H3    S    
C2    O2    A    
C24   H16   S    
C26   H24   S    
O14   C26   S    
C21   H9    S    
N1    N2    D    
C21   H8    S    
C23   H13   S    
C17   O10   S    
O13   C25   S    
C26   H22   S    
C24   H17   S    
O6    Zn2   S    
C22   H10   S    
C10   H2    S    
C15   O11   S    
N2    Cl2   S    
C9    C11   A    
C9    H1    S    
C10   C12   A    
N2    Zn1   S    
C25   H21   S    
C2    C4    S    
C5    O7    A    
C1    O1    A    
C21   H7    S    
C12   C14   A    
O5    Zn1   S    
O11   C23   S    
C16   O12   S    
C5    O5    A    
C22   H11   S    
C13   C15   A    
C25   H20   S    
C14   C16   A    
C22   H12   S    
C23   H15   S    
C26   H23   S    
C13   C19   S    
N1    Zn2   S    
C3    C4    D    
C7    C9    A    
C3    H5    S    
O7    Zn2   S    
O10   C22   S    
O2    Zn2   S    
C2    O4    A    
C11   O14   S    
C24   H18   S    
O1    Zn1   S    
O9    C21   S    
C5    C7    S    
O12   C24   S    
O8    Zn1   S    
C6    C8    S    
C1    C3    S    
O4    Zn1   S    
C12   O13   S    
C19   H4    S    
C8    C10   A    
C8    C18   A    
C6    O6    A    
C6    O8    A    
C25   H19   S    
C7    C17   A    
C16   C18   A    
