data_mof_unit_64791.cif
_audit_creation_date              2012-12-10T18:48:18-0500
_audit_creation_method            fapswitch 2.2
_symmetry_space_group_name_H-M    P1
_symmetry_Int_Tables_number       1
_space_group_crystal_system       triclinic
_cell_length_a                    13.893994
_cell_length_b                    18.147343
_cell_length_c                    19.45967
_cell_angle_alpha                 89.995416
_cell_angle_beta                  90.189354
_cell_angle_gamma                 84.856327
_cell_volume                      4886.75758968

loop_
_atom_site_label
_atom_site_type_symbol
_atom_type_description
_atom_site_fract_x
_atom_site_fract_y
_atom_site_fract_z
_atom_type_partial_charge
C1    C     C_R   0.500154 0.499966 0.632483 0.789671
C2    C     C_R   0.499847 0.500034 0.367517 0.789671
C3    C     C_R   0.499648 0.433231 0.255652 -0.171411
C4    C     C_R   0.500375 0.566768 0.744348 -0.171408
C5    C     C_R   0.499649 0.500048 0.292026 -0.042679
C6    C     C_R   0.500357 0.499951 0.707974 -0.042677
C7    C     C_R   0.439965 0.455402 0.035562 -0.164564
C8    C     C_R   0.560061 0.544595 0.964439 -0.164565
C9    C     C_R   0.440193 0.455361 0.964004 -0.163773
C10   C     C_R   0.559832 0.544636 0.035997 -0.163773
C11   C     C_R   0.500243 0.499957 0.927898 0.092967
C12   C     C_R   0.499782 0.500041 0.072103 0.092963
C13   C     C_R   0.559729 0.274710 0.543431 0.037529
C14   C     C_R   0.440271 0.725290 0.456569 0.037528
C15   C     C_R   0.560348 0.197270 0.544318 -0.271178
C16   C     C_R   0.439652 0.802730 0.455681 -0.271178
C17   C     C_R   0.499081 0.161537 0.500098 0.059752
C18   C     C_R   0.500919 0.838463 0.499901 0.059751
C19   C     C_R   0.438263 0.205969 0.455616 0.516948
C20   C     C_R   0.561736 0.794031 0.544384 0.516948
C21   C     C_R   0.439913 0.283279 0.456520 -0.011496
C22   C     C_R   0.560086 0.716722 0.543481 -0.011493
C23   C     C_R   0.683209 0.488113 0.500031 0.826526
C24   C     C_R   0.316790 0.511887 0.499969 0.826527
C25   C     C_R   0.504702 0.038692 0.438266 -0.248111
C26   C     C_R   0.495298 0.961308 0.561733 -0.248108
C27   C     C_R   0.505326 0.961181 0.437758 0.608671
C28   C     C_R   0.494673 0.038818 0.562241 0.608670
C29   C     C_R   0.500687 0.921278 0.499677 -0.063935
C30   C     C_R   0.499312 0.078722 0.500323 -0.063935
C31   C     C_1   0.213696 0.519093 0.499919 -0.161512
C32   C     C_1   0.786304 0.480907 0.500081 -0.161512
C33   C     C_2   0.023325 0.530543 0.499833 -0.151902
C34   C     C_2   0.976675 0.469457 0.500166 -0.151901
C35   C     C_1   0.873099 0.475184 0.500123 0.020376
C36   C     C_1   0.126901 0.524816 0.499877 0.020376
C37   C     C_R   0.499474 0.566877 0.255642 -0.172437
C38   C     C_R   0.500523 0.433122 0.744357 -0.172438
C39   C     C_R   0.499495 0.566852 0.184082 -0.156704
C40   C     C_R   0.500509 0.433146 0.815917 -0.156706
C41   C     C_R   0.499594 0.500053 0.147765 0.098583
C42   C     C_R   0.500427 0.499945 0.852235 0.098588
C43   C     C_R   0.499598 0.433259 0.184092 -0.156110
C44   C     C_R   0.500433 0.566739 0.815909 -0.156109
Cu1   Cu    Cu3+1 0.500030 0.426640 0.500000 0.956790
Cu2   Cu    Cu3+1 0.499970 0.573360 0.500000 0.956791
H1    H     H_    0.015969 0.414912 0.500471 0.167246
H2    H     H_    0.984031 0.585088 0.499529 0.167246
H3    H     H_    0.392623 0.316982 0.422454 0.153767
H4    H     H_    0.607376 0.683018 0.577547 0.153765
H5    H     H_    0.499132 0.619238 0.282387 0.161512
H6    H     H_    0.500851 0.380761 0.717612 0.161513
H7    H     H_    0.498282 0.619132 0.157101 0.139121
H8    H     H_    0.501714 0.380867 0.842897 0.139118
H9    H     H_    0.500810 0.380979 0.157126 0.138328
H10   H     H_    0.499234 0.619019 0.842875 0.138324
H11   H     H_    0.499953 0.380872 0.282406 0.159514
H12   H     H_    0.500079 0.619127 0.717595 0.159512
H13   H     H_    0.392023 0.421366 0.062352 0.137657
H14   H     H_    0.608003 0.578632 0.937650 0.137654
H15   H     H_    0.392410 0.421301 0.936866 0.137854
H16   H     H_    0.607614 0.578696 0.063136 0.137857
H17   H     H_    0.609300 0.165489 0.578807 0.200957
H18   H     H_    0.390701 0.834511 0.421191 0.200961
N1    N     N_R   0.500010 0.316380 0.499980 -0.204821
N2    N     N_R   0.499990 0.683620 0.500020 -0.204821
O1    O     O_R   0.500040 0.438020 0.599820 -0.583227
O2    O     O_R   0.499960 0.561980 0.400180 -0.583227
O3    O     O_R   0.500000 0.561930 0.599810 -0.587075
O4    O     O_R   0.500000 0.438070 0.400190 -0.587076
O5    O     O_R   0.637870 0.429290 0.499990 -0.575053
O6    O     O_R   0.362130 0.570710 0.500010 -0.575053
O7    O     O_R   0.637830 0.553200 0.499980 -0.570689
O8    O     O_R   0.362170 0.446800 0.500020 -0.570690
F1    F     F_    0.375806 0.175195 0.412790 -0.662010
F2    F     F_    0.624190 0.824805 0.587211 -0.662013
H19   H     H_    0.510035 0.067472 0.389867 0.219505
H20   H     H_    0.489964 0.932528 0.610132 0.219507
F3    F     F_    0.513236 0.925132 0.376656 -0.649034
F4    F     F_    0.486758 0.074868 0.623343 -0.649032
H21   H     H_    0.607273 0.301538 0.577592 0.144445
H22   H     H_    0.392727 0.698461 0.422408 0.144444

loop_
_geom_bond_atom_site_label_1
_geom_bond_atom_site_label_2
_ccdc_geom_bond_type
C5    C37   A    
C27   C29   A    
C21   H3    S    
C39   C41   A    
C13   N1    A    
Cu1   Cu2   S    
C3    C43   A    
C26   H20   S    
C25   H19   S    
C19   C21   A    
Cu2   N2    S    
C2    O2    A    
C37   H5    S    
C38   H6    S    
C13   H21   S    
C33   C36   S    
C20   F2    S    
C11   C42   S    
C15   C17   A    
C34   C35   S    
C22   N2    A    
Cu2   O3    S    
C1    O1    A    
Cu1   O1    S    
C6    C38   A    
Cu2   O6    S    
C22   H4    S    
C40   C42   A    
C17   C30   S    
C41   C43   A    
C10   H16   S    
C42   C44   A    
C23   O7    A    
C7    H13   S    
C7    C12   A    
C1    C6    S    
C32   C35   T    
C23   O5    A    
C4    C6    A    
C4    C44   A    
C1    O3    A    
Cu1   O8    S    
Cu2   O2    S    
C12   C41   S    
C9    H15   S    
C44   H10   S    
C33   C34   D    
C14   N2    A    
C18   C29   S    
C9    C11   A    
C10   C12   A    
C3    H11   S    
C43   H9    S    
C20   C22   A    
C40   H8    S    
C13   C15   A    
Cu1   N1    S    
C14   C16   A    
C2    C5    S    
C14   H22   S    
C27   F3    S    
Cu1   O5    S    
C24   O6    A    
C25   C30   A    
C7    C9    A    
C21   N1    A    
Cu1   O4    S    
C16   C18   A    
C3    C5    A    
C25   C27   A    
C26   C28   A    
C23   C32   S    
C28   C30   A    
C24   C31   S    
C37   C39   A    
C8    H14   S    
C38   C40   A    
C24   O8    A    
C39   H7    S    
C8    C11   A    
C19   F1    S    
C17   C19   A    
C18   C20   A    
C28   F4    S    
C26   C29   A    
C8    C10   A    
C4    H12   S    
C33   H2    S    
C15   H17   S    
C31   C36   T    
C34   H1    S    
C16   H18   S    
C2    O4    A    
Cu2   O7    S    
