data_mof_unit_37190.cif
_audit_creation_date              2012-12-11T15:13:39-0500
_audit_creation_method            fapswitch 2.2
_symmetry_space_group_name_H-M    P1
_symmetry_Int_Tables_number       1
_space_group_crystal_system       triclinic
_cell_length_a                    6.956967
_cell_length_b                    13.496414
_cell_length_c                    20.116355
_cell_angle_alpha                 104.081309
_cell_angle_beta                  89.826654
_cell_angle_gamma                 90.539062
_cell_volume                      1831.96962852

loop_
_atom_site_label
_atom_site_type_symbol
_atom_type_description
_atom_site_fract_x
_atom_site_fract_y
_atom_site_fract_z
_atom_type_partial_charge
O1    O     O_R   0.506780 0.600060 0.449950 -0.539460
O2    O     O_R   0.179840 0.597110 0.589410 -0.544987
O3    O     O_R   0.004570 0.399940 0.550050 -0.538498
C1    C     C_R   0.348339 0.618895 0.616931 0.678191
O4    O     O_R   0.177380 0.612160 0.452890 -0.541999
O5    O     O_R   0.002100 0.415100 0.412560 -0.536806
C2    C     C_R   0.346713 0.638634 0.436138 0.695261
O6    O     O_R   0.509250 0.584900 0.587440 -0.540503
O7    O     O_3   0.337570 0.435330 0.486930 -0.367671
V1    V     V_3+5 0.064650 0.512000 0.502430 1.419110
O8    O     O_R   0.672090 0.402890 0.410590 -0.544942
C3    C     C_R   0.840873 0.382036 0.382978 0.716881
O9    O     O_R   0.674540 0.387840 0.547110 -0.540767
C4    C     C_R   0.842712 0.360947 0.563546 0.697616
V2    V     V_3+5 0.564040 0.488000 0.497570 1.423520
O10   O     O_3   0.840990 0.564670 0.513070 -0.373018
C5    C     C_R   0.849937 0.106492 0.607712 -0.162256
H1    H     H_    0.842184 0.156053 0.514223 0.104522
H2    H     H_    0.856084 0.980389 0.690125 0.117163
H3    H     H_    0.848295 0.026434 0.580876 0.113002
C6    C     C_R   0.849235 0.283417 0.602986 -0.031695
C7    C     C_R   0.865302 0.319407 0.932859 -0.166097
C8    C     C_R   0.863129 0.396235 0.897823 -0.061744
C9    C     C_R   0.859807 0.371998 0.826428 -0.150655
C10   C     C_R   0.858568 0.268941 0.787871 0.068754
C11   C     C_R   0.860251 0.190468 0.824245 0.070379
C12   C     C_R   0.855878 0.241137 0.714605 0.076930
C13   C     C_R   0.854319 0.135913 0.679630 0.146425
C14   C     C_R   0.856728 0.060678 0.716490 -0.217358
C15   C     C_R   0.859726 0.087299 0.787579 -0.202554
C16   C     C_R   0.854211 0.313973 0.674552 -0.214527
C17   C     C_R   0.846688 0.179901 0.569647 -0.174460
C18   C     C_R   0.863507 0.216903 0.896854 -0.076197
H4    H     H_    0.855405 0.395034 0.697060 0.091502
H5    H     H_    0.868730 0.339916 0.988394 0.107357
H6    H     H_    0.858498 0.435936 0.803229 0.112010
H7    H     H_    0.864479 0.475466 0.926241 0.160078
H8    H     H_    0.861472 0.025876 0.813591 0.113418
C19   C     C_3   0.739424 0.170393 0.247098 -0.122635
C20   C     C_3   0.912812 0.200489 0.295590 0.119434
H9    H     H_    0.646118 0.102738 0.244738 0.156866
C21   C     C_3   0.851221 0.312724 0.312377 -0.103357
C22   C     C_3   0.677357 0.284285 0.264082 -0.060704
C23   C     C_3   0.801739 0.302155 0.203782 -0.195482
C24   C     C_3   0.976126 0.331703 0.252917 -0.210176
C25   C     C_3   0.035766 0.218292 0.236070 0.434343
C26   C     C_3   0.863584 0.189214 0.187542 -0.095166
H10   H     H_    0.532015 0.316069 0.277427 0.172299
H11   H     H_    0.754764 0.343650 0.165392 0.132603
H12   H     H_    0.074851 0.397681 0.255605 0.127377
C27   C     C_3   0.537762 0.725047 0.730120 -0.144815
C28   C     C_3   0.457591 0.835087 0.749588 -0.154517
H13   H     H_    0.540809 0.905713 0.749730 0.112362
H14   H     H_    0.687499 0.704256 0.713545 0.113372
C29   C     C_3   0.357349 0.811284 0.812364 -0.003641
C30   C     C_3   0.437554 0.702069 0.793700 -0.101731
C31   C     C_3   0.255065 0.665249 0.750400 -0.117361
C32   C     C_3   0.174931 0.775308 0.769860 -0.112684
C33   C     C_3   0.275132 0.798258 0.706268 -0.142720
C34   C     C_3   0.355366 0.689007 0.687606 -0.017159
H15   H     H_    0.504290 0.662720 0.830177 0.154029
H16   H     H_    0.171636 0.594681 0.750331 0.111406
H17   H     H_    0.025259 0.796278 0.786444 0.109373
H18   H     H_    0.208446 0.837674 0.669809 0.103394
C35   C     C_R   0.397498 0.891037 0.390773 -0.159907
H19   H     H_    0.393865 0.842126 0.484555 0.101807
H20   H     H_    0.422751 0.015565 0.307915 0.151774
H21   H     H_    0.417905 0.970575 0.417218 0.115911
C36   C     C_R   0.357741 0.715543 0.396309 -0.032869
C37   C     C_R   0.326199 0.678877 0.066057 0.372674
C38   C     C_R   0.310163 0.602992 0.101819 -0.143388
C39   C     C_R   0.320976 0.627161 0.173094 -0.236333
C40   C     C_R   0.348941 0.729249 0.211181 0.089003
C41   C     C_R   0.366476 0.806870 0.174444 -0.000972
C42   C     C_R   0.359613 0.757016 0.284408 0.092290
C43   C     C_R   0.386303 0.861494 0.318969 0.127192
C44   C     C_R   0.402730 0.935869 0.281797 -0.199020
C45   C     C_R   0.394307 0.909045 0.210796 -0.162998
C46   C     C_R   0.345250 0.684921 0.324835 -0.215539
C47   C     C_R   0.383783 0.818340 0.429199 -0.175176
C48   C     C_R   0.354623 0.781050 0.101858 -0.166283
H22   H     H_    0.325810 0.604353 0.302676 0.091863
H23   H     H_    0.306180 0.563886 0.196632 0.126978
H24   H     H_    0.288239 0.524202 0.074153 0.155062
H25   H     H_    0.410117 0.969409 0.184404 0.167497
O11   O     O_R   0.203580 0.914920 0.912610 -0.541793
O12   O     O_R   0.535710 0.887810 0.047120 -0.539437
O13   O     O_R   0.710730 0.084950 0.087430 -0.534817
C49   C     C_R   0.366262 0.860416 0.063256 0.786849
O14   O     O_R   0.533010 0.902850 0.910600 -0.546524
O15   O     O_R   0.708010 0.100090 0.949930 -0.544704
C50   C     C_R   0.364499 0.881171 0.883065 0.711471
O16   O     O_R   0.206300 0.899780 0.050100 -0.528385
O17   O     O_3   0.375170 0.064580 0.013100 -0.363049
V3    V     V_3+5 0.648200 0.988020 0.997570 1.482306
O18   O     O_R   0.038030 0.112330 0.952840 -0.545628
C51   C     C_R   0.869876 0.138877 0.936227 0.669878
O19   O     O_R   0.040730 0.097300 0.089360 -0.514628
C52   C     C_R   0.872178 0.118899 0.116908 0.729259
V4    V     V_3+5 0.148780 0.012220 0.002360 1.513757
O20   O     O_3   0.871930 0.935430 0.986900 -0.371937
Cl1   Cl    Cl    0.270745 0.170869 0.216750 -0.762538
Cl2   Cl    Cl    0.309289 0.643378 0.975917 -0.719695
C53   C     C_3   0.976282 0.142277 0.347532 -0.769264
H26   H     H_    0.013180 0.062762 0.320659 0.230680
H27   H     H_    0.104255 0.180328 0.375785 0.221929
H28   H     H_    0.857800 0.140795 0.384328 0.186074

loop_
_geom_bond_atom_site_label_1
_geom_bond_atom_site_label_2
_ccdc_geom_bond_type
C23   H11   S    
C29   C30   S    
C40   C41   A    
H20   C44   S    
C1    O6    A    
C53   H27   S    
O14   V3    S    
C19   H9    S    
C44   C45   A    
C23   C24   S    
C20   C25   S    
C7    H5    S    
C6    C16   A    
C33   H18   S    
C9    H6    S    
C35   C43   A    
C4    C6    S    
C13   C14   A    
O5    C3    A    
V2    O10   S    
C5    H3    S    
C26   C52   S    
C30   C31   S    
C15   H8    S    
C27   C30   S    
C37   C48   A    
C3    C21   S    
O8    V2    S    
O12   V3    S    
C8    C9    A    
C37   C38   A    
O1    V2    S    
O11   V4    S    
C22   H10   S    
C28   C29   S    
C48   C49   S    
C20   C21   S    
O13   V3    S    
C33   C34   S    
C35   C47   A    
O9    C4    A    
C49   O16   A    
C40   C42   A    
C53   H26   S    
C6    C17   A    
C12   C16   A    
C27   C28   S    
O13   C52   A    
C31   H16   S    
C9    C10   A    
C19   C20   S    
O4    C2    A    
C37   Cl2   S    
C31   C34   S    
C19   C22   S    
C32   C33   S    
C8    H7    S    
O15   C51   A    
C21   C24   S    
O2    C1    A    
C42   C43   A    
C2    C36   S    
C14   C15   A    
C28   C33   S    
C20   C53   S    
C25   Cl1   S    
C11   C18   A    
O14   C50   A    
O17   V4    S    
C35   H21   S    
O18   C51   A    
C1    C34   S    
C16   H4    S    
C30   H15   S    
C43   C44   A    
O16   V4    S    
O3    C4    A    
C45   H25   S    
C29   C50   S    
C11   C15   A    
O6    V2    S    
O19   V4    S    
O12   C49   A    
C22   C23   S    
C36   C46   A    
H1    C17   S    
C21   C22   S    
C41   C48   A    
O2    V1    S    
C28   H13   S    
C19   C26   S    
C38   H24   S    
O7    V1    S    
C32   H17   S    
C7    C18   A    
C25   C26   S    
O1    C2    A    
C5    C13   A    
C39   C40   A    
O5    V1    S    
C46   H22   S    
O8    C3    A    
C23   C26   S    
C10   C12   A    
H19   C47   S    
C27   H14   S    
O9    V2    S    
C10   C11   A    
C38   C39   A    
O3    V1    S    
O11   C50   A    
C31   C32   S    
C24   H12   S    
O18   V4    S    
V4    O20   S    
C18   C51   S    
O7    V2    S    
O17   V3    S    
C39   H23   S    
O15   V3    S    
C24   C25   S    
O4    V1    S    
O19   C52   A    
C41   C45   A    
C29   C32   S    
C12   C13   A    
C5    C17   A    
C7    C8    A    
C36   C47   A    
V1    O10   S    
C27   C34   S    
C42   C46   A    
C53   H28   S    
V3    O20   S    
H2    C14   S    
