data_mof_unit_28901.cif
_audit_creation_date              2012-12-10T16:58:54-0500
_audit_creation_method            fapswitch 2.2
_symmetry_space_group_name_H-M    P1
_symmetry_Int_Tables_number       1
_space_group_crystal_system       triclinic
_cell_length_a                    9.70636
_cell_length_b                    10.91197
_cell_length_c                    17.17831
_cell_angle_alpha                 90.207837
_cell_angle_beta                  85.822229
_cell_angle_gamma                 90.682831
_cell_volume                      1814.47902955

loop_
_atom_site_label
_atom_site_type_symbol
_atom_type_description
_atom_site_fract_x
_atom_site_fract_y
_atom_site_fract_z
_atom_type_partial_charge
C1    C     C_R   0.501463 0.734717 0.499189 0.865722
C2    C     C_R   0.374584 0.532288 0.782029 -0.270049
C3    C     C_R   0.410190 0.505854 0.144511 -0.127116
C4    C     C_R   0.404564 0.507664 0.225311 -0.197356
C5    C     C_R   0.655104 0.502583 0.220733 -0.170627
C6    C     C_R   0.660500 0.500903 0.139361 -0.185073
C7    C     C_R   0.537847 0.498715 0.101352 0.165178
C8    C     C_2   0.459449 0.412345 0.978823 -0.012703
C9    C     C_2   0.542432 0.489146 0.016226 -0.303442
C10   C     C_R   0.526747 0.503973 0.264213 -0.034775
C11   C     C_2   0.609840 0.067894 0.487010 -0.206037
C12   C     C_R   0.481912 0.492533 0.649749 0.817154
C13   C     C_2   0.497581 0.135166 0.476158 -0.179904
C14   C     C_2   0.612438 0.935431 0.474874 0.178445
C15   C     C_2   0.504877 0.866810 0.504227 -0.330673
C16   C     C_2   0.068631 0.495925 0.562625 -0.052620
C17   C     C_2   0.917177 0.522530 0.560888 0.045693
C18   C     C_R   0.499451 0.265399 0.495149 0.841766
C19   C     C_R   0.518121 0.501360 0.349684 0.794877
C20   C     C_R   0.472191 0.469123 0.733530 -0.081922
C21   C     C_R   0.557520 0.381502 0.765595 0.135325
C22   C     C_R   0.547977 0.362326 0.845683 -0.189809
C23   C     C_R   0.455106 0.428996 0.894483 0.043638
C24   C     C_R   0.366434 0.514447 0.862818 0.027647
Cu1   Cu    Cu3+1 0.361370 0.499980 0.499980 0.969909
Cu2   Cu    Cu3+1 0.638630 0.500020 0.500020 1.033267
H1    H     H_    0.759696 0.497648 0.106176 0.134963
H2    H     H_    0.702268 0.110113 0.507821 0.205663
H3    H     H_    0.416801 0.909447 0.535701 0.141173
H4    H     H_    0.108481 0.477496 0.618647 0.154495
H5    H     H_    0.116243 0.542837 0.452936 0.238102
H6    H     H_    0.864380 0.558971 0.613581 0.128121
H7    H     H_    0.304170 0.510849 0.257154 0.168961
H8    H     H_    0.750772 0.501276 0.249441 0.177630
H9    H     H_    0.609587 0.553526 0.982911 0.148405
H10   H     H_    0.314728 0.508314 0.115569 0.150999
H11   H     H_    0.307422 0.598034 0.757144 0.156185
H12   H     H_    0.614681 0.296058 0.870344 0.162157
N1    N     N_2   0.152990 0.501340 0.500850 -0.266593
N2    N     N_2   0.846850 0.501370 0.500880 -0.082883
O1    O     O_R   0.382960 0.678040 0.499990 -0.580335
O2    O     O_R   0.617100 0.678080 0.500010 -0.541459
O3    O     O_R   0.369350 0.500000 0.613580 -0.593222
O4    O     O_R   0.603500 0.500040 0.613610 -0.570368
O5    O     O_R   0.382900 0.321920 0.499990 -0.572095
O6    O     O_R   0.617040 0.321960 0.500010 -0.541996
O7    O     O_R   0.396500 0.499960 0.386390 -0.586851
O8    O     O_R   0.630650 0.500000 0.386420 -0.550535
I1    I     I_    0.697518 0.267753 0.698124 -0.414444
C25   C     C_R   0.379151 0.086674 0.434060 0.113180
C26   C     C_R   0.243604 0.090953 0.468787 -0.118041
C27   C     C_R   0.132672 0.050434 0.427609 -0.086817
C28   C     C_R   0.156090 0.004557 0.351782 -0.077938
C29   C     C_R   0.290499 0.998942 0.317048 -0.152680
C30   C     C_R   0.401673 0.040422 0.357713 -0.122291
H13   H     H_    0.223884 0.125630 0.527643 0.146385
H14   H     H_    0.028546 0.055053 0.454510 0.169614
H15   H     H_    0.070208 0.973524 0.319794 0.156628
H16   H     H_    0.308384 0.963064 0.258431 0.123355
H17   H     H_    0.505121 0.037460 0.329555 0.149409
I2    I     I_    0.788943 0.867731 0.408116 -0.428552
I3    I     I_    0.918915 0.373854 0.415575 -0.304398
C31   C     C_R   0.264160 0.584877 0.912378 0.105997
C32   C     C_R   0.122293 0.561360 0.908196 -0.172253
C33   C     C_R   0.025232 0.626175 0.955815 -0.129874
C34   C     C_R   0.069077 0.715946 0.007061 -0.112563
C35   C     C_R   0.209961 0.741642 0.010330 -0.138672
C36   C     C_R   0.307262 0.676942 0.962853 -0.128447
H18   H     H_    0.087135 0.491766 0.868859 0.132495
H19   H     H_    0.916059 0.606710 0.953058 0.125481
H20   H     H_    0.993895 0.766011 0.043923 0.124928
H21   H     H_    0.243834 0.811850 0.049534 0.126809
H22   H     H_    0.415812 0.699228 0.965134 0.128753
C37   C     C_R   0.385347 0.305299 0.017084 0.134232
C38   C     C_R   0.249482 0.275566 0.999921 -0.148710
C39   C     C_R   0.180155 0.175215 0.035672 -0.126575
C40   C     C_R   0.246226 0.102569 0.088066 -0.110580
C41   C     C_R   0.382284 0.129396 0.104179 -0.139827
C42   C     C_R   0.451922 0.229636 0.068629 -0.122395
H23   H     H_    0.196510 0.330227 0.959417 0.133213
H24   H     H_    0.075108 0.153717 0.022676 0.131181
H25   H     H_    0.192314 0.025082 0.115782 0.115132
H26   H     H_    0.434230 0.072221 0.143946 0.124828
H27   H     H_    0.558133 0.247492 0.080925 0.136402

loop_
_geom_bond_atom_site_label_1
_geom_bond_atom_site_label_2
_ccdc_geom_bond_type
Cu1   O3    S    
C21   I1    S    
Cu2   O4    S    
C40   C41   A    
C13   C18   S    
C40   H25   S    
C35   H21   S    
C12   O3    A    
C3    C7    A    
C5    C6    A    
C11   C14   S    
C19   O7    A    
C4    H7    S    
C16   H4    S    
C33   H19   S    
C22   H12   S    
C8    C23   S    
N2    I3    S    
C26   H13   S    
C31   C36   A    
C41   H26   S    
C6    H1    S    
C8    C9    D    
C23   C24   A    
C1    C15   S    
C38   H23   S    
Cu1   O7    S    
Cu2   O8    S    
C34   C35   A    
C30   H17   S    
C18   O6    A    
C15   H3    S    
C29   H16   S    
C37   C38   A    
C2    C20   A    
C26   C27   A    
C39   C40   A    
Cu1   O1    S    
C41   C42   A    
C16   C17   S    
C36   H22   S    
C28   C29   A    
C14   I2    S    
C35   C36   A    
C17   N2    D    
C38   C39   A    
C34   H20   S    
C14   C15   D    
C10   C19   S    
C5    H8    S    
C12   C20   S    
C8    C37   S    
C25   C26   A    
C32   H18   S    
C1    O1    A    
C24   C31   S    
C37   C42   A    
C2    C24   A    
C11   H2    S    
C4    C10   A    
C3    C4    A    
C18   O5    A    
Cu1   O5    S    
C27   C28   A    
Cu2   O2    S    
C7    C9    S    
C29   C30   A    
C19   O8    A    
C39   H24   S    
C28   H15   S    
C6    C7    A    
C25   C30   A    
C32   C33   A    
Cu1   Cu2   S    
C5    C10   A    
C12   O4    A    
Cu1   N1    S    
C11   C13   D    
C2    H11   S    
Cu2   N2    S    
C42   H27   S    
C3    H10   S    
C13   C25   S    
H5    N1    S    
C27   H14   S    
Cu2   O6    S    
C16   N1    D    
C31   C32   A    
C1    O2    A    
C20   C21   A    
C33   C34   A    
C9    H9    S    
C17   H6    S    
C22   C23   A    
C21   C22   A    
