data_mof_unit_38062.cif
_audit_creation_date              2012-12-10T17:52:00-0500
_audit_creation_method            fapswitch 2.2
_symmetry_space_group_name_H-M    P1
_symmetry_Int_Tables_number       1
_space_group_crystal_system       triclinic
_cell_length_a                    14.668309
_cell_length_b                    14.695824
_cell_length_c                    19.351589
_cell_angle_alpha                 77.291675
_cell_angle_beta                  102.337676
_cell_angle_gamma                 114.665197
_cell_volume                      3662.90885799

loop_
_atom_site_label
_atom_site_type_symbol
_atom_type_description
_atom_site_fract_x
_atom_site_fract_y
_atom_site_fract_z
_atom_type_partial_charge
C1    C     C_R   0.880381 0.312489 0.511060 0.802863
C2    C     C_R   0.119637 0.687702 0.488005 0.787031
C3    C     C_R   0.812811 0.205920 0.510267 -0.053167
C4    C     C_R   0.186928 0.795380 0.481089 -0.046290
C5    C     C_R   0.781168 0.036499 0.494283 -0.198590
C6    C     C_R   0.215816 0.971811 0.472010 -0.184993
C7    C     C_R   0.848928 0.134248 0.504033 -0.169840
C8    C     C_R   0.149372 0.870759 0.474106 -0.198674
C9    C     C_R   0.708959 0.178507 0.508353 -0.243022
C10   C     C_R   0.290818 0.822330 0.483319 -0.248535
C11   C     C_R   0.638551 0.081735 0.495314 0.092640
C12   C     C_R   0.359215 0.923969 0.479317 0.089815
C13   C     C_R   0.676554 0.009594 0.489918 0.162280
C14   C     C_R   0.320322 0.998714 0.475898 0.166137
C15   C     C_R   0.531963 0.054888 0.487380 0.066659
C16   C     C_R   0.465216 0.952807 0.481134 0.065360
C17   C     C_R   0.506402 0.883475 0.475474 -0.210074
C18   C     C_R   0.489810 0.127127 0.483555 -0.218161
C19   C     C_R   0.609940 0.911808 0.479314 -0.224887
C20   C     C_R   0.386001 0.099396 0.477171 -0.226673
C21   C     C_R   0.721842 0.676933 0.387229 0.386353
C22   C     C_R   0.279754 0.325210 0.614735 0.385360
C23   C     C_R   0.999069 0.500130 0.632495 0.862390
C24   C     C_R   0.000094 0.498374 0.367785 0.888576
C25   C     C_R   0.800610 0.642625 0.403168 -0.035354
C26   C     C_R   0.198944 0.356673 0.596259 -0.022383
C27   C     C_R   0.713087 0.507326 0.487851 -0.016282
C28   C     C_R   0.288282 0.494502 0.513889 -0.049579
C29   C     C_R   0.628737 0.535592 0.473000 -0.092812
C30   C     C_R   0.371901 0.465239 0.527833 -0.090323
C31   C     C_R   0.634853 0.622531 0.421591 0.047483
C32   C     C_R   0.365469 0.377860 0.578843 0.046342
C33   C     C_R   0.540293 0.482249 0.508185 0.117768
C34   C     C_R   0.459919 0.518018 0.492110 0.114623
C35   C     C_R   0.469860 0.604783 0.440452 -0.262860
C36   C     C_R   0.529295 0.394055 0.558558 -0.254554
C37   C     C_R   0.555116 0.655408 0.406036 -0.173939
C38   C     C_R   0.444193 0.343627 0.593182 -0.176825
C39   C     C_R   0.062066 0.465679 0.761304 -0.348919
C40   C     C_R   0.964495 0.560367 0.239560 -0.348476
C41   C     C_R   0.060059 0.460879 0.834077 0.457823
C42   C     C_R   0.963479 0.561413 0.167125 0.465114
C43   C     C_R   0.993984 0.494069 0.854391 -0.194179
C44   C     C_R   0.007465 0.504391 0.146390 -0.213084
C45   C     C_R   0.925659 0.525246 0.802394 0.344368
C46   C     C_R   0.052326 0.446360 0.199462 0.382008
C47   C     C_R   0.928547 0.530779 0.729407 0.336566
C48   C     C_R   0.046605 0.440347 0.272216 0.360361
C49   C     C_R   0.996170 0.499107 0.708561 -0.259033
C50   C     C_R   0.003428 0.498889 0.292192 -0.266521
C51   C     C_R   0.001682 0.501170 0.069835 0.445611
C52   C     C_R   0.995847 0.496126 0.929984 0.495788
Cu1   Cu    Cu3+1 0.081740 0.475680 0.518680 0.937431
Cu2   Cu    Cu3+1 0.918260 0.524320 0.481320 0.945810
H1    H     H_    0.116152 0.443795 0.746163 0.192581
H2    H     H_    0.932832 0.606864 0.254469 0.197458
H3    H     H_    0.558534 0.721851 0.367149 0.189782
H4    H     H_    0.440229 0.276499 0.631450 0.191956
H5    H     H_    0.285536 0.558379 0.475166 0.134978
H6    H     H_    0.717099 0.445261 0.528088 0.152535
H7    H     H_    0.130645 0.314251 0.620822 0.143106
H8    H     H_    0.867340 0.682659 0.376587 0.147278
H9    H     H_    0.412889 0.636268 0.425006 0.124478
H10   H     H_    0.585028 0.360936 0.572419 0.135259
H11   H     H_    0.637980 0.856414 0.474137 0.143669
H12   H     H_    0.357050 0.157164 0.474452 0.156797
H13   H     H_    0.316931 0.762016 0.490704 0.147325
H14   H     H_    0.685265 0.234600 0.517308 0.140093
H15   H     H_    0.069152 0.851465 0.472152 0.146395
H16   H     H_    0.929037 0.154439 0.504663 0.160824
H17   H     H_    0.810672 0.982808 0.488360 0.126088
H18   H     H_    0.185654 0.028903 0.468386 0.137111
H19   H     H_    0.460417 0.807144 0.465510 0.138753
H20   H     H_    0.534630 0.206806 0.483214 0.146354
N1    N     N_R   0.005159 0.581664 0.951618 -0.189655
N2    N     N_R   0.990518 0.415115 0.047746 -0.191866
N3    N     N_R   0.008436 0.584244 0.020391 -0.175371
N4    N     N_R   0.988202 0.412747 0.979089 -0.227101
N5    N     N_R   0.795420 0.560800 0.453240 -0.210085
N6    N     N_R   0.204580 0.439200 0.546760 -0.205044
O1    O     O_R   0.977910 0.338110 0.524620 -0.586666
O2    O     O_R   0.022090 0.661890 0.475380 -0.596750
O3    O     O_R   0.839850 0.379180 0.493080 -0.587515
O4    O     O_R   0.160150 0.620820 0.506920 -0.588673
O5    O     O_R   0.069040 0.479450 0.615630 -0.587536
O6    O     O_R   0.930960 0.520550 0.384370 -0.581257
O7    O     O_R   0.930990 0.520520 0.584090 -0.539974
O8    O     O_R   0.069010 0.479480 0.415910 -0.572423
O9    O     O_3   0.727945 0.760948 0.336245 -0.579088
C53   C     C_3   0.796817 0.848458 0.365647 -0.332221
H21   H     H_    0.875936 0.853479 0.372570 0.158389
H22   H     H_    0.777361 0.851276 0.417468 0.143810
H23   H     H_    0.792731 0.915993 0.328102 0.208933
O10   O     O_3   0.271543 0.238471 0.663262 -0.586468
C54   C     C_3   0.283302 0.260609 0.732721 -0.337099
H24   H     H_    0.219218 0.277639 0.740202 0.150425
H25   H     H_    0.356773 0.324307 0.745070 0.163435
H26   H     H_    0.283513 0.193002 0.771818 0.200467
O11   O     O_3   0.129483 0.433662 0.885492 -0.558102
C55   C     C_3   0.107576 0.329993 0.888142 -0.267030
H27   H     H_    0.128106 0.316260 0.840441 0.138437
H28   H     H_    0.026596 0.282200 0.893830 0.164037
H29   H     H_    0.154057 0.305949 0.935843 0.193715
O12   O     O_3   0.921467 0.620765 0.116624 -0.543931
C56   C     C_3   0.815549 0.567494 0.105810 -0.253674
H30   H     H_    0.781739 0.555562 0.154999 0.155640
H31   H     H_    0.794802 0.493719 0.087522 0.150956
H32   H     H_    0.782226 0.613303 0.063191 0.195720
O13   O     O_3   0.857840 0.554029 0.822693 -0.556364
C57   C     C_3   0.766215 0.468840 0.829111 -0.260508
H33   H     H_    0.731349 0.440536 0.776976 0.179107
H34   H     H_    0.777359 0.407145 0.870556 0.145578
H35   H     H_    0.712127 0.491485 0.846191 0.184794
O14   O     O_3   0.096266 0.389408 0.181182 -0.544794
C58   C     C_3   0.191800 0.454046 0.159598 -0.291614
H36   H     H_    0.233674 0.518982 0.190163 0.121356
H37   H     H_    0.239397 0.409364 0.168413 0.187401
H38   H     H_    0.183815 0.483352 0.101668 0.195612
O15   O     O_3   0.859482 0.559870 0.679144 -0.588997
C59   C     C_3   0.896452 0.666630 0.665749 0.118490
H39   H     H_    0.967566 0.698070 0.641093 0.126753
H40   H     H_    0.911436 0.699002 0.715919 0.175141
C60   C     C_3   0.816633 0.697837 0.613945 -0.313712
H41   H     H_    0.805408 0.671490 0.562146 0.224745
H42   H     H_    0.743528 0.661673 0.636088 0.234526
C61   C     C_3   0.847924 0.812236 0.600759 -0.948461
H43   H     H_    0.861506 0.841474 0.651864 0.272711
H44   H     H_    0.785829 0.830391 0.565225 0.251280
H45   H     H_    0.917603 0.849744 0.574535 0.252953
O16   O     O_3   0.068171 0.365784 0.322110 -0.581797
C62   C     C_3   0.173957 0.393701 0.341829 0.135819
H46   H     H_    0.192958 0.407663 0.397979 0.169010
H47   H     H_    0.221439 0.463982 0.309659 0.102667
C63   C     C_3   0.201942 0.305648 0.338285 -0.318802
H48   H     H_    0.158389 0.237356 0.373780 0.216013
H49   H     H_    0.181585 0.287661 0.282871 0.259669
C64   C     C_3   0.314910 0.330640 0.361567 -0.946034
H50   H     H_    0.360500 0.401026 0.328815 0.265860
H51   H     H_    0.333434 0.267636 0.354435 0.262017
H52   H     H_    0.335238 0.340351 0.418844 0.265792

loop_
_geom_bond_atom_site_label_1
_geom_bond_atom_site_label_2
_ccdc_geom_bond_type
C15   C18   A    
C61   H43   S    
C5    H17   S    
C27   C29   A    
C22   O10   S    
C2    O4    A    
C54   H24   S    
C4    C8    A    
C62   C63   S    
C7    H16   S    
O14   C58   S    
C54   H26   S    
C60   H41   S    
C39   C41   A    
C21   O9    S    
C10   H13   S    
C6    H18   S    
C64   H51   S    
C8    H15   S    
C22   C32   A    
Cu1   O4    S    
C20   H12   S    
C35   C37   A    
C26   H7    S    
N2    N4    A    
C27   N5    A    
C27   H6    S    
Cu2   O7    S    
C45   O13   S    
C43   C52   S    
C23   C49   S    
C1    O1    A    
C15   C16   A    
C29   C33   A    
C33   C36   A    
Cu1   O1    S    
C34   C35   A    
C57   H33   S    
O12   C56   S    
C38   H4    S    
C11   C15   A    
C39   H1    S    
C12   C16   A    
C59   H40   S    
C16   C17   A    
C58   H37   S    
C41   O11   S    
C32   C38   A    
C5    C13   A    
C59   C60   S    
C52   N1    A    
C47   O15   S    
C18   H20   S    
C23   O7    A    
C17   H19   S    
Cu1   O5    S    
C41   C43   A    
C48   O16   S    
C42   C44   A    
C63   C64   S    
C52   N4    A    
Cu2   O3    S    
C56   H32   S    
C44   C46   A    
C45   C47   A    
C24   C50   S    
C64   H52   S    
C46   C48   A    
C30   C34   A    
C14   C20   A    
Cu1   N6    S    
C51   N2    A    
C47   C49   A    
Cu2   O6    S    
C13   C19   A    
C60   C61   S    
C6    C8    A    
C61   H45   S    
C40   H2    S    
Cu1   Cu2   S    
C55   H29   S    
C26   N6    A    
C31   C37   A    
C1    C3    S    
C2    C4    S    
C51   N3    A    
C3    C9    A    
C6    C14   A    
C56   H31   S    
C53   H22   S    
O11   C55   S    
C58   H38   S    
C21   C31   A    
C55   H28   S    
C33   C34   A    
C48   C50   A    
N1    N3    A    
C57   H35   S    
C10   C12   A    
C44   C51   S    
C39   C49   A    
C12   C14   A    
C9    C11   A    
C23   O5    A    
C2    O2    A    
C4    C10   A    
C62   H46   S    
Cu2   O2    S    
C59   H39   S    
C53   H23   S    
C5    C7    A    
Cu2   N5    S    
C56   H30   S    
C28   H5    S    
C21   C25   A    
C61   H44   S    
C25   N5    A    
C24   O8    A    
C46   O14   S    
C62   H47   S    
C42   O12   S    
C63   H49   S    
O15   C59   S    
C54   H25   S    
C63   H48   S    
C1    O3    A    
C64   H50   S    
C3    C7    A    
C36   C38   A    
O16   C62   S    
C9    H14   S    
C28   C30   A    
C43   C45   A    
O13   C57   S    
C30   C32   A    
C11   C13   A    
C53   H21   S    
C40   C50   A    
C40   C42   A    
C55   H27   S    
C17   C19   A    
C19   H11   S    
Cu1   O8    S    
C18   C20   A    
C25   H8    S    
O10   C54   S    
C28   N6    A    
C57   H34   S    
C60   H42   S    
C29   C31   A    
C22   C26   A    
C35   H9    S    
O9    C53   S    
C36   H10   S    
C24   O6    A    
C37   H3    S    
C58   H36   S    
