data_mof_unit_64881.cif
_audit_creation_date              2012-12-10T19:02:12-0500
_audit_creation_method            fapswitch 2.2
_symmetry_space_group_name_H-M    P1
_symmetry_Int_Tables_number       1
_space_group_crystal_system       triclinic
_cell_length_a                    13.366198
_cell_length_b                    14.260372
_cell_length_c                    16.807852
_cell_angle_alpha                 90.009676
_cell_angle_beta                  85.678286
_cell_angle_gamma                 90.008964
_cell_volume                      3194.58418954

loop_
_atom_site_label
_atom_site_type_symbol
_atom_type_description
_atom_site_fract_x
_atom_site_fract_y
_atom_site_fract_z
_atom_type_partial_charge
C1    C     C_R   0.500008 0.673458 0.499959 0.935621
C2    C     C_1   0.169415 0.500007 0.499985 0.068294
C3    C     C_1   0.950475 0.500009 0.500005 -0.045337
C4    C     C_1   0.049525 0.500011 0.499995 -0.045121
C5    C     C_R   0.487193 0.498304 0.655603 0.902126
C6    C     C_R   0.512729 0.502091 0.344250 0.891880
C7    C     C_R   0.479667 0.507687 0.741679 -0.072950
C8    C     C_R   0.519706 0.537100 0.262921 -0.063031
C9    C     C_R   0.565585 0.496005 0.783246 -0.245295
C10   C     C_R   0.438564 0.587534 0.236257 -0.242899
C11   C     C_R   0.561811 0.513259 0.864732 0.051699
C12   C     C_R   0.499994 0.326537 0.499988 0.928533
C13   C     C_R   0.444886 0.626455 0.160374 0.036285
C14   C     C_R   0.471074 0.544882 0.904370 0.133640
C15   C     C_R   0.532328 0.612096 0.109766 0.130960
C16   C     C_R   0.384290 0.551952 0.863270 -0.169610
C17   C     C_R   0.616022 0.568182 0.138632 -0.156186
C18   C     C_R   0.388461 0.533583 0.782073 -0.198540
C19   C     C_R   0.609864 0.530877 0.215235 -0.202915
C20   C     C_2   0.462371 0.565583 0.989363 -0.214898
C21   C     C_2   0.529536 0.618771 0.023522 -0.214310
C22   C     C_1   0.359909 0.677672 0.134411 0.147881
C23   C     C_1   0.500017 0.774098 0.499906 -0.223735
C24   C     C_1   0.650471 0.494167 0.906191 0.138633
C25   C     C_1   0.499984 0.225888 0.499968 -0.225665
C26   C     C_1   0.500012 0.858658 0.499880 -0.000824
C27   C     C_1   0.499984 0.141325 0.499940 -0.002120
C28   C     C_1   0.500000 0.957712 0.499881 0.013823
C29   C     C_1   0.499991 0.042269 0.499902 0.013332
C30   C     C_1   0.830585 0.500005 0.500016 0.069801
H1    H     H_    0.635574 0.473615 0.752107 0.159685
H2    H     H_    0.370384 0.597001 0.274666 0.162350
H3    H     H_    0.674151 0.494915 0.236362 0.154417
H4    H     H_    0.321302 0.542226 0.750542 0.159590
H5    H     H_    0.592161 0.650488 0.988331 0.163861
H6    H     H_    0.401243 0.532163 0.025199 0.163491
H7    H     H_    0.313786 0.573649 0.893838 0.148432
H8    H     H_    0.683507 0.556805 0.099972 0.157391
N1    N     N_1   0.738130 0.500000 0.500020 -0.064263
N2    N     N_1   0.261870 0.500000 0.499980 -0.065184
N3    N     N_1   0.291874 0.718658 0.113591 -0.196352
N4    N     N_1   0.721565 0.478713 0.939220 -0.213021
O1    O     O_R   0.423530 0.626280 0.499990 -0.595526
O2    O     O_R   0.576470 0.373720 0.500010 -0.595063
O3    O     O_R   0.576470 0.626280 0.500010 -0.590720
O4    O     O_R   0.423530 0.373720 0.499990 -0.592206
O5    O     O_R   0.414510 0.500000 0.615790 -0.611839
O6    O     O_R   0.585490 0.500000 0.384210 -0.606152
O7    O     O_R   0.567420 0.500000 0.615810 -0.609483
O8    O     O_R   0.432580 0.500000 0.384190 -0.609985
Zn1   Zn    Zn3+2 0.397910 0.500000 0.499990 0.968895
Zn2   Zn    Zn3+2 0.602090 0.500000 0.500010 0.972615

loop_
_geom_bond_atom_site_label_1
_geom_bond_atom_site_label_2
_ccdc_geom_bond_type
O2    Zn2   S    
C30   N1    T    
C3    C30   S    
C2    C4    S    
C10   C13   A    
C15   C17   A    
C21   H5    S    
C10   H2    S    
C25   C27   T    
N2    Zn1   S    
C5    O5    A    
C12   C25   S    
C26   C28   S    
C15   C21   S    
C16   H7    S    
C9    C11   A    
C7    C18   A    
C1    O3    A    
O7    Zn2   S    
N1    Zn2   S    
C12   O2    A    
C6    O8    A    
C18   H4    S    
O1    Zn1   S    
C6    O6    A    
C8    C10   A    
C28   C29   T    
C17   C19   A    
C13   C22   S    
C1    C23   S    
C5    C7    S    
C17   H8    S    
C13   C15   A    
C11   C14   A    
C14   C16   A    
C5    O7    A    
C22   N3    T    
C27   C29   S    
C9    H1    S    
C3    C4    T    
C8    C19   A    
C2    N2    T    
C11   C24   S    
O6    Zn2   S    
C24   N4    T    
C20   C21   D    
C14   C20   S    
C16   C18   A    
C19   H3    S    
C23   C26   T    
C7    C9    A    
C6    C8    S    
O3    Zn2   S    
O8    Zn1   S    
O4    Zn1   S    
C1    O1    A    
O5    Zn1   S    
C12   O4    A    
C20   H6    S    
