data_mof_unit_41443.cif
_audit_creation_date              2013-03-05T15:59:41-0500
_audit_creation_method            fapswitch 2.2
_symmetry_space_group_name_H-M    P1
_symmetry_Int_Tables_number       1
_space_group_crystal_system       triclinic
_cell_length_a                    18.395431
_cell_length_b                    25.913878
_cell_length_c                    18.271403
_cell_angle_alpha                 90.44931
_cell_angle_beta                  90.177261
_cell_angle_gamma                 90.015427
_cell_volume                      8709.61229921

loop_
_atom_site_label
_atom_site_type_symbol
_atom_site_description
_atom_site_fract_x
_atom_site_fract_y
_atom_site_fract_z
_atom_type_partial_charge
Zn1   Zn    Zn3+2 0.500000 0.706650 0.586810 0.965686
Zn2   Zn    Zn3+2 0.500000 0.293350 0.413190 0.905629
Zn3   Zn    Zn3+2 0.500000 0.706650 0.413190 0.927556
Zn4   Zn    Zn3+2 0.500000 0.293350 0.586810 0.924760
Zn5   Zn    Zn3+2 0.000000 0.206650 0.086810 0.923560
Zn6   Zn    Zn3+2 0.000000 0.793350 0.913190 0.940844
Zn7   Zn    Zn3+2 0.000000 0.206650 0.913190 0.927473
Zn8   Zn    Zn3+2 0.000000 0.793350 0.086810 0.915532
Zn9   Zn    Zn3+2 0.586710 0.793420 0.500000 0.957708
Zn10  Zn    Zn3+2 0.413290 0.206580 0.500000 0.969421
Zn11  Zn    Zn3+2 0.413290 0.793420 0.500000 0.951737
Zn12  Zn    Zn3+2 0.586710 0.206580 0.500000 0.994646
Zn13  Zn    Zn3+2 0.086710 0.293420 0.000000 0.940938
Zn14  Zn    Zn3+2 0.913290 0.706580 0.000000 0.981951
Zn15  Zn    Zn3+2 0.913290 0.293420 0.000000 0.985965
Zn16  Zn    Zn3+2 0.086710 0.706580 0.000000 0.966381
O1    O     O_3   0.500000 0.750040 0.500000 -0.488671
O2    O     O_3   0.500000 0.249960 0.500000 -0.484923
O3    O     O_3   0.000000 0.250040 0.000000 -0.481411
O4    O     O_3   0.000000 0.749960 0.000000 -0.492871
O5    O     O_R   0.585420 0.719700 0.353880 -0.663038
O6    O     O_R   0.414580 0.280300 0.646120 -0.660723
O7    O     O_R   0.414580 0.719700 0.646120 -0.608609
O8    O     O_R   0.585420 0.280300 0.353880 -0.674897
O9    O     O_R   0.585420 0.280300 0.646120 -0.674694
O10   O     O_R   0.414580 0.719700 0.353880 -0.662561
O11   O     O_R   0.414580 0.280300 0.353880 -0.676654
O12   O     O_R   0.585420 0.719700 0.646120 -0.658133
O13   O     O_R   0.085420 0.219700 0.853880 -0.645117
O14   O     O_R   0.914580 0.780300 0.146120 -0.677943
O15   O     O_R   0.914580 0.219700 0.146120 -0.676667
O16   O     O_R   0.085420 0.780300 0.853880 -0.629157
O17   O     O_R   0.085420 0.780300 0.146120 -0.652703
O18   O     O_R   0.914580 0.219700 0.853880 -0.677701
O19   O     O_R   0.914580 0.780300 0.853880 -0.655891
O20   O     O_R   0.085420 0.219700 0.146120 -0.662391
O21   O     O_R   0.646120 0.780390 0.585510 -0.641213
O22   O     O_R   0.353880 0.219610 0.414490 -0.613871
O23   O     O_R   0.353880 0.780390 0.414490 -0.601532
O24   O     O_R   0.646120 0.219610 0.585510 -0.601363
O25   O     O_R   0.646120 0.219610 0.414490 -0.577902
O26   O     O_R   0.353880 0.780390 0.585510 -0.670377
O27   O     O_R   0.353880 0.219610 0.585510 -0.626796
O28   O     O_R   0.646120 0.780390 0.414490 -0.615420
O29   O     O_R   0.146120 0.280390 0.085510 -0.648250
O30   O     O_R   0.853880 0.719610 0.914490 -0.614421
O31   O     O_R   0.853880 0.280390 0.914490 -0.618384
O32   O     O_R   0.146120 0.719610 0.085510 -0.584673
O33   O     O_R   0.146120 0.719610 0.914490 -0.661198
O34   O     O_R   0.853880 0.280390 0.085510 -0.580523
O35   O     O_R   0.853880 0.719610 0.085510 -0.597170
O36   O     O_R   0.146120 0.280390 0.914490 -0.648332
O37   O     O_R   0.560660 0.865840 0.500000 -0.654444
O38   O     O_R   0.439340 0.134160 0.500000 -0.663264
O39   O     O_R   0.439340 0.865840 0.500000 -0.634668
O40   O     O_R   0.560660 0.134160 0.500000 -0.647367
O41   O     O_R   0.060660 0.365840 0.000000 -0.674495
O42   O     O_R   0.939340 0.634160 0.000000 -0.640666
O43   O     O_R   0.939340 0.365840 0.000000 -0.626649
O44   O     O_R   0.060660 0.634160 0.000000 -0.648726
O45   O     O_R   0.500000 0.634240 0.439310 -0.652393
O46   O     O_R   0.500000 0.365760 0.560690 -0.653435
O47   O     O_R   0.500000 0.634240 0.560690 -0.645524
O48   O     O_R   0.500000 0.365760 0.439310 -0.651793
O49   O     O_R   1.000000 0.134240 0.939310 -0.650943
O50   O     O_R   1.000000 0.865760 0.060690 -0.652733
O51   O     O_R   0.000000 0.134240 0.060690 -0.654756
O52   O     O_R   0.000000 0.865760 0.939310 -0.655983
C1    C     C_R   0.639372 0.750356 0.359197 0.904069
C2    C     C_R   0.359949 0.250197 0.640465 0.907703
C3    C     C_R   0.359543 0.749645 0.639525 0.899216
C4    C     C_R   0.639154 0.249333 0.358456 0.860621
C5    C     C_R   0.639467 0.249943 0.640563 0.896609
C6    C     C_R   0.360328 0.750258 0.359003 0.867089
C7    C     C_R   0.360612 0.249359 0.359506 0.892281
C8    C     C_R   0.639834 0.750362 0.640105 0.905086
C9    C     C_R   0.140029 0.249467 0.860207 0.924279
C10   C     C_R   0.860751 0.749787 0.140862 0.893326
C11   C     C_R   0.857282 0.246920 0.137011 0.849181
C12   C     C_R   0.140442 0.750315 0.860490 0.889944
C13   C     C_R   0.139991 0.750568 0.139726 0.881025
C14   C     C_R   0.860855 0.250334 0.859053 0.896981
C15   C     C_R   0.860298 0.749745 0.859838 0.877573
C16   C     C_R   0.139579 0.250434 0.140399 0.927570
C17   C     C_R   0.499999 0.889900 0.499747 0.816978
C18   C     C_R   0.500069 0.110013 0.500145 0.829859
C19   C     C_R   0.000069 0.389927 0.000224 0.814983
C20   C     C_R   0.999781 0.610040 0.999960 0.839467
C21   C     C_R   0.499989 0.609934 0.499248 0.801985
C22   C     C_R   0.503970 0.390402 0.500316 0.818698
C23   C     C_R   0.999990 0.109823 0.999920 0.778820
C24   C     C_R   0.000275 0.890094 0.999971 0.793709
C25   C     C_R   0.431940 0.539515 0.382555 0.143793
C26   C     C_R   0.535242 0.459510 0.634912 0.136749
C27   C     C_R   0.606397 0.551487 0.596962 0.139367
C28   C     C_R   0.522979 0.452875 0.362741 0.165826
C29   C     C_R   0.955162 0.043591 0.868948 0.171533
C30   C     C_R   0.944125 0.956522 0.126371 0.173969
C31   C     C_R   0.037984 0.042649 0.132706 0.157875
C32   C     C_R   0.046085 0.956083 0.870112 0.140643
C33   C     C_R   0.433891 0.513564 0.312822 0.106369
C34   C     C_R   0.589536 0.479427 0.682345 0.085571
C35   C     C_R   0.627170 0.525424 0.662612 0.159317
C36   C     C_R   0.479462 0.469292 0.303426 0.118013
C37   C     C_R   0.975645 0.020472 0.800883 0.142936
C38   C     C_R   0.959322 0.980247 0.195558 0.113516
C39   C     C_R   0.013623 0.019780 0.199227 0.115773
C40   C     C_R   0.024632 0.977389 0.801580 0.080765
C41   C     C_R   0.508511 0.473767 0.432532 -0.016317
C42   C     C_R   0.550924 0.529076 0.552137 -0.043138
C43   C     C_R   0.533960 0.477122 0.562493 0.008123
C44   C     C_R   0.482959 0.524031 0.436901 -0.001295
C45   C     C_R   0.010844 0.974358 0.934078 0.018072
C46   C     C_R   0.006727 0.025119 0.066129 -0.022969
C47   C     C_R   0.982191 0.974532 0.064348 -0.040224
C48   C     C_R   0.987762 0.025202 0.933878 -0.045828
C49   C     C_R   0.515313 0.447049 0.499478 -0.119618
C50   C     C_R   0.510423 0.554283 0.496451 -0.105241
C51   C     C_R   0.997540 0.946283 0.999399 -0.121011
C52   C     C_R   0.998547 0.053433 0.000018 -0.135682
C53   C     C_R   0.323098 0.759039 0.768317 0.464078
C54   C     C_R   0.752345 0.213978 0.304237 0.480690
C55   C     C_R   0.767886 0.743770 0.324132 0.451446
C56   C     C_R   0.280520 0.202715 0.725695 0.470975
C57   C     C_R   0.235972 0.269941 0.320990 0.464973
C58   C     C_R   0.765420 0.733005 0.678655 0.475035
C59   C     C_R   0.767902 0.258457 0.675378 0.463083
C60   C     C_R   0.256846 0.793416 0.296295 0.460278
C61   C     C_R   0.731055 0.269339 0.174590 0.448732
C62   C     C_R   0.176701 0.739808 0.731654 0.458648
C63   C     C_R   0.216895 0.296038 0.774335 0.465812
C64   C     C_R   0.732324 0.757683 0.175667 0.453831
C65   C     C_R   0.737720 0.774087 0.818614 0.491577
C66   C     C_R   0.265527 0.234597 0.178238 0.465174
C67   C     C_R   0.235888 0.706444 0.207533 0.473908
C68   C     C_R   0.733114 0.240842 0.823036 0.461835
C69   C     C_R   0.676465 0.270292 0.228013 0.008680
C70   C     C_R   0.229305 0.740075 0.675903 -0.007769
C71   C     C_R   0.274362 0.297422 0.724176 -0.009416
C72   C     C_R   0.676542 0.757574 0.228027 -0.011029
C73   C     C_R   0.681874 0.773566 0.765904 -0.012803
C74   C     C_R   0.317703 0.227650 0.233515 -0.013758
C75   C     C_R   0.298798 0.709586 0.249820 -0.028432
C76   C     C_R   0.676814 0.243679 0.771342 -0.011466
C77   C     C_R   0.270609 0.758715 0.824052 -0.015869
C78   C     C_R   0.796179 0.203766 0.243603 -0.002863
C79   C     C_R   0.824031 0.746538 0.272422 -0.009230
C80   C     C_R   0.230062 0.201968 0.783452 -0.026375
C81   C     C_R   0.179089 0.267593 0.269352 -0.014212
C82   C     C_R   0.818405 0.727883 0.733696 -0.024547
C83   C     C_R   0.824099 0.256974 0.727613 -0.015438
C84   C     C_R   0.210962 0.797116 0.235496 -0.019609
C85   C     C_R   0.690240 0.245593 0.296543 -0.269479
C86   C     C_R   0.302800 0.749315 0.695138 -0.226306
C87   C     C_R   0.304008 0.250415 0.697412 -0.238608
C88   C     C_R   0.695023 0.750399 0.302466 -0.228013
C89   C     C_R   0.695980 0.751728 0.696368 -0.236811
C90   C     C_R   0.304422 0.249188 0.303352 -0.235361
C91   C     C_R   0.304829 0.750754 0.301320 -0.263987
C92   C     C_R   0.695223 0.250855 0.697018 -0.234599
C93   C     C_R   0.197005 0.750094 0.804751 -0.228131
C94   C     C_R   0.794343 0.239423 0.185395 -0.295589
C95   C     C_R   0.805208 0.751009 0.197494 -0.237744
C96   C     C_R   0.195903 0.248701 0.804364 -0.258524
C97   C     C_R   0.195339 0.251415 0.197065 -0.234770
C98   C     C_R   0.804514 0.749734 0.803334 -0.247579
C99   C     C_R   0.805536 0.249665 0.801984 -0.230054
C100  C     C_R   0.195778 0.751551 0.195496 -0.266900
C101  C     C_R   0.524720 0.972269 0.436773 0.102659
C102  C     C_R   0.475894 0.027401 0.563153 0.091678
C103  C     C_R   0.475656 0.972843 0.562975 0.113817
C104  C     C_R   0.525564 0.026851 0.437161 0.111960
C105  C     C_R   0.987813 0.472171 0.933307 0.094245
C106  C     C_R   0.008855 0.527746 0.067315 0.113834
C107  C     C_R   0.011610 0.473124 0.067020 0.100184
C108  C     C_R   0.985677 0.526803 0.933677 0.093213
C109  C     C_R   0.500286 0.053708 0.500065 -0.105332
C110  C     C_R   0.499985 0.946060 0.499766 -0.117158
C111  C     C_R   0.998677 0.553731 0.000235 -0.101594
C112  C     C_R   0.000616 0.446164 0.000046 -0.123316
C113  C     C_3   0.683661 0.549262 0.714274 -0.446280
C114  C     C_3   0.649186 0.590180 0.763712 -0.844256
H1    H     H_    0.624486 0.621448 0.730723 0.274049
H2    H     H_    0.606443 0.572563 0.798284 0.257997
H3    H     H_    0.691448 0.607381 0.799963 0.253250
H4    H     H_    0.710516 0.520142 0.749034 0.216377
H5    H     H_    0.729444 0.566750 0.684218 0.218765
C115  C     C_3   0.476087 0.435290 0.234539 -0.449902
C116  C     C_3   0.435790 0.385052 0.249891 -0.849116
H6    H     H_    0.466519 0.361454 0.289666 0.300622
H7    H     H_    0.380810 0.393319 0.272089 0.250922
H8    H     H_    0.429589 0.362500 0.198343 0.234579
H9    H     H_    0.447894 0.453388 0.188006 0.227982
H10   H     H_    0.531084 0.426408 0.213411 0.191526
C117  C     C_3   0.395631 0.536138 0.246329 -0.423077
C118  C     C_3   0.450905 0.560620 0.194491 -0.877072
H11   H     H_    0.479894 0.592419 0.223297 0.268159
H12   H     H_    0.492305 0.532709 0.175124 0.255855
H13   H     H_    0.422501 0.576294 0.145815 0.255663
H14   H     H_    0.362393 0.506410 0.217818 0.205930
H15   H     H_    0.356581 0.566658 0.260172 0.185107
C119  C     C_3   0.609059 0.449029 0.750728 -0.412347
C120  C     C_3   0.673066 0.412829 0.735815 -0.879765
H16   H     H_    0.657589 0.383625 0.693718 0.264146
H17   H     H_    0.721271 0.434343 0.716158 0.247666
H18   H     H_    0.688092 0.392343 0.786830 0.255944
H19   H     H_    0.620921 0.475019 0.797770 0.214322
H20   H     H_    0.563397 0.424457 0.769143 0.197741
C121  C     C_3   0.044024 0.038293 0.272610 -0.406882
C122  C     C_3   0.007403 0.088060 0.297976 -0.898533
H21   H     H_    0.011261 0.118263 0.255376 0.268979
H22   H     H_    0.949432 0.080694 0.310405 0.260255
H23   H     H_    0.034348 0.102523 0.348581 0.254296
H24   H     H_    0.038109 0.008690 0.315571 0.212949
H25   H     H_    0.103388 0.044759 0.270000 0.216446
C123  C     C_3   0.048166 0.950172 0.731240 -0.386684
C124  C     C_3   0.107772 0.979630 0.691050 -0.889661
H26   H     H_    0.085391 0.014141 0.663808 0.263655
H27   H     H_    0.151656 0.991757 0.729335 0.256710
H28   H     H_    0.131767 0.954362 0.648123 0.248207
H29   H     H_    0.068418 0.910702 0.742854 0.207433
H30   H     H_    0.001067 0.942844 0.694628 0.190877
C125  C     C_3   0.946481 0.043174 0.729600 -0.393165
C126  C     C_3   0.979691 0.096036 0.713738 -0.880509
H31   H     H_    0.975250 0.122639 0.761357 0.271795
H32   H     H_    0.037816 0.091892 0.699342 0.254395
H33   H     H_    0.951105 0.113714 0.666557 0.247519
H34   H     H_    0.956430 0.018393 0.681290 0.209945
H35   H     H_    0.886552 0.046877 0.731727 0.206147
C127  C     C_3   0.918807 0.963027 0.263966 -0.402014
C128  C     C_3   0.949931 0.913105 0.294871 -0.913854
H36   H     H_    0.005014 0.920038 0.317636 0.255953
H37   H     H_    0.914594 0.899179 0.339746 0.254901
H38   H     H_    0.952910 0.882568 0.252051 0.270916
H39   H     H_    0.919466 0.993042 0.307394 0.214412
H40   H     H_    0.860202 0.957497 0.252556 0.212892
C129  C     C_3   0.365583 0.571975 0.404669 -0.414206
C130  C     C_3   0.333355 0.556612 0.478682 -0.908773
H41   H     H_    0.326279 0.514081 0.481326 0.263385
H42   H     H_    0.367880 0.569725 0.524912 0.256941
H43   H     H_    0.279262 0.575029 0.485586 0.249715
H44   H     H_    0.377676 0.613789 0.404165 0.225201
H45   H     H_    0.319829 0.565771 0.366279 0.188464
C131  C     C_3   0.464569 0.441479 0.669519 -0.368426
C132  C     C_3   0.395371 0.459269 0.629708 -0.871729
H46   H     H_    0.347033 0.452267 0.664288 0.241480
H47   H     H_    0.397880 0.501342 0.618940 0.264115
H48   H     H_    0.387665 0.437904 0.577459 0.250797
H49   H     H_    0.465245 0.399169 0.675230 0.250195
H50   H     H_    0.460367 0.458288 0.725499 0.184238
C133  C     C_3   0.655995 0.593311 0.566196 -0.334050
C134  C     C_3   0.723811 0.569203 0.531735 -0.941084
H51   H     H_    0.748122 0.539035 0.566918 0.259903
H52   H     H_    0.709596 0.551382 0.478131 0.257399
H53   H     H_    0.765319 0.599461 0.522828 0.256022
H54   H     H_    0.630655 0.616537 0.522833 0.191869
H55   H     H_    0.671522 0.621656 0.609248 0.226898
C135  C     C_3   0.593936 0.423716 0.347568 -0.368594
C136  C     C_3   0.654824 0.432330 0.403835 -0.885512
H56   H     H_    0.661424 0.474094 0.416058 0.262803
H57   H     H_    0.644149 0.411025 0.455035 0.246302
H58   H     H_    0.706863 0.417524 0.381269 0.240087
H59   H     H_    0.583663 0.382026 0.341501 0.240756
H60   H     H_    0.616868 0.437426 0.295073 0.187682
C137  C     C_3   0.883889 0.073480 0.875604 -0.351569
C138  C     C_3   0.818981 0.036583 0.874433 -0.956316
H61   H     H_    0.767690 0.058973 0.878493 0.249832
H62   H     H_    0.817382 0.013233 0.823344 0.259493
H63   H     H_    0.822137 0.009973 0.921693 0.264618
H64   H     H_    0.880102 0.094915 0.928067 0.198108
H65   H     H_    0.877767 0.102593 0.831964 0.218572
C139  C     C_3   0.875142 0.924711 0.114449 -0.355782
C140  C     C_3   0.809302 0.959963 0.104141 -0.953458
H66   H     H_    0.759392 0.936220 0.097876 0.245272
H67   H     H_    0.802051 0.986530 0.151418 0.262767
H68   H     H_    0.816187 0.983412 0.054020 0.266687
H69   H     H_    0.877720 0.900465 0.064494 0.194495
H70   H     H_    0.865584 0.897652 0.160105 0.215964
C141  C     C_3   0.109544 0.072370 0.130076 -0.332568
C142  C     C_3   0.174327 0.035391 0.132515 -0.935898
H71   H     H_    0.225690 0.057865 0.134514 0.260100
H72   H     H_    0.172387 0.009875 0.180894 0.259737
H73   H     H_    0.174733 0.010768 0.082510 0.266992
H74   H     H_    0.115874 0.094114 0.078628 0.211894
H75   H     H_    0.113180 0.101250 0.175062 0.222067
C143  C     C_3   0.118297 0.926757 0.876702 -0.376790
C144  C     C_3   0.166275 0.946822 0.939449 -0.920266
H76   H     H_    0.221971 0.930869 0.934016 0.252093
H77   H     H_    0.169944 0.989606 0.937905 0.268380
H78   H     H_    0.144620 0.934660 0.993195 0.255763
H79   H     H_    0.110228 0.884701 0.881926 0.235987
H80   H     H_    0.151475 0.931771 0.826779 0.212860
O53   O     O_3   0.395185 0.768660 0.785741 -0.599538
C145  C     C_3   0.409891 0.821706 0.776257 -0.352657
H81   H     H_    0.362351 0.847386 0.786675 0.150424
H82   H     H_    0.430751 0.828462 0.720186 0.171988
H83   H     H_    0.452701 0.833218 0.815922 0.194358
O54   O     O_3   0.767830 0.189703 0.369677 -0.584448
C146  C     C_3   0.816562 0.221123 0.409786 -0.234107
H84   H     H_    0.828190 0.202289 0.462858 0.216315
H85   H     H_    0.792484 0.259644 0.421956 0.151246
H86   H     H_    0.869127 0.225685 0.380535 0.125469
O55   O     O_3   0.784605 0.734670 0.396818 -0.620847
C147  C     C_3   0.776580 0.681408 0.410646 -0.306107
H87   H     H_    0.718920 0.672088 0.422606 0.171998
H88   H     H_    0.809260 0.671720 0.459617 0.200705
H89   H     H_    0.796564 0.656328 0.365161 0.147584
O56   O     O_3   0.315131 0.157540 0.704265 -0.617526
C148  C     C_3   0.271224 0.130004 0.653554 -0.287124
H90   H     H_    0.294314 0.133423 0.597818 0.208249
H91   H     H_    0.213082 0.142298 0.651649 0.152401
H92   H     H_    0.272781 0.088458 0.667756 0.162531
O57   O     O_3   0.223020 0.287938 0.391344 -0.601652
C149  C     C_3   0.241691 0.340709 0.394927 -0.346971
H93   H     H_    0.300374 0.346986 0.383531 0.161699
H94   H     H_    0.231048 0.355078 0.451225 0.188947
H95   H     H_    0.208043 0.363958 0.356851 0.166486
O58   O     O_3   0.780534 0.717610 0.607593 -0.627139
C150  C     C_3   0.817543 0.757960 0.571485 -0.249929
H96   H     H_    0.778388 0.780922 0.538925 0.232997
H97   H     H_    0.857566 0.740754 0.533211 0.192206
H98   H     H_    0.848607 0.784531 0.608419 0.118603
O59   O     O_3   0.784338 0.265692 0.602155 -0.606582
C151  C     C_3   0.774940 0.318331 0.585053 -0.348098
H99   H     H_    0.716433 0.328859 0.583348 0.152240
H100  H     H_    0.797557 0.325220 0.529796 0.178495
H101  H     H_    0.804255 0.344241 0.623954 0.165459
O60   O     O_3   0.261039 0.834517 0.344907 -0.576666
C152  C     C_3   0.208489 0.826867 0.400123 -0.257361
H102  H     H_    0.220096 0.791637 0.432434 0.158923
H103  H     H_    0.152525 0.823806 0.377408 0.140546
H104  H     H_    0.209861 0.860394 0.438215 0.179890
O61   O     O_3   0.723397 0.299806 0.113034 -0.607845
C153  C     C_3   0.697479 0.268951 0.054554 -0.181918
H105  H     H_    0.734847 0.236356 0.042237 0.173653
H106  H     H_    0.693838 0.293363 0.005115 0.222793
H107  H     H_    0.642241 0.253775 0.065560 0.125902
O62   O     O_3   0.104553 0.730138 0.714291 -0.603398
C154  C     C_3   0.089673 0.677289 0.725451 -0.351377
H108  H     H_    0.076903 0.670109 0.783851 0.155977
H109  H     H_    0.134630 0.651400 0.707459 0.159840
H110  H     H_    0.041202 0.666582 0.692573 0.190666
O63   O     O_3   0.174720 0.339817 0.786903 -0.625186
C155  C     C_3   0.202337 0.369539 0.846105 -0.257735
H111  H     H_    0.238542 0.347937 0.884085 0.155835
H112  H     H_    0.155766 0.384175 0.878642 0.196973
H113  H     H_    0.231561 0.403808 0.825258 0.161216
O64   O     O_3   0.715220 0.763672 0.102292 -0.580667
C156  C     C_3   0.723715 0.816068 0.083356 -0.269218
H114  H     H_    0.691535 0.823371 0.033146 0.219406
H115  H     H_    0.781509 0.824660 0.071057 0.148277
H116  H     H_    0.703474 0.843246 0.126182 0.131524
O65   O     O_3   0.725807 0.797255 0.886165 -0.600333
C157  C     C_3   0.759000 0.846529 0.888147 -0.336458
H117  H     H_    0.766910 0.864314 0.833317 0.150472
H118  H     H_    0.812157 0.844188 0.916826 0.172674
H119  H     H_    0.723930 0.873102 0.920222 0.174887
O66   O     O_3   0.279818 0.218491 0.107254 -0.609151
C158  C     C_3   0.315063 0.259024 0.070209 -0.313183
H120  H     H_    0.280949 0.294394 0.068315 0.182288
H121  H     H_    0.325156 0.246537 0.012923 0.185610
H122  H     H_    0.368481 0.268659 0.095411 0.138693
O67   O     O_3   0.219351 0.661394 0.169646 -0.575101
C159  C     C_3   0.185880 0.626949 0.218504 -0.376607
H123  H     H_    0.133160 0.642698 0.238446 0.159207
H124  H     H_    0.222025 0.617556 0.265550 0.145675
H125  H     H_    0.174489 0.590287 0.188927 0.192475
O68   O     O_3   0.717058 0.229229 0.895010 -0.633063
C160  C     C_3   0.727965 0.175866 0.905920 -0.381993
H126  H     H_    0.700796 0.164607 0.957483 0.179868
H127  H     H_    0.786724 0.167129 0.911962 0.163338
H128  H     H_    0.704174 0.151664 0.861306 0.174430
C161  C     C_3   0.604930 0.297032 0.208581 -0.280147
C162  C     C_3   0.543210 0.258130 0.198612 -0.884915
H129  H     H_    0.553362 0.233038 0.150279 0.234030
H130  H     H_    0.537509 0.232953 0.246892 0.265118
H131  H     H_    0.491333 0.279033 0.189944 0.239938
H132  H     H_    0.591004 0.327294 0.248664 0.205869
H133  H     H_    0.608019 0.319134 0.157027 0.223646
C163  C     C_3   0.206110 0.730120 0.596781 -0.333797
C164  C     C_3   0.232222 0.677748 0.567935 -0.902346
H134  H     H_    0.292287 0.676255 0.563941 0.251888
H135  H     H_    0.213495 0.646238 0.604052 0.258019
H136  H     H_    0.209576 0.670975 0.512271 0.235921
H137  H     H_    0.146088 0.731104 0.590681 0.239542
H138  H     H_    0.226147 0.761370 0.561058 0.205006
C165  C     C_3   0.308545 0.349230 0.708671 -0.302227
C166  C     C_3   0.365029 0.361235 0.768546 -0.885617
H139  H     H_    0.372711 0.403420 0.774173 0.235361
H140  H     H_    0.347852 0.347025 0.822857 0.241719
H141  H     H_    0.417582 0.342249 0.756032 0.271110
H142  H     H_    0.333166 0.351104 0.653514 0.203729
H143  H     H_    0.266566 0.379937 0.707705 0.215483
C167  C     C_3   0.598130 0.765165 0.203518 -0.329481
C168  C     C_3   0.567623 0.817549 0.227402 -0.905752
H144  H     H_    0.563206 0.820526 0.287757 0.251070
H145  H     H_    0.602666 0.849286 0.207464 0.255487
H146  H     H_    0.512362 0.822576 0.203915 0.244741
H147  H     H_    0.592430 0.762351 0.143143 0.248399
H148  H     H_    0.564141 0.733587 0.224959 0.219146
C169  C     C_3   0.609944 0.800049 0.782294 -0.318434
C170  C     C_3   0.606846 0.853576 0.747679 -0.925541
H149  H     H_    0.654012 0.877240 0.765612 0.267036
H150  H     H_    0.606824 0.850656 0.687098 0.261681
H151  H     H_    0.556527 0.873842 0.764732 0.233726
H152  H     H_    0.563811 0.776190 0.762189 0.226952
H153  H     H_    0.601496 0.804478 0.842164 0.247382
C171  C     C_3   0.382427 0.192639 0.218899 -0.343596
C172  C     C_3   0.358107 0.136430 0.211471 -0.832226
H154  H     H_    0.334708 0.122920 0.263931 0.254938
H155  H     H_    0.316898 0.131760 0.167446 0.285847
H156  H     H_    0.405419 0.111864 0.197188 0.238120
H157  H     H_    0.410528 0.204088 0.168037 0.222687
H158  H     H_    0.423225 0.194529 0.263538 0.179278
C173  C     C_3   0.360631 0.673350 0.229989 -0.311974
C174  C     C_3   0.419158 0.702556 0.187977 -0.830214
H159  H     H_    0.397110 0.715416 0.134455 0.252262
H160  H     H_    0.437548 0.737131 0.218919 0.268359
H161  H     H_    0.466491 0.677119 0.177508 0.236038
H162  H     H_    0.382823 0.653230 0.278207 0.217987
H163  H     H_    0.342021 0.641952 0.193003 0.241421
C175  C     C_3   0.598126 0.239083 0.796853 -0.322961
C176  C     C_3   0.562792 0.188230 0.773226 -0.869101
H164  H     H_    0.555128 0.186277 0.713115 0.250467
H165  H     H_    0.596369 0.155001 0.790844 0.252078
H166  H     H_    0.508382 0.184957 0.798946 0.249617
H167  H     H_    0.594240 0.241723 0.857382 0.234570
H168  H     H_    0.565547 0.272109 0.776800 0.214188
C177  C     C_3   0.294172 0.768196 0.903213 -0.307958
C178  C     C_3   0.269958 0.821018 0.931798 -0.913697
H169  H     H_    0.290307 0.851989 0.895641 0.257055
H170  H     H_    0.209942 0.823626 0.935244 0.248978
H171  H     H_    0.292443 0.827449 0.987602 0.245001
H172  H     H_    0.273273 0.737362 0.939207 0.223355
H173  H     H_    0.354147 0.766176 0.909268 0.243607
C179  C     C_3   0.840780 0.154064 0.242597 -0.297271
C180  C     C_3   0.793479 0.106061 0.253758 -0.882469
H174  H     H_    0.772187 0.104049 0.310338 0.299798
H175  H     H_    0.747227 0.105931 0.214502 0.250407
H176  H     H_    0.826470 0.070795 0.243850 0.232575
H177  H     H_    0.867322 0.146675 0.189475 0.233195
H178  H     H_    0.883242 0.156298 0.285677 0.213702
C181  C     C_3   0.902877 0.745086 0.298769 -0.314330
C182  C     C_3   0.940932 0.694429 0.279508 -0.889984
H179  H     H_    0.996074 0.694162 0.304418 0.236748
H180  H     H_    0.909856 0.661267 0.301262 0.252735
H181  H     H_    0.947261 0.689815 0.219568 0.249527
H182  H     H_    0.933773 0.778163 0.276557 0.212399
H183  H     H_    0.906482 0.750197 0.359050 0.231535
C183  C     C_3   0.219438 0.152855 0.827645 -0.317239
C184  C     C_3   0.156608 0.119430 0.799435 -0.803088
H184  H     H_    0.134373 0.095981 0.844840 0.248513
H185  H     H_    0.112341 0.143437 0.776639 0.276633
H186  H     H_    0.175511 0.092368 0.756340 0.233074
H187  H     H_    0.270032 0.129431 0.827992 0.226912
H188  H     H_    0.209631 0.162900 0.886029 0.176182
C185  C     C_3   0.101982 0.281129 0.292604 -0.331011
C186  C     C_3   0.075208 0.331537 0.259328 -0.903788
H189  H     H_    0.116111 0.362668 0.266312 0.254607
H190  H     H_    0.062807 0.326506 0.200336 0.248229
H191  H     H_    0.024411 0.343424 0.287357 0.242137
H192  H     H_    0.064348 0.249272 0.277443 0.209399
H193  H     H_    0.097942 0.284924 0.353017 0.244128
C187  C     C_3   0.888063 0.698213 0.717215 -0.302747
C188  C     C_3   0.872076 0.641947 0.696725 -0.873565
H194  H     H_    0.829982 0.625826 0.733391 0.258535
H195  H     H_    0.852616 0.638652 0.639359 0.291246
H196  H     H_    0.922319 0.618503 0.701866 0.230237
H197  H     H_    0.917947 0.716918 0.671897 0.219613
H198  H     H_    0.925755 0.697894 0.764644 0.185230
C189  C     C_3   0.902926 0.262025 0.702757 -0.330579
C190  C     C_3   0.937093 0.313465 0.725669 -0.861945
H199  H     H_    0.906005 0.345994 0.702040 0.243780
H200  H     H_    0.939072 0.317977 0.785996 0.249979
H201  H     H_    0.993690 0.315345 0.704890 0.258995
H202  H     H_    0.935892 0.229551 0.723915 0.218393
H203  H     H_    0.907538 0.258802 0.642346 0.238779
C191  C     C_3   0.189666 0.850322 0.207577 -0.283110
C192  C     C_3   0.122464 0.872693 0.244894 -0.799606
H204  H     H_    0.081596 0.842268 0.256111 0.267156
H205  H     H_    0.137866 0.892172 0.296931 0.245186
H206  H     H_    0.097343 0.902167 0.208939 0.245937
H207  H     H_    0.235809 0.877561 0.215412 0.205591
H208  H     H_    0.180589 0.849147 0.147448 0.179913
C193  C     C_3   0.546517 0.941689 0.368245 -0.387058
C194  C     C_3   0.628597 0.932162 0.365214 -0.848361
H209  H     H_    0.642714 0.913460 0.312271 0.240483
H210  H     H_    0.659641 0.968704 0.370310 0.246009
H211  H     H_    0.646021 0.906302 0.409974 0.289886
H212  H     H_    0.518268 0.903892 0.365066 0.190106
H213  H     H_    0.528066 0.961434 0.317862 0.207028
C195  C     C_3   0.455618 0.057863 0.632210 -0.388259
C196  C     C_3   0.522968 0.069866 0.678227 -0.892930
H214  H     H_    0.552929 0.033928 0.691473 0.256996
H215  H     H_    0.559818 0.096265 0.648389 0.265013
H216  H     H_    0.506189 0.088697 0.730233 0.261824
H217  H     H_    0.427495 0.094404 0.619164 0.234803
H218  H     H_    0.415641 0.037378 0.666449 0.218544
C197  C     C_3   0.451509 0.942876 0.630631 -0.395814
C198  C     C_3   0.368967 0.935567 0.632076 -0.853611
H219  H     H_    0.340147 0.973068 0.628799 0.243589
H220  H     H_    0.350810 0.911031 0.585520 0.288939
H221  H     H_    0.353079 0.916378 0.683714 0.231815
H222  H     H_    0.477672 0.904372 0.633505 0.182050
H223  H     H_    0.469966 0.962064 0.681819 0.206486
C199  C     C_3   0.551719 0.056990 0.370405 -0.399394
C200  C     C_3   0.488138 0.076619 0.324661 -0.912929
H224  H     H_    0.454345 0.043798 0.304940 0.264397
H225  H     H_    0.453573 0.103516 0.356742 0.267982
H226  H     H_    0.509595 0.097639 0.276619 0.248053
H227  H     H_    0.586775 0.089830 0.386943 0.228483
H228  H     H_    0.587538 0.034133 0.334204 0.216010
C201  C     C_3   0.976416 0.441008 0.862642 -0.380095
C202  C     C_3   0.895716 0.434434 0.844880 -0.834880
H229  H     H_    0.868699 0.411237 0.887767 0.279344
H230  H     H_    0.868011 0.472168 0.841139 0.267022
H231  H     H_    0.889334 0.414207 0.791580 0.234089
H232  H     H_    0.005949 0.458090 0.816044 0.188653
H233  H     H_    0.000886 0.401978 0.865896 0.192211
C203  C     C_3   0.012901 0.559198 0.138565 -0.412417
C204  C     C_3   0.937909 0.579003 0.161737 -0.859999
H234  H     H_    0.924767 0.615740 0.134134 0.265993
H235  H     H_    0.894646 0.550495 0.148579 0.269568
H236  H     H_    0.937554 0.586293 0.221655 0.236843
H237  H     H_    0.035821 0.537488 0.184860 0.204466
H238  H     H_    0.050521 0.592349 0.132338 0.202959
C205  C     C_3   0.024050 0.442929 0.137654 -0.394272
C206  C     C_3   0.953716 0.436953 0.180976 -0.848797
H239  H     H_    0.910599 0.419615 0.145890 0.273578
H240  H     H_    0.963045 0.411329 0.228316 0.238018
H241  H     H_    0.934787 0.474574 0.202589 0.268500
H242  H     H_    0.045562 0.403789 0.126689 0.201672
H243  H     H_    0.067632 0.460235 0.171825 0.184348
C207  C     C_3   0.967335 0.557611 0.864805 -0.401150
C208  C     C_3   0.888641 0.577395 0.865826 -0.793024
H244  H     H_    0.859931 0.567088 0.917104 0.274220
H245  H     H_    0.887919 0.620025 0.860338 0.260482
H246  H     H_    0.857451 0.560588 0.819343 0.222034
H247  H     H_    0.005408 0.590714 0.859924 0.168561
H248  H     H_    0.975639 0.535964 0.813296 0.201878

loop_
_geom_bond_atom_site_label_1
_geom_bond_atom_site_label_2
_geom_bond_distance
_ccdc_geom_bond_type
C104  C109  1.418636 A    
Zn6   O16   1.939817 S    
C28   C135  1.533321 S    
C105  C201  1.531344 S    
Zn7   O13   1.942631 S    
C108  C207  1.532317 S    
C185  C186  1.526277 S    
C125  C126  1.529907 S    
Zn5   O51   1.932535 S    
O34   C11   1.286136 A    
C42   C50   1.422311 A    
C46   C47   1.386402 A    
C113  H5    1.105805 S    
C180  H174  1.108229 S    
C120  H17   1.109491 S    
C5    C92   1.452450 S    
C129  H44   1.106234 S    
C80   C183  1.525419 S    
C24   C51   1.457073 S    
C200  H225  1.108974 S    
C38   C39   1.431679 A    
Zn5   O20   1.934230 S    
C107  C205  1.531118 S    
C26   C43   1.403198 A    
C140  H68   1.110567 S    
C131  C132  1.536829 S    
C198  H219  1.109073 S    
O23   C6    1.280627 A    
C195  H218  1.105363 S    
C42   C43   1.396395 A    
C103  C197  1.531919 S    
C147  H89   1.114344 S    
Zn2   O48   1.932535 S    
C151  H99   1.110788 S    
C139  H70   1.108367 S    
C67   C100  1.400919 A    
C144  H77   1.111336 S    
C103  C110  1.416550 A    
C127  H40   1.106466 S    
C76   C92   1.414287 A    
C61   O61   1.386056 S    
C70   C163  1.526063 S    
C160  H128  1.113106 S    
C29   C37   1.427883 A    
C70   C86   1.415716 A    
C132  H46   1.108150 S    
C74   C90   1.410771 A    
O11   C7    1.280842 A    
C104  C199  1.532175 S    
O68   C160  1.412950 S    
C176  H166  1.110549 S    
C55   C88   1.407371 A    
C205  H242  1.105879 S    
C15   C98   1.453374 S    
C130  H42   1.106528 S    
C53   C86   1.407930 A    
O59   C151  1.412364 S    
C22   C49   1.482855 S    
Zn16  O33   1.941156 S    
C176  H165  1.109047 S    
C131  H49   1.102245 S    
C25   C33   1.436584 A    
C57   C90   1.406665 A    
C149  H93   1.112201 S    
O61   C153  1.411227 S    
C38   C127  1.526831 S    
C114  H3    1.110752 S    
Zn12  O24   1.931424 S    
C137  H64   1.106495 S    
C165  H143  1.109182 S    
C84   C191  1.524714 S    
O16   C12   1.282168 A    
C78   C94   1.414668 A    
C34   C119  1.524280 S    
O40   C18   1.278107 A    
O55   C147  1.412882 S    
C191  H208  1.110934 S    
Zn16  O4    1.951641 S    
C66   C97   1.405708 A    
C69   C85   1.432619 A    
C151  H101  1.112101 S    
C142  H71   1.110128 S    
C169  H153  1.110431 S    
C57   C81   1.407758 A    
C72   C88   1.414612 A    
C39   C121  1.525062 S    
C6    C91   1.465214 S    
C73   C89   1.411599 A    
Zn7   O3    1.937050 S    
C207  H247  1.111581 S    
C28   C36   1.413646 A    
C164  H134  1.108216 S    
O54   C146  1.410599 S    
C165  C166  1.536443 S    
C62   C70   1.407241 A    
C31   C39   1.429632 A    
C179  C180  1.533162 S    
C20   C111  1.459384 S    
C180  H176  1.111143 S    
C74   C171  1.520127 S    
O49   C23   1.279743 A    
C187  H198  1.108235 S    
C35   C113  1.528711 S    
Zn3   O10   1.937349 S    
C135  H60   1.109927 S    
C118  H11   1.109795 S    
C136  H57   1.108019 S    
O42   C20   1.275635 A    
C117  H15   1.097167 S    
C28   C41   1.407611 A    
C30   C38   1.428177 A    
O33   C12   1.276406 A    
Zn10  O22   1.935808 S    
C174  H159  1.111118 S    
O35   C10   1.279491 A    
C65   C98   1.409154 A    
Zn13  O29   1.935806 S    
C153  H107  1.109005 S    
C133  H54   1.101202 S    
C77   C93   1.415340 A    
C63   C96   1.402347 A    
Zn10  O2    1.951147 S    
C206  H241  1.105714 S    
C83   C99   1.416294 A    
O64   C156  1.412557 S    
O52   C24   1.270888 A    
C65   O65   1.386351 S    
Zn3   O1    1.937050 S    
C128  H38   1.109901 S    
C54   C78   1.395931 A    
C137  H65   1.107500 S    
C194  H209  1.110123 S    
C178  H170  1.108076 S    
C64   C95   1.408694 A    
C167  C168  1.529957 S    
C187  C188  1.530732 S    
C25   C44   1.424257 A    
C117  C118  1.532471 S    
C198  H220  1.108621 S    
C48   C52   1.421098 A    
C61   C69   1.402699 A    
C26   C34   1.415056 A    
C132  H48   1.108539 S    
C158  H120  1.111668 S    
C207  C208  1.535974 S    
O37   C17   1.278411 A    
C172  H154  1.110992 S    
C102  C195  1.530297 S    
C76   C175  1.526979 S    
C134  H51   1.109390 S    
C150  H97   1.108323 S    
C156  H114  1.107831 S    
C53   O53   1.384904 S    
C202  H230  1.105297 S    
C188  H196  1.110306 S    
C31   C46   1.415491 A    
Zn4   O9    1.937347 S    
O44   C20   1.282353 A    
C177  C178  1.528220 S    
Zn6   O19   1.934232 S    
C193  C194  1.531116 S    
C66   O66   1.385322 S    
C208  H246  1.109621 S    
Zn13  O41   1.937023 S    
C102  C103  1.413796 A    
C82   C98   1.412688 A    
C32   C143  1.535446 S    
O32   C13   1.275095 A    
C194  H211  1.108044 S    
Zn16  O44   1.936773 S    
C193  H212  1.109704 S    
C116  H7    1.111118 S    
C106  C107  1.416365 A    
C59   C83   1.405522 A    
C114  H1    1.110170 S    
C31   C141  1.526031 S    
C60   C84   1.396994 A    
C25   C129  1.535938 S    
C166  H139  1.106189 S    
C164  H136  1.110537 S    
C185  H192  1.110163 S    
C75   C173  1.518094 S    
C59   O59   1.386699 S    
C184  H186  1.107203 S    
C9    C96   1.450538 S    
C67   C75   1.391514 A    
C10   C95   1.456602 S    
C129  C130  1.533628 S    
C181  H183  1.110090 S    
C152  H103  1.111390 S    
C116  H6    1.107364 S    
C118  H13   1.109896 S    
C27   C35   1.432125 A    
C188  H194  1.109210 S    
O43   C19   1.279526 A    
C148  H91   1.116593 S    
C36   C115  1.531842 S    
C8    C89   1.455204 S    
C32   C40   1.427037 A    
C1    C88   1.459126 S    
C186  H189  1.109373 S    
C106  C203  1.532103 S    
C2    C87   1.465665 S    
C80   C96   1.414951 A    
C174  H161  1.108420 S    
C81   C97   1.415420 A    
C190  H199  1.108346 S    
O38   C18   1.280599 A    
C153  H105  1.111273 S    
C206  H239  1.110898 S    
O50   C24   1.280425 A    
C124  H26   1.105850 S    
C3    C86   1.459051 S    
O41   C19   1.277608 A    
O5    C1    1.274095 A    
C182  H179  1.110541 S    
C162  H131  1.108994 S    
C71   C165  1.511535 S    
O53   C145  1.413036 S    
Zn4   O6    1.942632 S    
C71   C87   1.418812 A    
C141  C142  1.530156 S    
O47   C21   1.282937 A    
C121  C122  1.524751 S    
C163  H138  1.107830 S    
C172  H156  1.109028 S    
C204  H235  1.110255 S    
C138  H62   1.108749 S    
C134  H53   1.107595 S    
C115  H9    1.102463 S    
C156  H116  1.113657 S    
C122  H22   1.107833 S    
C119  H19   1.108913 S    
C175  C176  1.527837 S    
C54   C85   1.413328 A    
C56   O56   1.387044 S    
O8    C4    1.276316 A    
C143  H79   1.104775 S    
C170  H149  1.109508 S    
C58   C89   1.404377 A    
Zn9   O1    1.951146 S    
C199  H227  1.107178 S    
C171  H157  1.107289 S    
C155  H112  1.109496 S    
O60   C152  1.414448 S    
C138  H63   1.110665 S    
C113  H4    1.105722 S    
C107  C112  1.418247 A    
C68   C99   1.406935 A    
C122  H23   1.110266 S    
Zn1   O1    1.951436 S    
C159  H125  1.108918 S    
C73   C169  1.520263 S    
C43   C49   1.426168 A    
C202  H229  1.109974 S    
C161  H133  1.107862 S    
Zn4   O2    1.937049 S    
C79   C95   1.416743 A    
C58   C82   1.405384 A    
C30   C47   1.416134 A    
C166  H141  1.108492 S    
C188  H195  1.109205 S    
C158  H122  1.111425 S    
O9    C5    1.271787 A    
C208  H245  1.110100 S    
C34   C35   1.427552 A    
C146  H86   1.112991 S    
C67   O67   1.385816 S    
C62   O62   1.385945 S    
C63   C71   1.401863 A    
C179  H177  1.103279 S    
C184  H184  1.111159 S    
C202  H231  1.108243 S    
C33   C117  1.523046 S    
C154  H110  1.107603 S    
O13   C9    1.270809 A    
C155  H111  1.114428 S    
C206  H240  1.107566 S    
C197  H222  1.109454 S    
C56   C87   1.411668 A    
C163  C164  1.530056 S    
O18   C14   1.271093 A    
C59   C92   1.409589 A    
O6    C2    1.275482 A    
C60   C91   1.418208 A    
C160  H127  1.109765 S    
C203  H237  1.102341 S    
C192  H204  1.109959 S    
C190  H201  1.110477 S    
O48   C22   1.282138 A    
C120  H16   1.111222 S    
C126  H31   1.109054 S    
O65   C157  1.415385 S    
C192  H206  1.111164 S    
C41   C49   1.415492 A    
C133  C134  1.530392 S    
Zn14  O30   1.935808 S    
C113  C114  1.526888 S    
C124  H28   1.110416 S    
Zn15  O3    1.951642 S    
C56   C80   1.407813 A    
C130  H43   1.110820 S    
C139  H69   1.105169 S    
C182  H181  1.107262 S    
C141  H75   1.109120 S    
C77   C177  1.526675 S    
C117  H14   1.109135 S    
C167  H147  1.109613 S    
C145  H81   1.114994 S    
C168  H146  1.110299 S    
O30   C15   1.278205 A    
C105  C108  1.416257 A    
C177  H173  1.109753 S    
C149  H94   1.109221 S    
Zn4   O46   1.939789 S    
C195  C196  1.525737 S    
Zn11  O26   1.941154 S    
C123  H29   1.110458 S    
C16   C97   1.455260 S    
C19   C112  1.457393 S    
C45   C51   1.424429 A    
C183  H188  1.111362 S    
C64   O64   1.386043 S    
Zn1   O12   1.934230 S    
O67   C159  1.410089 S    
Zn2   O11   1.934232 S    
C169  H152  1.109769 S    
C14   C99   1.454726 S    
C149  H95   1.110946 S    
C68   O68   1.384118 S    
C207  H248  1.102907 S    
C196  H214  1.110225 S    
C189  H203  1.109816 S    
C84   C100  1.411177 A    
C101  C193  1.531081 S    
C169  C170  1.530003 S    
C180  H175  1.111116 S    
Zn14  O42   1.937023 S    
C120  H18   1.110556 S    
C72   C167  1.522296 S    
Zn13  O3    1.951146 S    
C102  C109  1.417812 A    
Zn14  O4    1.951147 S    
C145  H83   1.107873 S    
C118  H12   1.107381 S    
C119  C120  1.529425 S    
C27   C133  1.528169 S    
C129  H45   1.104880 S    
C200  H226  1.110216 S    
C105  C112  1.416980 A    
C30   C139  1.527161 S    
C37   C125  1.529095 S    
C18   C109  1.459069 S    
C201  H232  1.106646 S    
C47   C51   1.418608 A    
C174  H160  1.107933 S    
C195  H217  1.106406 S    
O39   C17   1.278116 A    
C146  H84   1.109274 S    
Zn12  O25   1.941156 S    
O7    C3    1.281722 A    
C66   C74   1.403792 A    
Zn13  O36   1.936991 S    
C154  H108  1.110419 S    
C155  H113  1.108606 S    
O51   C23   1.273670 A    
C144  H78   1.108862 S    
C127  H39   1.106803 S    
C128  H37   1.110358 S    
C121  H25   1.105996 S    
C141  H74   1.106195 S    
C29   C48   1.413782 A    
C194  H210  1.108813 S    
C178  H171  1.110464 S    
C181  H182  1.108633 S    
C40   C123  1.525130 S    
C186  H190  1.107734 S    
C7    C90   1.454138 S    
O21   C8    1.275452 A    
C33   C36   1.430663 A    
C132  H47   1.110381 S    
Zn7   O18   1.937349 S    
Zn9   O37   1.937023 S    
C11   C94   1.472631 S    
C63   O63   1.392557 S    
O12   C8    1.283354 A    
C126  H33   1.110430 S    
Zn11  O39   1.936773 S    
C134  H52   1.110042 S    
C130  H41   1.111191 S    
Zn11  O1    1.951642 S    
O19   C15   1.279646 A    
C4    C85   1.475502 S    
C201  H233  1.109118 S    
Zn15  O43   1.936773 S    
C190  H200  1.108018 S    
C27   C42   1.427043 A    
C168  H144  1.108086 S    
C198  H221  1.109904 S    
C75   C91   1.421070 A    
Zn5   O3    1.951436 S    
C143  H80   1.107556 S    
C64   C72   1.405123 A    
Zn6   O4    1.951437 S    
C65   C73   1.405965 A    
C121  H24   1.107442 S    
Zn8   O14   1.942632 S    
C108  C111  1.416976 A    
C199  C200  1.525186 S    
C68   C76   1.401858 A    
C83   C189  1.526750 S    
C189  H202  1.108742 S    
C133  H55   1.108750 S    
C152  H104  1.109189 S    
O57   C149  1.410853 S    
C191  H207  1.112026 S    
O26   C3    1.277262 A    
C13   C100  1.444041 S    
C159  H124  1.113601 S    
C135  C136  1.533108 S    
C127  C128  1.526478 S    
C162  H130  1.106517 S    
C150  H96   1.109023 S    
C173  H163  1.107101 S    
C171  C172  1.528526 S    
C166  H140  1.108051 S    
C196  H216  1.109481 S    
C164  H135  1.109334 S    
C173  H162  1.104428 S    
O24   C5    1.277914 A    
C46   C52   1.425823 A    
C157  H117  1.115948 S    
C125  H35   1.107398 S    
C184  H185  1.107181 S    
C145  H82   1.110260 S    
O63   C155  1.415875 S    
C175  H168  1.108944 S    
C187  H197  1.109843 S    
C197  H223  1.108121 S    
C81   C185  1.522199 S    
Zn2   O2    1.951437 S    
C152  H102  1.111475 S    
C135  H59   1.101383 S    
Zn15  O31   1.931426 S    
C189  C190  1.528514 S    
C136  H58   1.110730 S    
Zn16  O32   1.931424 S    
C78   C179  1.527300 S    
C200  H224  1.110480 S    
C148  H90   1.108792 S    
C159  H123  1.113504 S    
Zn8   O4    1.937049 S    
C131  H50   1.111494 S    
C142  H72   1.108699 S    
C143  C144  1.532258 S    
C153  H106  1.108735 S    
Zn15  O34   1.941154 S    
Zn7   O49   1.939789 S    
C197  C198  1.530439 S    
C182  H180  1.108948 S    
C201  C202  1.527783 S    
O31   C14   1.279678 A    
C26   C131  1.522397 S    
C178  H169  1.109219 S    
C140  H67   1.108779 S    
C162  H129  1.108907 S    
Zn14  O35   1.936990 S    
C203  C204  1.531766 S    
C186  H191  1.109493 S    
C61   C94   1.413093 A    
C208  H244  1.111291 S    
C60   O60   1.383452 S    
Zn8   O50   1.939789 S    
C172  H155  1.109523 S    
C69   C161  1.529484 S    
C137  C138  1.529472 S    
C45   C48   1.384432 A    
Zn6   O52   1.932535 S    
C183  C184  1.529869 S    
C150  H98   1.116307 S    
C82   C187  1.524166 S    
C156  H115  1.110166 S    
C119  H20   1.108622 S    
C191  C192  1.525963 S    
Zn1   O47   1.932535 S    
C142  H73   1.110344 S    
O45   C21   1.267629 A    
C170  H150  1.108894 S    
O22   C7    1.277404 A    
Zn3   O45   1.939789 S    
C199  H228  1.104208 S    
C37   C40   1.435046 A    
C171  H158  1.107441 S    
O28   C1    1.276180 A    
C123  C124  1.528907 S    
C57   O57   1.385362 S    
C165  H142  1.107578 S    
C41   C44   1.386677 A    
C176  H164  1.107645 S    
C58   O58   1.384367 S    
C125  H34   1.103270 S    
C17   C110  1.455323 S    
C115  C116  1.526267 S    
C54   O54   1.384292 S    
C193  H213  1.109060 S    
C116  H8    1.110089 S    
C55   O55   1.384335 S    
C161  H132  1.099655 S    
O58   C150  1.416096 S    
C170  H151  1.108693 S    
C173  C174  1.528057 S    
C205  H243  1.107263 S    
Zn9   O21   1.935806 S    
C140  H66   1.110202 S    
C185  H193  1.110149 S    
C158  H121  1.109352 S    
Zn11  O23   1.931426 S    
C146  H85   1.113291 S    
Zn12  O40   1.936773 S    
C179  H178  1.108384 S    
O25   C4    1.292089 A    
C62   C93   1.409127 A    
C151  H100  1.108913 S    
C147  H87   1.110529 S    
C154  H109  1.113837 S    
C55   C79   1.404116 A    
Zn1   O7    1.939819 S    
O27   C2    1.278948 A    
C157  H118  1.109857 S    
C144  H76   1.109364 S    
Zn2   O8    1.939817 S    
C101  C104  1.414467 A    
C53   C77   1.405573 A    
Zn3   O5    1.942631 S    
O29   C16   1.278985 A    
C139  C140  1.529305 S    
C136  H56   1.109921 S    
C101  C110  1.417172 A    
O56   C148  1.415874 S    
C160  H126  1.108889 S    
C204  H234  1.107253 S    
C148  H92   1.109768 S    
C29   C137  1.527667 S    
Zn9   O28   1.936991 S    
C203  H238  1.109747 S    
C114  H2    1.110448 S    
Zn10  O27   1.936990 S    
C32   C45   1.416566 A    
C126  H32   1.106943 S    
C192  H205  1.108958 S    
O15   C11   1.279588 A    
C124  H27   1.110276 S    
C157  H119  1.109097 S    
C205  C206  1.527313 S    
C196  H215  1.110222 S    
C181  C182  1.527037 S    
C183  H187  1.111334 S    
C167  H148  1.104666 S    
C161  C162  1.527646 S    
C44   C50   1.427126 A    
C168  H145  1.109268 S    
C177  H172  1.108326 S    
O20   C16   1.280355 A    
O46   C22   1.281218 A    
C147  H88   1.106933 S    
O10   C6    1.277350 A    
C163  H137  1.109724 S    
Zn8   O17   1.937347 S    
C122  H21   1.110547 S    
O66   C158  1.412548 S    
Zn10  O38   1.937023 S    
C204  H236  1.109531 S    
C123  H30   1.108403 S    
C12   C93   1.458201 S    
C138  H61   1.110154 S    
C115  H10   1.107565 S    
O14   C10   1.269950 A    
C175  H167  1.110057 S    
C21   C50   1.455436 S    
O62   C154  1.413025 S    
Zn12  O2    1.951641 S    
C128  H36   1.108201 S    
C23   C52   1.461523 S    
C79   C181  1.527371 S    
O17   C13   1.270728 A    
C106  C111  1.415012 A    
O36   C9    1.274850 A    
Zn5   O15   1.939819 S    
