data_mof_unit_44583.cif
_audit_creation_date              2013-03-05T15:52:25-0500
_audit_creation_method            fapswitch 2.2
_symmetry_space_group_name_H-M    P1
_symmetry_Int_Tables_number       1
_space_group_crystal_system       triclinic
_cell_length_a                    27.833485
_cell_length_b                    10.839834
_cell_length_c                    9.563572
_cell_angle_alpha                 89.607696
_cell_angle_beta                  90.329592
_cell_angle_gamma                 92.268608
_cell_volume                      2883.05625324

loop_
_atom_site_label
_atom_site_type_symbol
_atom_site_description
_atom_site_fract_x
_atom_site_fract_y
_atom_site_fract_z
_atom_type_partial_charge
O1    O     O_R   0.500000 0.319640 0.618810 -0.533499
O2    O     O_R   0.500000 0.319660 0.381240 -0.593043
C1    C     C_R   0.504091 0.262794 0.501617 0.843963
O3    O     O_R   0.430260 0.500010 0.618770 -0.589738
O4    O     O_R   0.430270 0.500030 0.381200 -0.579703
C2    C     C_R   0.407494 0.499839 0.499551 0.797971
Cu1   Cu    Cu3+1 0.500000 0.499990 0.640660 0.942640
Cu2   Cu    Cu3+1 0.500000 0.500010 0.359340 0.933246
O5    O     O_R   0.500000 0.680340 0.618760 -0.608102
O6    O     O_R   0.500000 0.680360 0.381190 -0.600705
O7    O     O_R   0.569730 0.499970 0.618800 -0.597599
O8    O     O_R   0.569740 0.499990 0.381230 -0.595652
C3    C     C_R   0.496638 0.737358 0.500204 0.785068
C4    C     C_R   0.592736 0.500158 0.500429 0.787828
C5    C     C_R   0.176197 0.401341 0.451902 0.533744
O9    O     O_2   0.199015 0.297780 0.419678 -0.535313
N1    N     N_R   0.202257 0.505176 0.490977 -0.468558
C6    C     C_R   0.180177 0.611182 0.525513 0.534859
C7    C     C_R   0.279220 0.496045 0.368378 -0.103385
C8    C     C_R   0.329267 0.494745 0.370338 -0.213523
C9    C     C_R   0.328812 0.507618 0.623529 -0.219754
C10   C     C_R   0.278706 0.509178 0.621221 -0.100374
C11   C     C_R   0.253762 0.503376 0.493660 0.357192
C12   C     C_R   0.102205 0.509842 0.480898 -0.043794
C13   C     C_R   0.125787 0.401823 0.445860 -0.020327
C14   C     C_R   0.098708 0.296554 0.406412 -0.146956
C15   C     C_R   0.129821 0.615417 0.521327 -0.021322
C16   C     C_R   0.354567 0.500558 0.497971 -0.039282
H1    H     H_    0.347318 0.512281 0.723388 0.157338
H2    H     H_    0.259206 0.514609 0.718494 0.141518
H3    H     H_    0.115944 0.211807 0.380641 0.187471
C17   C     C_R   0.646277 0.504675 0.498436 -0.143555
C18   C     C_R   0.973017 0.409192 0.422573 0.041937
C19   C     C_R   0.976837 0.621659 0.515352 0.042427
C20   C     C_R   0.949711 0.516173 0.467582 0.067043
C21   C     C_R   0.944274 0.309187 0.369618 -0.206252
C22   C     C_R   0.894443 0.311898 0.367147 -0.148009
C23   C     C_R   0.871166 0.414516 0.416363 -0.020153
C24   C     C_R   0.898617 0.517368 0.465592 -0.043683
C25   C     C_R   0.874818 0.621010 0.513880 -0.019418
C26   C     C_R   0.824351 0.619147 0.513996 0.523358
N2    N     N_R   0.798553 0.517757 0.466828 -0.467652
C27   C     C_R   0.820775 0.416542 0.418104 0.525683
C28   C     C_R   0.725389 0.474046 0.598829 -0.113847
C29   C     C_R   0.675101 0.466732 0.613390 0.099611
C30   C     C_R   0.668844 0.547121 0.374506 -0.231269
C31   C     C_R   0.719083 0.552497 0.360629 0.192280
C32   C     C_R   0.747073 0.515160 0.474899 0.263517
O10   O     O_2   0.794134 0.317949 0.372547 -0.541713
C33   C     C_R   0.023958 0.405575 0.431601 0.042757
C34   C     C_R   0.051150 0.512240 0.475625 0.067984
C35   C     C_R   0.027937 0.621185 0.514701 0.041936
C36   C     C_R   0.048891 0.298019 0.399649 -0.206678
H4    H     H_    0.748953 0.447047 0.682822 0.154625
H5    H     H_    0.874169 0.232443 0.326603 0.187667
H6    H     H_    0.959042 0.227249 0.327243 0.140070
H7    H     H_    0.031054 0.211864 0.371227 0.138663
O11   O     O_2   0.206901 0.712464 0.562568 -0.534691
C37   C     C_R   0.106764 0.723110 0.555322 -0.143832
H8    H     H_    0.348079 0.489184 0.271908 0.158340
H9    H     H_    0.260146 0.491855 0.269406 0.141010
H10   H     H_    0.127201 0.806112 0.584883 0.189545
C38   C     C_R   0.951625 0.723855 0.563770 -0.206875
C39   C     C_R   0.901724 0.723311 0.562764 -0.149904
O12   O     O_2   0.801177 0.717460 0.561397 -0.542690
C40   C     C_R   0.056943 0.726314 0.551832 -0.206187
H11   H     H_    0.969221 0.805608 0.606114 0.139690
H12   H     H_    0.646699 0.576073 0.288348 0.177735
H13   H     H_    0.884272 0.803767 0.601544 0.187036
H14   H     H_    0.042464 0.813927 0.577152 0.139072
H15   H     H_    0.509962 0.113511 0.280635 0.161469
C41   C     C_R   0.520525 0.110166 0.768450 0.435217
C42   C     C_R   0.504825 0.049025 0.891240 -0.247004
H16   H     H_    0.513546 0.086740 0.993268 0.128002
C43   C     C_R   0.478137 0.938430 0.883145 -0.184300
H17   H     H_    0.464693 0.893772 0.977514 0.157704
C44   C     C_R   0.471298 0.881402 0.754370 -0.152774
H18   H     H_    0.450372 0.795283 0.752916 0.172280
C45   C     C_R   0.490229 0.936456 0.630751 0.026970
C46   C     C_R   0.506813 0.060779 0.635571 0.061333
C47   C     C_R   0.508632 0.128401 0.506908 -0.095816
C48   C     C_R   0.507134 0.064862 0.379766 -0.217157
H19   H     H_    0.504427 0.890849 0.278828 0.167125
C49   C     C_R   0.502251 0.937586 0.378250 -0.208103
C50   C     C_R   0.493948 0.871888 0.502763 -0.088156
H20   H     H_    0.447453 0.356310 0.129712 0.141455
C51   C     C_R   0.561860 0.668722 0.143982 -0.169666
H21   H     H_    0.566006 0.674269 0.253996 0.200243
C52   C     C_R   0.590971 0.753647 0.071454 -0.230055
H22   H     H_    0.613900 0.819514 0.127759 0.156848
C53   C     C_R   0.591485 0.752571 0.927524 -0.180808
H23   H     H_    0.614991 0.817211 0.871089 0.164117
C54   C     C_R   0.562408 0.667547 0.855368 -0.156042
H24   H     H_    0.566922 0.672254 0.745459 0.201839
C55   C     C_R   0.530553 0.582682 0.924936 0.196448
C56   C     C_R   0.530432 0.582901 0.074710 0.212867
N3    N     N_R   0.500460 0.501210 0.147910 -0.197180
C57   C     C_R   0.471113 0.420979 0.074121 -0.083776
H25   H     H_    0.447494 0.356349 0.870507 0.142814
C58   C     C_R   0.471111 0.421053 0.925988 -0.059960
N4    N     N_R   0.500480 0.501290 0.852040 -0.194306
C59   C     C_3   0.744206 0.595395 0.226734 -0.375935
C60   C     C_3   0.711820 0.646056 0.111958 -0.853533
H26   H     H_    0.685020 0.574260 0.076380 0.259405
H27   H     H_    0.693324 0.727882 0.150601 0.256781
H28   H     H_    0.734083 0.675171 0.020647 0.258153
H29   H     H_    0.771419 0.669504 0.253142 0.221132
H30   H     H_    0.763565 0.516826 0.182973 0.221567
O13   O     O_3   0.553445 0.208457 0.776758 -0.740346
H31   H     H_    0.559176 0.229978 0.876291 0.314178
C61   C     C_3   0.652237 0.416459 0.747643 -0.359393
C62   C     C_3   0.686061 0.359228 0.854567 -0.852978
H32   H     H_    0.705401 0.282487 0.806791 0.267269
H33   H     H_    0.712201 0.429997 0.896087 0.254173
H34   H     H_    0.664690 0.321265 0.943839 0.253407
H35   H     H_    0.633815 0.491971 0.800583 0.222485
H36   H     H_    0.625331 0.343004 0.718612 0.264223

loop_
_geom_bond_atom_site_label_1
_geom_bond_atom_site_label_2
_geom_bond_distance
_ccdc_geom_bond_type
C28   C32   1.395459 A    
C51   H21   1.059639 S    
C26   N2    1.366594 A    
C54   H24   1.059956 S    
C55   C56   1.432414 A    
C17   C29   1.425200 A    
C20   C24   1.422713 A    
C7    C8    1.393640 A    
C12   C15   1.408195 A    
C45   C50   1.420471 A    
Cu2   N3    2.022090 S    
C62   H33   1.110016 S    
C47   C48   1.401156 A    
Cu1   Cu2   2.690423 S    
C40   H14   1.075900 S    
C44   H18   1.080711 S    
Cu1   O7    1.953260 S    
N1    C11   1.434551 S    
C21   C22   1.388506 A    
C37   C40   1.388699 A    
O4    C2    1.300419 A    
O7    C4    1.303751 A    
C5    C13   1.404147 A    
C5    O9    1.349804 S    
C18   C21   1.416272 A    
Cu1   O5    1.964725 S    
C19   C20   1.421647 A    
C42   H16   1.083059 S    
O5    C3    1.292314 A    
C19   C38   1.416458 A    
C19   C35   1.422559 A    
C41   O13   1.379887 S    
C6    O11   1.349748 S    
C2    C16   1.473470 S    
H19   C49   1.083552 S    
C1    C47   1.467743 S    
C59   H30   1.111139 S    
C61   H35   1.109573 S    
C8    H8    1.082991 S    
C41   C42   1.407666 A    
H15   C48   1.083423 S    
C12   C34   1.422886 A    
C14   H3    1.083584 S    
C54   C55   1.417347 A    
C31   C59   1.523589 S    
C9    C10   1.395445 A    
C51   C56   1.416643 A    
C42   C43   1.387480 A    
O3    Cu1   1.951177 S    
C62   H32   1.110858 S    
N3    C57   1.366421 A    
C44   C45   1.415660 A    
C38   H11   1.075849 S    
C33   C36   1.416220 A    
C34   C35   1.421602 A    
C12   C13   1.408158 A    
O3    C2    1.301187 A    
C53   H23   1.083006 S    
C36   H7    1.075993 S    
C27   O10   1.349724 S    
C26   O12   1.349685 S    
C8    C16   1.406209 A    
C33   C34   1.421507 A    
C18   C33   1.422075 A    
C9    H1    1.082976 S    
C38   C39   1.388698 A    
O1    C1    1.290469 A    
C7    C11   1.399809 A    
C43   H17   1.082785 S    
C30   H12   1.078554 S    
C22   C23   1.395119 A    
C21   H6    1.076019 S    
C53   C54   1.387025 A    
C31   C32   1.405043 A    
Cu2   O8    1.951172 S    
C56   N3    1.381980 A    
N1    C6    1.367710 A    
C59   H29   1.111411 S    
C60   H27   1.109579 S    
N2    C32   1.434531 S    
C39   H13   1.083582 S    
C49   C50   1.398959 A    
C43   C44   1.390507 A    
C25   C26   1.404016 A    
C9    C16   1.406105 A    
O8    C4    1.304125 A    
C48   C49   1.381130 A    
C51   C52   1.387011 A    
C52   C53   1.376769 A    
N2    C27   1.366557 A    
C14   C36   1.388436 A    
C24   C25   1.408455 A    
C35   C40   1.416318 A    
C28   C29   1.406450 A    
C5    N1    1.367727 A    
C30   C31   1.404245 A    
C37   H10   1.083576 S    
C10   H2    1.082844 S    
C61   C62   1.530785 S    
O1    Cu1   1.967522 S    
C17   C30   1.410382 A    
O2    Cu2   1.964725 S    
C6    C15   1.404493 A    
C4    C17   1.489342 S    
C46   C47   1.428062 A    
O6    C3    1.304386 A    
O4    Cu2   1.953263 S    
C29   C61   1.524079 S    
C57   C58   1.416672 A    
C25   C39   1.395147 A    
H25   C58   1.081753 S    
C61   H36   1.106959 S    
O2    C1    1.308669 A    
C13   C14   1.395352 A    
C23   C27   1.403800 A    
C41   C46   1.426449 A    
C15   C37   1.395426 A    
O13   H31   0.992123 S    
C23   C24   1.408560 A    
C7    H9    1.082915 S    
C58   N4    1.366288 A    
C18   C20   1.421439 A    
C60   H28   1.110461 S    
C59   C60   1.529239 S    
H20   C57   1.081716 S    
C45   C46   1.408065 A    
C22   H5    1.083574 S    
C28   H4    1.080269 S    
Cu2   O6    1.967523 S    
Cu1   N4    2.021658 S    
C3    C50   1.463537 S    
C60   H26   1.110250 S    
C10   C11   1.400734 A    
C52   H22   1.082714 S    
C62   H34   1.110745 S    
C55   N4    1.381413 A    
