data_mof_unit_23201.cif
_audit_creation_date              2012-12-10T17:18:55-0500
_audit_creation_method            fapswitch 2.2
_symmetry_space_group_name_H-M    P1
_symmetry_Int_Tables_number       1
_space_group_crystal_system       triclinic
_cell_length_a                    9.650393
_cell_length_b                    10.814318
_cell_length_c                    13.518802
_cell_angle_alpha                 94.871309
_cell_angle_beta                  72.311602
_cell_angle_gamma                 91.200671
_cell_volume                      1339.28130586

loop_
_atom_site_label
_atom_site_type_symbol
_atom_type_description
_atom_site_fract_x
_atom_site_fract_y
_atom_site_fract_z
_atom_type_partial_charge
C1    C     C_R   0.502849 0.737495 0.495749 0.785578
C2    C     C_R   0.441494 0.530753 0.980836 0.088303
C3    C     C_R   0.474760 0.490318 0.873250 0.042681
C4    C     C_R   0.547704 0.517552 0.032580 0.090790
C5    C     C_R   0.690624 0.479857 0.974448 0.069227
C6    C     C_R   0.719017 0.431705 0.871722 -0.220343
C7    C     C_R   0.609453 0.428480 0.824718 -0.195585
C8    C     C_R   0.515587 0.536453 0.141039 -0.325292
C9    C     C_R   0.770277 0.526498 0.126874 0.465413
C10   C     C_R   0.374774 0.515610 0.817468 -0.127470
C11   C     C_R   0.295383 0.876991 0.424013 -0.190264
C12   C     C_R   0.421266 0.501448 0.700764 0.784936
C13   C     C_R   0.161511 0.929994 0.433205 -0.249547
C14   C     C_R   0.119372 0.041959 0.494530 0.438529
C15   C     C_R   0.219386 0.105929 0.535951 -0.179645
C16   C     C_R   0.362104 0.060100 0.514336 -0.014988
C17   C     C_R   0.389074 0.935569 0.476001 0.090965
C18   C     C_R   0.503206 0.872995 0.496553 -0.144374
C19   C     C_R   0.597490 0.940069 0.542130 -0.210654
C20   C     C_R   0.584805 0.068964 0.562197 0.154277
C21   C     C_R   0.476799 0.131321 0.534486 -0.121804
C22   C     C_R   0.929262 0.376014 0.327559 0.207913
C23   C     C_R   0.491949 0.264560 0.514285 0.788103
C24   C     C_R   0.035577 0.380641 0.230304 0.458800
C25   C     C_R   0.179527 0.395541 0.228748 -0.410751
C26   C     C_R   0.211768 0.388912 0.321926 0.176602
C27   C     C_R   0.108406 0.439931 0.415920 0.157488
C28   C     C_R   0.958912 0.437339 0.417210 0.073245
C29   C     C_R   0.894787 0.560753 0.577336 -0.053765
C30   C     C_R   0.042082 0.560933 0.577010 -0.065553
C31   C     C_R   0.578386 0.511602 0.301731 0.783296
C32   C     C_R   0.802467 0.490348 0.020791 -0.188086
C33   C     C_R   0.623676 0.527614 0.189175 -0.179844
C34   C     C_R   0.238248 0.572646 0.874089 0.163891
C35   C     C_R   0.206391 0.605725 0.980478 -0.117450
C36   C     C_R   0.306400 0.588313 0.032332 -0.250664
Cu1   Cu    Cu3+1 0.359340 0.500010 0.500010 0.933459
Cu2   Cu    Cu3+1 0.640660 0.499990 0.499990 0.936103
H1    H     H_    0.323776 0.789931 0.376888 0.167312
H2    H     H_    0.089390 0.882032 0.395271 0.134209
H3    H     H_    0.185462 0.192949 0.582089 0.179446
H4    H     H_    0.814706 0.611790 0.640628 0.142423
H5    H     H_    0.263734 0.372089 0.155866 0.177779
H6    H     H_    0.825054 0.393190 0.828431 0.148827
H7    H     H_    0.070918 0.614275 0.638504 0.138910
H8    H     H_    0.914531 0.473602 0.974482 0.164674
H9    H     H_    0.405890 0.552160 0.190137 0.183382
H10   H     H_    0.276410 0.626140 0.112368 0.152860
H11   H     H_    0.105187 0.652359 0.023534 0.187504
H12   H     H_    0.634816 0.377907 0.749525 0.179176
H13   H     H_    0.676582 0.891277 0.566888 0.163052
N1    N     N_R   0.852480 0.498790 0.499000 -0.183357
N2    N     N_R   0.148360 0.498710 0.498970 -0.182137
O1    O     O_R   0.381190 0.680360 0.500010 -0.579343
O2    O     O_R   0.618760 0.680340 0.500000 -0.584974
O3    O     O_R   0.323240 0.499990 0.650990 -0.572721
O4    O     O_R   0.560820 0.499960 0.650980 -0.591064
O5    O     O_R   0.381240 0.319660 0.500000 -0.590337
O6    O     O_R   0.618810 0.319640 0.499990 -0.580463
O7    O     O_R   0.439180 0.500040 0.349020 -0.577740
O8    O     O_R   0.676760 0.500010 0.349010 -0.568999
O9    O     O_3   0.882363 0.564532 0.165156 -0.738024
H14   H     H_    0.842746 0.622838 0.227662 0.317764
O10   O     O_3   0.985660 0.095134 0.509553 -0.776394
H15   H     H_    0.929790 0.039786 0.473449 0.317681
C37   C     C_3   0.665080 0.133651 0.631489 -0.813879
H16   H     H_    0.584255 0.177243 0.702153 0.207489
H17   H     H_    0.729845 0.067322 0.658079 0.245055
H18   H     H_    0.740153 0.205328 0.592193 0.278943
C38   C     C_3   0.844506 0.256543 0.334908 -0.687029
H19   H     H_    0.903966 0.182480 0.275999 0.207002
H20   H     H_    0.833175 0.217268 0.409775 0.234029
H21   H     H_    0.739565 0.269427 0.319457 0.238000
O11   O     O_3   0.001975 0.338371 0.140872 -0.704866
H22   H     H_    0.088555 0.346819 0.079437 0.328640
C39   C     C_3   0.297926 0.273470 0.319520 -0.705096
H23   H     H_    0.415081 0.289605 0.307320 0.236022
H24   H     H_    0.247570 0.229303 0.390595 0.241366
H25   H     H_    0.291094 0.202760 0.256347 0.192170
C40   C     C_3   0.127440 0.609014 0.823689 -0.868298
H26   H     H_    0.031139 0.656635 0.880201 0.217186
H27   H     H_    0.177100 0.675481 0.764783 0.242349
H28   H     H_    0.086886 0.524748 0.788710 0.237954

loop_
_geom_bond_atom_site_label_1
_geom_bond_atom_site_label_2
_ccdc_geom_bond_type
C23   O5    A    
C37   H17   S    
C16   C21   A    
C29   H4    S    
C11   C13   A    
C31   O8    A    
C30   H7    S    
C19   C20   A    
C39   H25   S    
C4    C8    A    
C25   H5    S    
C23   O6    A    
C26   C27   A    
C29   C30   A    
C20   C37   S    
C39   H24   S    
C18   C19   A    
C3    C7    A    
C5    C6    A    
C37   H18   S    
Cu2   N1    S    
C15   C16   A    
C34   C35   A    
C13   H2    S    
C9    C32   A    
C34   C40   S    
Cu1   O3    S    
Cu2   O2    S    
C35   C36   A    
C16   C17   A    
C35   H11   S    
C26   C39   S    
C31   C33   S    
C38   H19   S    
Cu1   O5    S    
Cu2   O8    S    
Cu1   N2    S    
C37   H16   S    
C22   C28   A    
C13   C14   A    
C9    C33   A    
C38   H21   S    
C40   H28   S    
C30   N2    A    
O11   H22   S    
C9    O9    S    
C39   H23   S    
C15   H3    S    
C40   H27   S    
C4    C5    A    
C25   C26   A    
C31   O7    A    
C2    C4    A    
C1    O1    A    
Cu1   Cu2   S    
Cu2   O4    S    
C14   O10   S    
O9    H14   S    
C17   C18   A    
C1    C18   S    
C10   C34   A    
C24   C25   A    
C11   H1    S    
C12   O3    A    
C10   C12   S    
Cu1   O1    S    
C21   C23   S    
C22   C24   A    
C12   O4    A    
C6    H6    S    
C2    C36   A    
C11   C17   A    
C32   H8    S    
C7    H12   S    
C40   H26   S    
C27   N2    A    
C6    C7    A    
O10   H15   S    
C5    C32   A    
C2    C3    A    
C1    O2    A    
C8    H9    S    
C3    C10   A    
C28   N1    A    
C24   O11   S    
C36   H10   S    
C8    C33   A    
Cu1   O7    S    
Cu2   O6    S    
C19   H13   S    
C20   C21   A    
C27   C28   A    
C14   C15   A    
C38   H20   S    
C22   C38   S    
C29   N1    A    
