data_mof_unit_62960.cif
_audit_creation_date              2012-12-10T19:36:16-0500
_audit_creation_method            fapswitch 2.2
_symmetry_space_group_name_H-M    P1
_symmetry_Int_Tables_number       1
_space_group_crystal_system       triclinic
_cell_length_a                    16.437709
_cell_length_b                    16.730118
_cell_length_c                    23.418468
_cell_angle_alpha                 91.628051
_cell_angle_beta                  92.332704
_cell_angle_gamma                 85.994951
_cell_volume                      6417.02765039

loop_
_atom_site_label
_atom_site_type_symbol
_atom_type_description
_atom_site_fract_x
_atom_site_fract_y
_atom_site_fract_z
_atom_type_partial_charge
C1    C     C_R   0.487452 0.652101 0.501683 0.915792
C2    C     C_R   0.428944 0.487677 0.294861 -0.202052
C3    C     C_R   0.572248 0.509387 0.764371 0.218472
C4    C     C_R   0.428220 0.489987 0.235633 0.216611
C5    C     C_R   0.498261 0.505795 0.791562 0.258683
C6    C     C_R   0.498184 0.510644 0.208785 0.256121
C7    C     C_R   0.477111 0.738050 0.509239 -0.153018
C8    C     C_R   0.524138 0.262148 0.488729 -0.146692
C9    C     C_R   0.505897 0.776116 0.559798 0.099657
C10   C     C_R   0.494178 0.225137 0.438066 0.100111
C11   C     C_R   0.498654 0.859989 0.564402 0.151765
C12   C     C_R   0.512702 0.347892 0.497902 0.924703
C13   C     C_R   0.504196 0.141543 0.431544 0.153551
C14   C     C_R   0.463733 0.903841 0.518212 0.015176
C15   C     C_R   0.542557 0.096780 0.476092 0.013279
C16   C     C_R   0.499770 0.499789 0.610466 0.889809
C17   C     C_R   0.499987 0.501467 0.389583 0.899281
C18   C     C_R   0.428476 0.865032 0.470085 0.230250
C19   C     C_R   0.579297 0.134758 0.524004 0.231071
C20   C     C_R   0.436363 0.781898 0.465803 -0.335192
C21   C     C_R   0.569402 0.217716 0.529923 -0.319740
C22   C     C_2   0.477494 0.988432 0.515805 -0.125537
C23   C     C_R   0.425130 0.500076 0.759700 -0.121871
C24   C     C_2   0.529091 0.012089 0.478135 -0.123215
C25   C     C_R   0.758875 0.449494 0.479146 0.293710
C26   C     C_R   0.238162 0.548185 0.521611 0.299314
C27   C     C_R   0.844028 0.439259 0.486569 0.068254
C28   C     C_R   0.152755 0.546449 0.522267 0.104664
C29   C     C_R   0.885407 0.496407 0.519961 0.028026
C30   C     C_R   0.114045 0.487845 0.488425 0.006494
C31   C     C_R   0.839179 0.558361 0.548717 0.085457
C32   C     C_R   0.162644 0.430538 0.457228 0.092558
C33   C     C_R   0.754148 0.563644 0.541873 -0.080071
C34   C     C_R   0.567665 0.530323 0.240995 -0.120534
C35   C     C_R   0.247720 0.431925 0.460947 -0.076686
C36   C     C_2   0.975466 0.489497 0.527027 -0.163061
C37   C     C_2   0.023813 0.489685 0.482030 -0.179682
C38   C     C_R   0.516879 0.438783 0.119716 0.559446
C39   C     C_R   0.481321 0.578561 0.880591 0.556678
C40   C     C_R   0.483625 0.580188 0.120573 0.550138
C41   C     C_R   0.512105 0.436779 0.879838 0.553984
C42   C     C_R   0.483154 0.580877 0.061081 -0.043681
C43   C     C_R   0.513275 0.436271 0.939307 -0.043250
C44   C     C_R   0.499138 0.508337 0.030283 -0.042094
C45   C     C_R   0.425435 0.497804 0.700448 -0.203936
C46   C     C_R   0.497834 0.508911 0.970078 -0.041966
C47   C     C_R   0.516323 0.435466 0.059591 -0.083518
C48   C     C_R   0.481106 0.581831 0.940742 -0.084265
C49   C     C_R   0.466541 0.652557 0.032200 -0.177456
C50   C     C_R   0.529841 0.364583 0.968164 -0.176622
C51   C     C_R   0.465356 0.654161 0.972826 0.210689
C52   C     C_R   0.531686 0.363070 0.027521 0.211671
C53   C     C_3   0.310114 0.947814 0.438180 -0.687954
C54   C     C_3   0.699419 0.051385 0.552095 -0.691663
C55   C     C_3   0.725807 0.400584 0.383540 -0.692583
C56   C     C_R   0.568169 0.528122 0.300181 -0.216398
C57   C     C_3   0.253881 0.693956 0.533559 -0.687835
C58   C     C_3   0.115024 0.603059 0.615507 -0.693659
C59   C     C_3   0.903480 0.305449 0.503879 -0.711333
C60   C     C_R   0.499226 0.500975 0.672769 -0.068773
C61   C     C_R   0.499313 0.505403 0.327422 -0.075683
C62   C     C_R   0.572541 0.506649 0.705074 -0.206171
H1    H     H_    0.454226 0.708346 0.055901 0.212665
H2    H     H_    0.621954 0.544885 0.324473 0.165302
H3    H     H_    0.630017 0.509613 0.684474 0.190891
H4    H     H_    0.374774 0.471144 0.315201 0.195207
H5    H     H_    0.594995 0.247553 0.567535 0.160650
H6    H     H_    0.412055 0.751310 0.428078 0.166684
H7    H     H_    0.556680 0.970341 0.446905 0.173592
H8    H     H_    0.450059 0.030320 0.547020 0.173215
H9    H     H_    0.387466 0.879143 0.385755 0.245190
H10   H     H_    0.266934 0.901814 0.446990 0.226801
H11   H     H_    0.285239 0.983427 0.401338 0.261563
H12   H     H_    0.541668 0.308714 0.944458 0.212860
H13   H     H_    0.315517 0.989106 0.475898 0.246404
H14   H     H_    0.625016 0.118912 0.607180 0.244001
H15   H     H_    0.726187 0.014992 0.588003 0.259303
H16   H     H_    0.742046 0.097563 0.542578 0.225925
H17   H     H_    0.692030 0.010856 0.514153 0.246271
H18   H     H_    0.724452 0.336074 0.457627 0.233672
H19   H     H_    0.676483 0.370027 0.359829 0.253246
H20   H     H_    0.785538 0.371522 0.371188 0.238604
H21   H     H_    0.722357 0.464297 0.371199 0.228414
H22   H     H_    0.327970 0.601849 0.576013 0.261025
H23   H     H_    0.285281 0.387561 0.437729 0.195225
H24   H     H_    0.308995 0.724162 0.523355 0.244236
H25   H     H_    0.224317 0.727709 0.569492 0.250012
H26   H     H_    0.211524 0.695804 0.495307 0.237531
H27   H     H_    0.049507 0.624220 0.537872 0.265288
H28   H     H_    0.082359 0.656538 0.635220 0.265287
H29   H     H_    0.179765 0.602169 0.630831 0.244641
H30   H     H_    0.088747 0.548416 0.630330 0.233094
H31   H     H_    0.932742 0.377804 0.437851 0.261993
H32   H     H_    0.928788 0.250812 0.481015 0.254370
H33   H     H_    0.847066 0.290673 0.524724 0.229663
H34   H     H_    0.717951 0.609331 0.564950 0.194384
H35   H     H_    0.949245 0.323858 0.537003 0.251209
H36   H     H_    0.996706 0.492861 0.439021 0.174913
H37   H     H_    0.002062 0.486939 0.570004 0.184942
H38   H     H_    0.368184 0.497349 0.781019 0.153673
H39   H     H_    0.621288 0.546898 0.219998 0.155427
H40   H     H_    0.368072 0.493666 0.676465 0.166860
I1    I     I_    0.457244 0.081134 0.356716 -0.251111
I2    I     I_    0.435137 0.294902 0.371429 -0.267564
I3    I     I_    0.545131 0.921777 0.638788 -0.251005
I4    I     I_    0.891490 0.644338 0.604321 -0.360090
I5    I     I_    0.112385 0.339390 0.404947 -0.340745
I6    I     I_    0.438495 0.770860 0.939401 -0.147909
I7    I     I_    0.557717 0.246198 0.060875 -0.144200
I8    I     I_    0.684191 0.519799 0.811196 -0.230840
I9    I     I_    0.320891 0.461617 0.188418 -0.224387
I10   I     I_    0.559729 0.707226 0.628801 -0.260982
N1    N     N_R   0.499776 0.509970 0.148121 -0.357965
N2    N     N_2   0.885250 0.368637 0.463516 -0.310551
N3    N     N_R   0.496998 0.507094 0.852239 -0.358278
N4    N     N_R   0.716290 0.510230 0.507380 -0.142368
N5    N     N_R   0.283710 0.489770 0.492620 -0.153022
N6    N     N_2   0.388919 0.909589 0.424686 -0.286025
N7    N     N_2   0.621528 0.089366 0.567968 -0.285577
N8    N     N_2   0.715846 0.394397 0.444315 -0.249308
N9    N     N_2   0.276390 0.612432 0.550488 -0.295090
N10   N     N_2   0.107294 0.607508 0.553727 -0.299465
O1    O     O_R   0.422340 0.612130 0.497340 -0.616684
O2    O     O_2   0.466644 0.645334 0.850036 -0.489202
O3    O     O_2   0.467652 0.648920 0.150941 -0.535413
O4    O     O_2   0.526323 0.367708 0.849490 -0.533863
O5    O     O_R   0.577660 0.387870 0.502660 -0.607070
O6    O     O_R   0.561240 0.618700 0.502080 -0.596180
O7    O     O_R   0.438760 0.381300 0.497920 -0.597444
O8    O     O_R   0.430530 0.496740 0.581480 -0.645971
O9    O     O_R   0.569470 0.503260 0.418520 -0.600188
O10   O     O_R   0.569440 0.503310 0.586210 -0.609064
O11   O     O_R   0.430560 0.496690 0.413790 -0.609184
O12   O     O_2   0.533966 0.372306 0.150248 -0.490291
Zn1   Zn    Zn3+2 0.407250 0.495610 0.496840 0.964342
Zn2   Zn    Zn3+2 0.592750 0.504390 0.503160 0.979237

loop_
_geom_bond_atom_site_label_1
_geom_bond_atom_site_label_2
_ccdc_geom_bond_type
H18   N8    S    
C45   C60   A    
C34   C56   A    
C23   C45   A    
C17   O9    A    
C14   C18   A    
O8    Zn1   S    
C1    O6    A    
C12   O5    A    
C15   C19   A    
C29   C36   S    
C59   H33   S    
C49   H1    S    
C36   C37   D    
C19   C21   A    
C50   H12   S    
C11   C14   A    
C28   N10   S    
C27   C29   A    
H27   N10   S    
C3    I8    S    
C57   H24   S    
C60   C62   A    
C16   C60   S    
C17   C61   S    
O7    Zn1   S    
C48   C51   A    
C51   I6    S    
C49   C51   A    
C32   I5    S    
C11   I3    S    
C50   C52   A    
C26   N5    A    
C26   N9    S    
C55   H19   S    
C16   O8    A    
C58   H29   S    
C18   N6    S    
C62   H3    S    
C44   C47   A    
O10   Zn2   S    
C54   H15   S    
C9    I10   S    
C40   C42   A    
C23   H38   S    
C19   N7    S    
C54   N7    S    
C5    N3    S    
C41   C43   A    
C53   H13   S    
C42   C44   A    
C41   N3    A    
C37   H36   S    
C44   C46   A    
C24   H7    S    
C55   N8    S    
C46   C48   A    
C58   N10   S    
C34   H39   S    
C12   O7    A    
H14   N7    S    
C32   C35   A    
O5    Zn2   S    
C4    C6    A    
O9    Zn2   S    
C25   N4    A    
C38   N1    A    
C53   N6    S    
C2    H4    S    
H22   N9    S    
C39   O2    S    
C6    C34   A    
C30   C37   S    
O1    Zn1   S    
C2    C4    A    
C25   N8    S    
C1    O1    A    
C6    N1    S    
C58   H28   S    
C40   N1    A    
C5    C23   A    
C8    C12   S    
C56   H2    S    
C8    C21   A    
C55   H20   S    
C9    C11   A    
C38   C47   A    
C15   C24   S    
C59   H32   S    
C4    I9    S    
C39   N3    A    
C13   C15   A    
C17   O11   A    
C59   H35   S    
C31   I4    S    
C22   C24   D    
C35   N5    A    
C13   I1    S    
C55   H21   S    
N5    Zn1   S    
C33   H34   S    
C54   H17   S    
C3    C62   A    
C7    C9    A    
C31   C33   A    
H9    N6    S    
C1    C7    S    
C41   O4    S    
C20   H6    S    
C53   H11   S    
C3    C5    A    
C10   C13   A    
C2    C61   A    
C43   C50   A    
C47   C52   A    
N4    Zn2   S    
C25   C27   A    
C26   C28   A    
C57   H26   S    
C14   C22   S    
O6    Zn2   S    
C28   C30   A    
C29   C31   A    
C30   C32   A    
C35   H23   S    
C52   I7    S    
C59   N2    S    
C40   O3    S    
C10   I2    S    
C36   H37   S    
C18   C20   A    
H31   N2    S    
C38   O12   S    
C16   O10   A    
C43   C46   A    
C45   H40   S    
C42   C49   A    
C57   N9    S    
C27   N2    S    
C57   H25   S    
C8    C10   A    
C7    C20   A    
O11   Zn1   S    
C56   C61   A    
C33   N4    A    
C53   H10   S    
C58   H30   S    
C22   H8    S    
C21   H5    S    
C39   C48   A    
C54   H16   S    
