data_mof_unit_12766.cif
_audit_creation_date              2012-12-10T19:11:31-0500
_audit_creation_method            fapswitch 2.2
_symmetry_space_group_name_H-M    P1
_symmetry_Int_Tables_number       1
_space_group_crystal_system       triclinic
_cell_length_a                    7.778253
_cell_length_b                    9.09604
_cell_length_c                    17.266122
_cell_angle_alpha                 89.977359
_cell_angle_beta                  85.640422
_cell_angle_gamma                 90.00436
_cell_volume                      1218.06593914

loop_
_atom_site_label
_atom_site_type_symbol
_atom_type_description
_atom_site_fract_x
_atom_site_fract_y
_atom_site_fract_z
_atom_type_partial_charge
C1    C     C_R   0.500001 0.780001 0.500013 0.854541
C2    C     C_R   0.500001 0.220001 0.499984 0.835175
C3    C     C_1   0.500008 0.934641 0.500002 -0.158742
C4    C     C_1   0.500002 0.065366 0.499992 -0.163906
C5    C     C_R   0.477181 0.496959 0.650514 0.834731
C6    C     C_R   0.522814 0.502003 0.349236 0.816284
C7    C     C_R   0.463876 0.477504 0.734816 -0.112869
C8    C     C_R   0.534827 0.508925 0.263965 -0.137440
C9    C     C_R   0.597021 0.402729 0.768729 -0.284208
C10   C     C_R   0.382923 0.532582 0.226600 -0.251297
C11   C     C_R   0.588975 0.380383 0.848350 -0.098637
C12   C     C_R   0.387467 0.539325 0.146337 -0.096386
C13   C     C_R   0.448576 0.434009 0.894986 0.113809
C14   C     C_R   0.543404 0.520236 0.101799 0.096374
C15   C     C_R   0.313141 0.505930 0.861993 -0.189171
C16   C     C_R   0.696674 0.501621 0.137994 -0.187927
C17   C     C_R   0.317700 0.525752 0.781301 0.477146
C18   C     C_R   0.693790 0.493051 0.219167 0.475466
C19   C     C_2   0.450210 0.425824 0.979076 0.154482
C20   C     C_2   0.546290 0.521444 0.017066 0.168262
Cu1   Cu    Cu3+1 0.330920 0.500000 0.500000 1.025184
Cu2   Cu    Cu3+1 0.669080 0.500000 0.500000 1.024359
H1    H     H_    0.207543 0.550831 0.899182 0.171875
H2    H     H_    0.818080 0.492167 0.103195 0.173926
H3    H     H_    0.268838 0.558329 0.118772 0.177660
H4    H     H_    0.694228 0.325011 0.873954 0.167542
H5    H     H_    0.707402 0.360915 0.733479 0.166657
H6    H     H_    0.259725 0.546743 0.259402 0.204246
N1    N     N_1   0.923170 0.500000 0.500010 -0.042339
N2    N     N_1   0.076830 0.500000 0.499990 -0.043180
O1    O     O_R   0.357240 0.711600 0.500000 -0.571070
O2    O     O_R   0.642760 0.288400 0.500000 -0.583120
O3    O     O_R   0.642760 0.711600 0.500000 -0.576814
O4    O     O_R   0.357240 0.288400 0.500000 -0.582483
O5    O     O_R   0.340660 0.500000 0.613590 -0.550541
O6    O     O_R   0.659340 0.500000 0.386410 -0.532565
O7    O     O_R   0.626230 0.500000 0.613600 -0.603515
O8    O     O_R   0.373770 0.500000 0.386400 -0.597350
O9    O     O_3   0.846668 0.479861 0.254733 -0.572817
C21   C     C_3   0.912651 0.336618 0.242528 -0.266282
H7    H     H_    0.815266 0.251323 0.261120 0.158522
H8    H     H_    0.023953 0.322160 0.278356 0.196145
H9    H     H_    0.960603 0.319754 0.180867 0.185692
O10   O     O_3   0.190687 0.606392 0.748538 -0.564419
C22   C     C_3   0.033238 0.528962 0.757227 -0.230251
H10   H     H_    0.047587 0.413613 0.736002 0.143307
H11   H     H_    0.939562 0.584255 0.721575 0.205720
H12   H     H_    0.977952 0.530873 0.818486 0.181896
Br1   Br    Br    0.689167 0.668027 0.963066 -0.499360
Br2   Br    Br    0.316451 0.270468 0.029929 -0.512313

loop_
_geom_bond_atom_site_label_1
_geom_bond_atom_site_label_2
_ccdc_geom_bond_type
C2    C4    S    
C18   O9    S    
C6    O8    A    
N1    N2    T    
Cu1   O5    S    
Cu2   N1    S    
C5    O7    A    
C9    C11   A    
Cu1   N2    S    
C19   C20   D    
C12   H3    S    
C21   H9    S    
C2    O4    A    
C21   H8    S    
C17   O10   S    
C1    O3    A    
C16   H2    S    
C16   C18   A    
C22   H10   S    
C11   C13   A    
C19   Br2   S    
Cu1   O1    S    
C20   Br1   S    
Cu2   O2    S    
C10   C12   A    
C15   H1    S    
C21   H7    S    
C12   C14   A    
C7    C9    A    
C13   C15   A    
C14   C16   A    
C22   H12   S    
C13   C19   S    
C3    C4    T    
C5    O5    A    
C1    O1    A    
Cu2   O6    S    
O10   C22   S    
C9    H5    S    
C14   C20   S    
C2    O2    A    
C22   H11   S    
C10   H6    S    
O9    C21   S    
C15   C17   A    
Cu2   O3    S    
C5    C7    S    
C6    C8    S    
Cu1   O4    S    
C11   H4    S    
C1    C3    S    
Cu1   Cu2   S    
Cu2   O7    S    
C8    C10   A    
C8    C18   A    
Cu1   O8    S    
C6    O6    A    
C7    C17   A    
