data_mof_unit_13537.cif
_audit_creation_date              2012-12-10T17:22:55-0500
_audit_creation_method            fapswitch 2.2
_symmetry_space_group_name_H-M    P1
_symmetry_Int_Tables_number       1
_space_group_crystal_system       triclinic
_cell_length_a                    10.223757
_cell_length_b                    10.488109
_cell_length_c                    10.892342
_cell_angle_alpha                 90.896543
_cell_angle_beta                  95.240785
_cell_angle_gamma                 81.935634
_cell_volume                      1151.57386068

loop_
_atom_site_label
_atom_site_type_symbol
_atom_type_description
_atom_site_fract_x
_atom_site_fract_y
_atom_site_fract_z
_atom_type_partial_charge
C1    C     C_R   0.443944 0.507685 0.268673 0.893584
C2    C     C_3   0.497508 0.122823 0.499000 -0.003890
C3    C     C_3   0.622791 0.943311 0.481105 -0.116758
C4    C     C_3   0.376399 0.056933 0.516709 -0.107569
C5    C     C_2   0.411449 0.534381 0.140300 -0.314089
C6    C     C_2   0.585447 0.487017 0.863496 -0.406110
C7    C     C_2   0.485605 0.472721 0.056915 -0.163786
C8    C     C_2   0.492097 0.535295 0.937762 -0.069943
C9    C     C_2   0.077248 0.470225 0.512067 0.303772
C10   C     C_2   0.930134 0.490125 0.528149 0.462342
C11   C     C_2   0.391519 0.648306 0.897887 1.013226
C12   C     C_R   0.555622 0.496263 0.731810 0.954147
C13   C     C_2   0.554934 0.339500 0.082942 0.992463
C14   C     C_2   0.880185 0.383622 0.339135 1.028344
C15   C     C_2   0.105541 0.683878 0.570611 0.981065
C16   C     C_R   0.498982 0.257804 0.499350 0.871973
C17   C     C_R   0.500766 0.742267 0.499832 0.884007
C18   C     C_3   0.533880 0.036172 0.389759 -0.139081
C19   C     C_3   0.465317 0.964177 0.608051 -0.132646
C20   C     C_3   0.412920 0.967469 0.407531 -0.178760
C21   C     C_3   0.586303 0.032691 0.590311 -0.180383
C22   C     C_3   0.501745 0.877378 0.498963 -0.006934
H1    H     H_    0.342680 0.935996 0.333153 0.166912
H2    H     H_    0.737027 0.393086 0.095433 0.311585
H3    H     H_    0.961135 0.553026 0.695013 0.313666
H4    H     H_    0.185784 0.376515 0.398790 0.387369
H5    H     H_    0.973703 0.385972 0.183996 0.353237
H6    H     H_    0.967536 0.836213 0.522943 0.342324
H7    H     H_    0.656572 0.064024 0.664742 0.166856
H8    H     H_    0.561648 0.070401 0.301056 0.206972
H9    H     H_    0.437278 0.931076 0.696935 0.216235
H10   H     H_    0.722968 0.892897 0.466223 0.190173
H11   H     H_    0.275891 0.106936 0.531317 0.205714
H12   H     H_    0.670267 0.418080 0.894474 0.169179
H13   H     H_    0.346652 0.623969 0.120925 0.174796
H14   H     H_    0.199438 0.728527 0.883814 0.367487
N1    N     N_2   0.157310 0.552180 0.551120 -0.209742
N2    N     N_2   0.842690 0.447820 0.448880 -0.180922
O1    O     O_R   0.568940 0.489500 0.307530 -0.623388
O2    O     O_R   0.256776 0.644434 0.908359 -0.786589
O3    O     O_2   0.489444 0.252704 0.096049 -0.584901
O4    O     O_R   0.693001 0.312398 0.095485 -0.737980
O5    O     O_3   0.884727 0.551012 0.632469 -0.715399
O6    O     O_3   0.128196 0.355054 0.461473 -0.766356
O7    O     O_2   0.848152 0.277384 0.315898 -0.562506
O8    O     O_R   0.951002 0.442589 0.257486 -0.818967
O9    O     O_2   0.166389 0.748399 0.643738 -0.599690
O10   O     O_R   0.990933 0.741823 0.501617 -0.808888
O11   O     O_R   0.431060 0.510500 0.692470 -0.595518
O12   O     O_R   0.348880 0.522990 0.340350 -0.627384
O13   O     O_R   0.651120 0.477010 0.659650 -0.557068
O14   O     O_R   0.610000 0.297210 0.483560 -0.601090
O15   O     O_R   0.390000 0.702790 0.516440 -0.594612
O16   O     O_R   0.389940 0.330700 0.516390 -0.613215
O17   O     O_R   0.610060 0.669300 0.483610 -0.592036
O18   O     O_2   0.427264 0.743051 0.854303 -0.633530
Zn1   Zn    Zn3+2 0.646930 0.477640 0.478080 1.050832
Zn2   Zn    Zn3+2 0.353070 0.522360 0.521920 1.021469

loop_
_geom_bond_atom_site_label_1
_geom_bond_atom_site_label_2
_ccdc_geom_bond_type
C7    C13   S    
C2    C4    S    
O15   Zn2   S    
C19   C22   S    
C18   H8    S    
C17   C22   S    
C2    C18   S    
N2    Zn1   S    
C2    C16   S    
C9    C10   S    
C17   O17   A    
N1    Zn2   S    
C20   H1    S    
C15   O9    D    
C10   N2    D    
C19   H9    S    
H3    O5    S    
C2    C21   S    
C13   O3    D    
C12   O11   A    
H4    O6    S    
C7    C8    S    
C14   O8    S    
C3    H10   S    
C11   O18   D    
C15   O10   S    
C8    C11   S    
C1    C5    S    
C5    H13   S    
H5    O8    S    
C9    N1    D    
C13   O4    S    
C19   C21   S    
C20   C22   S    
C14   O7    D    
C18   C20   S    
O17   Zn1   S    
C4    C20   S    
C6    C12   S    
C11   O2    S    
O16   Zn2   S    
C16   O16   A    
C3    C21   S    
C14   N2    S    
O14   Zn1   S    
C1    O1    A    
O12   Zn2   S    
C17   O15   A    
O13   Zn1   S    
H14   O2    S    
C12   O13   A    
H2    O4    S    
C3    C18   S    
C16   O14   A    
C1    O12   A    
C5    C7    D    
C4    H11   S    
H6    O10   S    
C3    C22   S    
C6    C8    D    
C10   O5    S    
C4    C19   S    
C21   H7    S    
C15   N1    S    
O11   Zn2   S    
C6    H12   S    
C9    O6    S    
O1    Zn1   S    
