data_mof_unit_52197.cif
_audit_creation_date              2012-12-10T20:41:49-0500
_audit_creation_method            fapswitch 2.2
_symmetry_space_group_name_H-M    P1
_symmetry_Int_Tables_number       1
_space_group_crystal_system       triclinic
_cell_length_a                    14.953317
_cell_length_b                    15.09658
_cell_length_c                    9.981778
_cell_angle_alpha                 89.568374
_cell_angle_beta                  90.373901
_cell_angle_gamma                 89.547899
_cell_volume                      2253.14301159

loop_
_atom_site_label
_atom_site_type_symbol
_atom_type_description
_atom_site_fract_x
_atom_site_fract_y
_atom_site_fract_z
_atom_type_partial_charge
C1    C     C_R   0.382299 0.878027 0.500161 0.863521
C2    C     C_R   0.922984 0.515240 0.069170 0.147714
C3    C     C_R   0.575021 0.977437 0.073126 0.011972
C4    C     C_R   0.075393 0.478583 0.073113 -0.040369
C5    C     C_R   0.574932 0.977159 0.928845 0.046843
C6    C     C_R   0.075306 0.478326 0.928779 0.045847
C7    C     C_R   0.424018 0.019085 0.928474 0.081850
C8    C     C_R   0.923548 0.516839 0.928314 0.084953
C9    C     C_3   0.365488 0.100851 0.919918 -0.174506
C10   C     C_3   0.863077 0.597076 0.919889 -0.190430
C11   C     C_3   0.362908 0.098270 0.075752 -0.181244
C12   C     C_R   0.380663 0.119852 0.499626 0.837505
C13   C     C_3   0.859009 0.592996 0.075429 -0.185895
C14   C     C_R   0.622091 0.117558 0.499959 0.851944
C15   C     C_R   0.619797 0.880676 0.500623 0.853377
C16   C     C_R   0.122138 0.617519 0.499989 0.900990
C17   C     C_R   0.119583 0.380450 0.500650 0.839750
C18   C     C_R   0.327325 0.261620 0.572992 0.054943
C19   C     C_R   0.295556 0.768520 0.622243 0.219470
C20   C     C_R   0.826007 0.760312 0.577009 0.036322
C21   C     C_R   0.795033 0.268999 0.622189 0.213877
C22   C     C_R   0.313397 0.184629 0.500546 -0.127381
C23   C     C_R   0.882277 0.378054 0.500150 0.882708
C24   C     C_R   0.327246 0.801734 0.501055 -0.124174
C25   C     C_R   0.813546 0.684823 0.500525 -0.098222
C26   C     C_R   0.827100 0.301864 0.501023 -0.138855
C27   C     C_R   0.229935 0.166056 0.444312 -0.157062
C28   C     C_R   0.307065 0.758351 0.380939 -0.195931
C29   C     C_R   0.731364 0.667697 0.439142 -0.168527
C30   C     C_R   0.807094 0.258326 0.380964 -0.167191
C31   C     C_R   0.666014 0.733001 0.438863 -0.128518
C32   C     C_R   0.742245 0.193575 0.380741 -0.198946
C33   C     C_R   0.164489 0.231351 0.443998 -0.097010
C34   C     C_R   0.880894 0.620102 0.499614 0.886977
C35   C     C_R   0.242271 0.693549 0.380759 -0.186243
C36   C     C_R   0.683698 0.812754 0.503632 -0.045112
C37   C     C_R   0.698344 0.173034 0.500605 -0.114163
C38   C     C_R   0.183470 0.312476 0.503876 -0.056989
C39   C     C_R   0.198586 0.672780 0.500724 -0.057725
C40   C     C_R   0.760514 0.823730 0.580174 0.196589
C41   C     C_R   0.730774 0.205121 0.621725 0.059423
C42   C     C_R   0.261761 0.324964 0.576309 0.179467
C43   C     C_R   0.231360 0.704587 0.621863 0.051758
C44   C     C_3   0.825979 0.898169 0.578832 -0.585278
C45   C     C_3   0.400493 0.329054 0.565880 -0.264309
C46   C     C_3   0.681065 0.245867 0.735509 -0.461150
C47   C     C_3   0.326732 0.399549 0.568991 -0.469097
C48   C     C_3   0.182259 0.744761 0.736773 -0.460017
C49   C     C_2   0.403122 0.179013 0.142901 0.512033
C50   C     C_2   0.273940 0.074085 0.136131 0.338468
C51   C     C_2   0.896971 0.674028 0.143222 0.420307
C52   C     C_2   0.769286 0.566950 0.132803 0.468897
C53   C     C_2   0.454244 0.324851 0.438533 0.475501
C54   C     C_2   0.308526 0.816649 0.863736 0.432489
C55   C     C_2   0.953004 0.829044 0.449062 0.439209
C56   C     C_3   0.253056 0.816291 0.737074 -0.252162
C57   C     C_2   0.806580 0.318190 0.863400 0.442621
C58   C     C_2   0.659315 0.963317 0.148099 0.487421
C59   C     C_2   0.159748 0.464719 0.148112 0.509960
C60   C     C_2   0.658947 0.961976 0.855761 0.463883
C61   C     C_2   0.159456 0.464022 0.855520 0.474759
C62   C     C_2   0.410048 0.183024 0.863254 0.508877
C63   C     C_2   0.278351 0.081640 0.848563 0.452812
C64   C     C_2   0.906343 0.680604 0.865538 0.468854
C65   C     C_2   0.777248 0.577285 0.845946 0.380188
C66   C     C_3   0.899305 0.827704 0.575953 -0.214507
C67   C     C_3   0.751888 0.317263 0.736010 -0.265027
C68   C     C_R   0.423545 0.017946 0.069377 0.059044
H1    H     H_    0.216496 0.102570 0.399074 0.160302
H2    H     H_    0.226307 0.882637 0.708104 0.141090
H3    H     H_    0.940675 0.825689 0.668880 0.204582
H4    H     H_    0.725140 0.383369 0.706024 0.133932
H5    H     H_    0.359415 0.231612 0.177920 0.123080
H6    H     H_    0.265850 0.011341 0.188458 0.075710
H7    H     H_    0.967301 0.676691 0.170550 0.096567
H8    H     H_    0.713729 0.613563 0.127414 0.142274
H9    H     H_    0.603196 0.722351 0.386867 0.159992
H10   H     H_    0.722406 0.164934 0.286090 0.175196
H11   H     H_    0.100625 0.219636 0.395577 0.165937
H12   H     H_    0.336016 0.778520 0.286393 0.180375
H13   H     H_    0.222222 0.665152 0.286048 0.154212
H14   H     H_    0.825251 0.936003 0.673840 0.233088
H15   H     H_    0.614071 0.271477 0.704584 0.224221
H16   H     H_    0.327424 0.438898 0.662616 0.207456
H17   H     H_    0.114977 0.770319 0.707305 0.256413
H18   H     H_    0.496021 0.267249 0.420138 0.080241
H19   H     H_    0.278090 0.838067 0.956522 0.042531
H20   H     H_    0.919764 0.834818 0.352502 0.141863
H21   H     H_    0.775681 0.340390 0.955421 0.090566
H22   H     H_    0.683130 0.013497 0.215972 0.052615
H23   H     H_    0.718741 0.605316 0.390305 0.172510
H24   H     H_    0.183112 0.514628 0.216723 0.044490
H25   H     H_    0.681834 0.010483 0.783695 0.062157
H26   H     H_    0.182273 0.513147 0.784401 0.051730
H27   H     H_    0.371516 0.243990 0.854037 0.105299
H28   H     H_    0.263904 0.015313 0.814435 0.029403
H29   H     H_    0.866237 0.740516 0.855525 0.135329
H30   H     H_    0.771336 0.517467 0.787614 0.067595
H31   H     H_    0.836280 0.278299 0.286488 0.198238
H32   H     H_    0.820063 0.939939 0.486736 0.192439
H33   H     H_    0.681310 0.201974 0.825594 0.220866
H34   H     H_    0.317822 0.439845 0.476040 0.224614
H35   H     H_    0.183130 0.700453 0.826395 0.201599
H36   H     H_    0.443176 0.328473 0.657410 0.164306
N1    N     N_R   0.499140 1.000000 0.142800 -0.118918
N2    N     N_R   0.999140 0.500000 0.142800 -0.174023
N3    N     N_R   0.499160 1.000000 0.857150 -0.105106
N4    N     N_R   0.999160 0.500000 0.857150 -0.109433
O1    O     O_R   0.408400 0.908380 0.614690 -0.593603
O2    O     O_R   0.591610 0.908390 0.614650 -0.604453
O3    O     O_R   0.091610 0.591610 0.614650 -0.613077
O4    O     O_R   0.091610 0.408390 0.614650 -0.603494
O5    O     O_R   0.591590 0.091600 0.385310 -0.617510
O6    O     O_R   0.591590 0.908400 0.385310 -0.622296
O7    O     O_R   0.091590 0.591600 0.385310 -0.664399
O8    O     O_R   0.091590 0.408400 0.385310 -0.617600
O9    O     O_2   0.483985 0.187743 0.154130 -0.553362
O10   O     O_2   0.210451 0.125268 0.127980 -0.503695
O11   O     O_2   0.849682 0.739028 0.161797 -0.553487
O12   O     O_R   0.408400 0.091620 0.614690 -0.607064
O13   O     O_2   0.758061 0.494545 0.185353 -0.584886
O14   O     O_2   0.453346 0.385641 0.357149 -0.525111
O15   O     O_2   0.387179 0.794170 0.863788 -0.526255
O16   O     O_2   0.034442 0.824244 0.454071 -0.596027
O17   O     O_2   0.885109 0.295273 0.864886 -0.521009
O18   O     O_2   0.701396 0.894089 0.138526 -0.481516
O19   O     O_2   0.202480 0.395937 0.137571 -0.494787
O20   O     O_2   0.702196 0.893864 0.872489 -0.512315
O21   O     O_2   0.202953 0.395950 0.871096 -0.510413
O22   O     O_2   0.488949 0.183326 0.832958 -0.589947
O23   O     O_R   0.908400 0.408380 0.614690 -0.602044
O24   O     O_2   0.222622 0.140178 0.830584 -0.500033
O25   O     O_2   0.985739 0.683211 0.838340 -0.619036
O26   O     O_2   0.714546 0.629557 0.848291 -0.536342
O27   O     O_R   0.908400 0.591620 0.614690 -0.611538
O28   O     O_R   0.408370 0.908370 0.385350 -0.631807
O29   O     O_R   0.408370 0.091630 0.385350 -0.626267
O30   O     O_R   0.908370 0.408370 0.385350 -0.584612
O31   O     O_R   0.908370 0.591630 0.385350 -0.622962
O32   O     O_R   0.591610 0.091610 0.614650 -0.609592
Zn1   Zn    Zn3+2 0.500010 0.000000 0.653130 1.005802
Zn2   Zn    Zn3+2 0.000010 0.500000 0.653130 1.008290
Zn3   Zn    Zn3+2 0.499980 1.000000 0.346870 0.972659
Zn4   Zn    Zn3+2 0.999980 0.500000 0.346870 0.971371

loop_
_geom_bond_atom_site_label_1
_geom_bond_atom_site_label_2
_ccdc_geom_bond_type
C19   C56   S    
C54   O15   D    
C17   O4    A    
C62   O22   D    
C23   O30   A    
C44   C66   S    
C21   C26   A    
N4    Zn2   S    
C35   H13   S    
C16   O7    A    
C27   C33   A    
C57   H21   S    
C6    C61   S    
C20   C66   S    
C51   H7    S    
C65   H30   S    
C38   C42   A    
O28   Zn3   S    
C44   H14   S    
C53   O14   D    
C50   H6    S    
C57   O17   D    
C54   H19   S    
C20   C40   A    
C20   C25   A    
O7    Zn4   S    
C59   O19   D    
C12   C22   S    
C34   O31   A    
C48   C56   S    
C67   H4    S    
C52   O13   D    
C23   C26   S    
O4    Zn2   S    
C55   H20   S    
C2    C13   S    
O3    Zn2   S    
C1    O1    A    
C7    C68   A    
C12   O12   A    
O27   Zn2   S    
C49   O9    D    
C28   C35   A    
C51   O11   D    
C41   C46   S    
C53   H18   S    
N3    Zn1   S    
C1    O28   A    
C43   C48   S    
C31   C36   A    
C65   O26   D    
C27   H1    S    
C61   O21   D    
C25   C34   S    
C17   C38   S    
C60   H25   S    
O29   Zn3   S    
C45   C53   S    
C47   H34   S    
C13   C51   S    
C62   H27   S    
C21   C67   S    
C15   O2    A    
C57   C67   S    
C8    N4    A    
C19   C43   A    
C31   H9    S    
C45   C47   S    
C25   C29   A    
C46   H33   S    
C54   C56   S    
C9    C62   S    
C36   C40   A    
O32   Zn1   S    
O8    Zn4   S    
C4    C6    A    
C61   H26   S    
C33   H11   S    
C39   C43   A    
C3    C5    A    
C32   C37   A    
C48   H35   S    
C4    N2    A    
C30   H31   S    
C2    N2    A    
C3    N1    A    
O5    Zn3   S    
O2    Zn1   S    
C35   C39   A    
C11   C49   S    
C45   H36   S    
C13   C52   S    
C58   H22   S    
O31   Zn4   S    
C66   H3    S    
C60   O20   D    
C15   O6    A    
C23   O23   A    
C47   H16   S    
N2    Zn4   S    
C9    C11   S    
O23   Zn2   S    
C21   C41   A    
C64   H29   S    
C14   O32   A    
C58   O18   D    
C56   H2    S    
C22   C27   A    
C49   H5    S    
C68   N1    A    
C18   C45   S    
C15   C36   S    
C29   H23   S    
C55   C66   S    
C11   C68   S    
C5    N3    A    
C10   C65   S    
C7    C9    S    
C64   O25   D    
C5    C60   S    
C50   O10   D    
C9    C63   S    
C12   O29   A    
C10   C64   S    
O12   Zn1   S    
C24   C28   A    
C52   H8    S    
C10   C13   S    
N1    Zn3   S    
C26   C30   A    
C18   C22   A    
C14   O5    A    
C33   C38   A    
O6    Zn3   S    
C18   C42   A    
C19   C24   A    
C46   C67   S    
C29   C31   A    
C11   C50   S    
O30   Zn4   S    
C14   C37   S    
C30   C32   A    
C44   H32   S    
C34   O27   A    
C63   H28   S    
C4    C59   S    
C63   O24   D    
C7    N3    A    
C42   C47   S    
C37   C41   A    
C28   H12   S    
C16   C39   S    
C32   H10   S    
C46   H15   S    
C3    C58   S    
C40   C44   S    
C16   O3    A    
C1    C24   S    
C8    C10   S    
C55   O16   D    
C2    C8    A    
C6    N4    A    
C48   H17   S    
O1    Zn1   S    
C59   H24   S    
C17   O8    A    
