data_mof_unit_59993.cif
_audit_creation_date              2012-12-11T15:59:28-0500
_audit_creation_method            fapswitch 2.2
_symmetry_space_group_name_H-M    P1
_symmetry_Int_Tables_number       1
_space_group_crystal_system       triclinic
_cell_length_a                    10.702661
_cell_length_b                    10.745877
_cell_length_c                    17.105218
_cell_angle_alpha                 99.292592
_cell_angle_beta                  99.515615
_cell_angle_gamma                 61.33683
_cell_volume                      1694.73824459

loop_
_atom_site_label
_atom_site_type_symbol
_atom_type_description
_atom_site_fract_x
_atom_site_fract_y
_atom_site_fract_z
_atom_type_partial_charge
C1    C     C_R   0.357818 0.766986 0.397169 0.523929
C2    C     C_R   0.859692 0.202680 0.199086 0.032679
C3    C     C_R   0.869115 0.214214 0.282928 0.022831
C4    C     C_R   0.779789 0.470378 0.284230 -0.142410
C5    C     C_R   0.785336 0.457307 0.203832 -0.157849
C6    C     C_R   0.880808 0.069928 0.157329 -0.064673
C7    C     C_R   0.931973 0.949097 0.197530 -0.135929
C8    C     C_R   0.956065 0.958817 0.280141 -0.133214
C9    C     C_R   0.924071 0.090218 0.322815 -0.094877
C10   C     C_R   0.821304 0.350240 0.324561 0.004170
C11   C     C_R   0.355672 0.814637 0.156602 -0.001284
C12   C     C_R   0.370167 0.347006 0.357446 0.555738
C13   C     C_R   0.450654 0.846360 0.214593 0.024382
C14   C     C_R   0.437432 0.851592 0.296015 0.006679
C15   C     C_R   0.283269 0.738465 0.256767 -0.137837
C16   C     C_R   0.282897 0.749396 0.177842 -0.150780
C17   C     C_R   0.556186 0.875345 0.194321 -0.093958
C18   C     C_R   0.633084 0.924845 0.252466 -0.129479
C19   C     C_R   0.611013 0.942141 0.331940 -0.100665
C20   C     C_R   0.512748 0.907660 0.353810 -0.101788
C21   C     C_R   0.351077 0.798080 0.316663 0.008619
C22   C     C_R   0.329327 0.315908 0.813559 -0.000671
C23   C     C_R   0.774853 0.378756 0.403237 0.528615
C24   C     C_R   0.432992 0.201004 0.766954 -0.003014
C25   C     C_R   0.402192 0.192599 0.684119 0.016714
C26   C     C_R   0.219744 0.439702 0.695386 -0.160124
C27   C     C_R   0.221307 0.433645 0.776079 -0.154698
C28   C     C_R   0.564595 0.093282 0.798960 -0.093959
C29   C     C_R   0.645636 0.969935 0.751657 -0.175212
C30   C     C_R   0.596676 0.950863 0.672312 -0.063614
C31   C     C_R   0.472463 0.059676 0.637995 0.308685
C32   C     C_R   0.316025 0.321189 0.649845 -0.011532
C33   C     C_1   0.817091 0.342152 0.709082 -0.036626
C34   C     C_R   0.358704 0.767984 0.627709 0.551652
C35   C     C_1   0.844545 0.313913 0.776769 -0.034654
C36   C     C_1   0.339372 0.810075 0.709521 -0.044556
C37   C     C_1   0.313240 0.838762 0.777456 -0.036207
C38   C     C_R   0.891726 0.307803 0.087257 0.542854
C39   C     C_R   0.318897 0.298911 0.120157 0.550815
C40   C     C_R   0.298355 0.886507 0.083662 0.547682
C41   C     C_R   0.886494 0.297237 0.858992 0.548854
C42   C     C_R   0.308021 0.290529 0.891028 0.540285
C43   C     C_R   0.278771 0.885403 0.857089 0.549620
C44   C     C_R   0.365383 0.345776 0.581833 0.565953
C45   C     C_R   0.772694 0.381012 0.629896 0.541971
C46   C     C_1   0.343411 0.336556 0.274122 -0.032345
C47   C     C_1   0.331870 0.325917 0.203378 -0.033332
C48   C     C_R   0.831577 0.324100 0.160960 -0.004111
Cr1   Cr    Cr6+3 0.608100 0.610860 0.522250 1.021946
Cr2   Cr    Cr6+3 0.288890 0.599990 0.488420 1.006113
Cr3   Cr    Cr6+3 0.603040 0.289190 0.489390 1.021883
Cr4   Cr    Cr6+3 0.053960 0.052250 0.967380 1.006141
Cr5   Cr    Cr6+3 0.059890 0.373160 0.992710 1.015143
Cr6   Cr    Cr6+3 0.373370 0.061690 0.991710 1.006938
H1    H     H_    0.739060 0.577053 0.314410 0.158538
H2    H     H_    0.708524 0.951514 0.235352 0.133771
H3    H     H_    0.671124 0.981241 0.376822 0.140375
H4    H     H_    0.496560 0.926160 0.416017 0.181632
H5    H     H_    0.147824 0.538698 0.669550 0.147491
H6    H     H_    0.608114 0.104624 0.859843 0.146355
H7    H     H_    0.140564 0.521850 0.809450 0.139522
H8    H     H_    0.744964 0.887579 0.777120 0.121323
H9    H     H_    0.656772 0.852186 0.636905 0.143644
H10   H     H_    0.853273 0.057867 0.093947 0.135862
H11   H     H_    0.759608 0.551400 0.175720 0.136881
H12   H     H_    0.949629 0.848098 0.164597 0.101863
H13   H     H_    0.994342 0.865275 0.311404 0.126693
H14   H     H_    0.943643 0.093740 0.387062 0.116455
H15   H     H_    0.227374 0.684622 0.270734 0.140559
H16   H     H_    0.584848 0.855430 0.134253 0.135359
H17   H     H_    0.217409 0.715500 0.133711 0.130437
O1    O     O_R   0.749810 0.499790 0.438040 -0.525987
O2    O     O_R   0.298970 0.468800 0.557390 -0.513528
O3    O     O_R   0.489400 0.255930 0.561910 -0.475789
O4    O     O_R   0.723890 0.306050 0.584610 -0.502084
O5    O     O_3   0.500010 0.500010 0.500020 -0.251866
O6    O     O_R   0.171100 0.914680 0.053100 -0.517469
O7    O     O_R   0.941680 0.184840 0.050710 -0.514413
O8    O     O_R   0.922080 0.403420 0.072610 -0.517653
O9    O     O_R   0.196880 0.369150 0.083850 -0.501790
O10   O     O_R   0.411730 0.181020 0.091530 -0.515675
O11   O     O_R   0.365010 0.944360 0.063320 -0.513725
O12   O     O_R   0.477660 0.726260 0.439290 -0.494874
O13   O     O_R   0.159380 0.906670 0.876210 -0.514351
O14   O     O_R   0.930820 0.177420 0.886730 -0.500903
O15   O     O_R   0.910360 0.395420 0.895720 -0.513927
O16   O     O_R   0.186010 0.361730 0.919870 -0.500169
O17   O     O_R   0.400000 0.173010 0.914630 -0.529269
O18   O     O_R   0.354140 0.936940 0.899340 -0.497775
O19   O     O_3   0.162410 0.162370 0.983930 -0.243662
O20   O     O_R   0.260150 0.743000 0.412270 -0.537730
O21   O     O_R   0.297740 0.466550 0.394720 -0.508235
O22   O     O_R   0.488080 0.253500 0.386430 -0.512464
O23   O     O_R   0.722670 0.303800 0.421940 -0.508608
O24   O     O_R   0.751130 0.502220 0.613520 -0.516826
O25   O     O_R   0.478890 0.728510 0.601960 -0.484660
O26   O     O_R   0.261470 0.745430 0.587750 -0.520656
O27   O     O_3   0.427837 0.034927 0.558668 -0.576049
C49   C     C_3   0.279679 0.075410 0.548087 -0.104616
H18   H     H_    0.239519 0.062411 0.600775 0.103126
H19   H     H_    0.259169 0.007316 0.497376 0.141550
H20   H     H_    0.216710 0.186559 0.531981 0.111825

loop_
_geom_bond_atom_site_label_1
_geom_bond_atom_site_label_2
_ccdc_geom_bond_type
C25   C31   A    
C1    C21   S    
C33   C45   S    
Cr4   O19   S    
C19   C20   A    
Cr3   O3    S    
C7    C8    A    
C19   H3    S    
C26   C32   A    
C41   O15   A    
C26   C27   A    
C43   O18   A    
C14   C21   A    
C28   C29   A    
Cr5   O8    S    
C34   O25   A    
Cr6   O19   S    
C30   C31   A    
C38   O8    A    
C15   C16   A    
C34   O26   A    
C14   C20   A    
C18   C19   A    
C31   O27   S    
C6    H10   S    
Cr4   O13   S    
C27   H7    S    
C29   H8    S    
C8    C9    A    
Cr1   O1    S    
Cr5   O15   S    
C26   H5    S    
C38   C48   S    
C18   H2    S    
C25   C32   A    
C17   H16   S    
C1    O20   A    
C30   H9    S    
C43   O13   A    
C2    C6    A    
C16   H17   S    
Cr4   O7    S    
C28   H6    S    
C15   H15   S    
C5    C48   A    
C40   O11   A    
Cr5   O9    S    
C24   C25   A    
C39   O10   A    
Cr6   O18   S    
C12   C46   S    
Cr2   O2    S    
C38   O7    A    
C2    C48   A    
Cr1   O24   S    
C37   C43   S    
C29   C30   A    
C3    C9    A    
Cr2   O5    S    
C11   C16   A    
C49   H18   S    
C17   C18   A    
C32   C44   S    
Cr1   O5    S    
Cr5   O16   S    
Cr3   O5    S    
C44   O3    A    
Cr3   O22   S    
C5    H11   S    
C49   H19   S    
C22   C27   A    
C4    H1    S    
C22   C24   A    
C12   O22   A    
C42   O17   A    
C4    C10   A    
Cr4   O6    S    
C45   O24   A    
Cr6   O11   S    
C39   C47   S    
Cr2   O21   S    
C44   O2    A    
C46   C47   T    
Cr4   O14   S    
Cr2   O26   S    
C23   O1    A    
C12   O21   A    
C24   C28   A    
Cr3   O4    S    
C4    C5    A    
C6    C7    A    
C10   C23   S    
C1    O12   A    
C41   O14   A    
C23   O23   A    
C13   C17   A    
C45   O4    A    
C39   O9    A    
Cr1   O12   S    
C2    C3    A    
C9    H14   S    
C3    C10   A    
C7    H12   S    
Cr6   O17   S    
C11   C13   A    
C22   C42   S    
C33   C35   T    
C34   C36   S    
Cr1   O25   S    
C11   C40   S    
C35   C41   S    
Cr3   O23   S    
Cr2   O20   S    
C15   C21   A    
C49   H20   S    
C8    H13   S    
C36   C37   T    
O27   C49   S    
Cr5   O19   S    
C40   O6    A    
C42   O16   A    
C13   C14   A    
C20   H4    S    
Cr6   O10   S    
