data_mof_unit_49297.cif
_audit_creation_date              2012-12-10T19:07:00-0500
_audit_creation_method            fapswitch 2.2
_symmetry_space_group_name_H-M    P1
_symmetry_Int_Tables_number       1
_space_group_crystal_system       triclinic
_cell_length_a                    27.814624
_cell_length_b                    10.812359
_cell_length_c                    9.537348
_cell_angle_alpha                 90.016037
_cell_angle_beta                  90.123661
_cell_angle_gamma                 90.16022
_cell_volume                      2868.26024008

loop_
_atom_site_label
_atom_site_type_symbol
_atom_type_description
_atom_site_fract_x
_atom_site_fract_y
_atom_site_fract_z
_atom_type_partial_charge
C1    C     C_R   0.499047 0.262310 0.499932 0.805003
C2    C     C_R   0.278771 0.512578 0.624739 -0.103869
C3    C     C_R   0.253655 0.499354 0.498286 0.361368
C4    C     C_R   0.102002 0.501084 0.495636 -0.048030
C5    C     C_R   0.127322 0.389554 0.478095 -0.019754
C6    C     C_R   0.101863 0.279289 0.459552 -0.144095
C7    C     C_R   0.127917 0.611974 0.514375 -0.021507
C8    C     C_R   0.354503 0.499504 0.499377 -0.038674
C9    C     C_R   0.645428 0.500419 0.498890 -0.038622
C10   C     C_R   0.974244 0.388762 0.488156 0.062066
C11   C     C_R   0.974924 0.616691 0.498588 -0.025174
C12   C     C_R   0.407455 0.499831 0.499830 0.799068
C13   C     C_R   0.949259 0.503278 0.493633 0.066511
C14   C     C_R   0.947092 0.278008 0.490595 -0.207514
C15   C     C_R   0.897248 0.279732 0.492329 -0.145380
C16   C     C_R   0.872356 0.391669 0.492443 0.007681
C17   C     C_R   0.898098 0.504197 0.493379 -0.110837
C18   C     C_R   0.872587 0.617161 0.493923 -0.127838
C19   C     C_R   0.821801 0.613779 0.493418 0.560525
C20   C     C_R   0.821977 0.393260 0.493054 0.532690
C21   C     C_R   0.720553 0.462300 0.377166 -0.093373
C22   C     C_R   0.670421 0.461571 0.378820 -0.218245
C23   C     C_R   0.499205 0.737716 0.499937 0.805664
C24   C     C_R   0.671464 0.540530 0.616785 -0.218756
C25   C     C_R   0.721583 0.541411 0.614915 -0.103736
C26   C     C_R   0.746299 0.502226 0.495193 0.347540
C27   C     C_R   0.025305 0.388439 0.481417 0.040540
C28   C     C_R   0.050888 0.501711 0.494588 0.069532
C29   C     C_R   0.025956 0.615610 0.506913 0.071868
C30   C     C_R   0.051924 0.278467 0.461021 -0.209516
C31   C     C_R   0.103054 0.722782 0.532557 -0.147375
C32   C     C_R   0.948619 0.728066 0.493114 -0.296258
C33   C     C_R   0.898409 0.729556 0.494580 0.517054
C34   C     C_R   0.592521 0.500146 0.499966 0.800373
C35   C     C_R   0.053137 0.724787 0.529376 -0.207269
C36   C     C_R   0.494029 0.063685 0.625650 0.121566
C37   C     C_R   0.494167 0.129227 0.499663 -0.096419
C38   C     C_R   0.487553 0.064347 0.373256 -0.208864
C39   C     C_R   0.487703 0.935446 0.373257 -0.208674
C40   C     C_R   0.494454 0.870793 0.499666 -0.097556
C41   C     C_R   0.494247 0.936440 0.625632 0.137568
C42   C     C_3   0.528162 0.930643 0.747097 -0.476025
C43   C     C_3   0.527750 0.071036 0.747487 -0.453730
C44   C     C_R   0.522589 0.592444 0.073995 0.252706
C45   C     C_R   0.177801 0.391069 0.478933 0.534355
C46   C     C_R   0.473806 0.415958 0.074254 -0.080209
C47   C     C_R   0.473794 0.415975 0.925304 -0.080654
C48   C     C_R   0.522818 0.592003 0.926485 0.259935
C49   C     C_3   0.575151 0.621749 0.922428 -0.516061
C50   C     C_3   0.574643 0.624549 0.081225 -0.487057
C51   C     C_R   0.178377 0.609250 0.515442 0.536017
C52   C     C_R   0.278877 0.486032 0.372412 -0.103652
C53   C     C_R   0.329010 0.486400 0.372738 -0.213881
C54   C     C_R   0.328909 0.512319 0.625500 -0.214406
Cu1   Cu    Cu3+1 0.500000 0.499980 0.640670 0.945241
Cu2   Cu    Cu3+1 0.500000 0.500020 0.359330 0.943350
H1    H     H_    0.347568 0.522693 0.724601 0.159276
H2    H     H_    0.259566 0.475911 0.274357 0.138243
H3    H     H_    0.122119 0.809014 0.549721 0.188450
H4    H     H_    0.965961 0.816812 0.483471 0.152473
H5    H     H_    0.653223 0.573095 0.709440 0.146662
H6    H     H_    0.741281 0.572649 0.706422 0.138677
H7    H     H_    0.036930 0.813525 0.548595 0.136454
H8    H     H_    0.484635 0.112485 0.274026 0.160400
H9    H     H_    0.484871 0.887194 0.274019 0.163736
H10   H     H_    0.511154 0.889452 0.841637 0.197337
H11   H     H_    0.259374 0.522796 0.722354 0.138445
H12   H     H_    0.563643 0.891073 0.718164 0.196671
H13   H     H_    0.510296 0.110904 0.841958 0.195193
H14   H     H_    0.563019 0.112910 0.719526 0.205972
H15   H     H_    0.453353 0.346467 0.129990 0.136353
H16   H     H_    0.453324 0.346512 0.869269 0.140621
H17   H     H_    0.596747 0.543848 0.880807 0.215660
H18   H     H_    0.582608 0.713367 0.874540 0.192736
H19   H     H_    0.596864 0.550249 0.128528 0.217694
H20   H     H_    0.580732 0.718451 0.125419 0.198462
H21   H     H_    0.120477 0.192503 0.443804 0.187526
H22   H     H_    0.651266 0.429536 0.286729 0.149745
H23   H     H_    0.739447 0.432067 0.284166 0.142509
H24   H     H_    0.878237 0.192162 0.493625 0.186828
H25   H     H_    0.963199 0.187631 0.494117 0.136718
H26   H     H_    0.035315 0.189835 0.442832 0.138278
H27   H     H_    0.347743 0.476065 0.274022 0.157391
N1    N     N_R   0.202146 0.499879 0.497604 -0.470104
N2    N     N_R   0.797879 0.503101 0.493544 -0.476085
N3    N     N_R   0.500300 0.500930 0.147930 -0.184294
N4    N     N_R   0.500310 0.500890 0.852020 -0.183688
O1    O     O_R   0.500000 0.319640 0.618810 -0.581345
O2    O     O_2   0.797165 0.285772 0.494260 -0.536284
O3    O     O_2   0.203531 0.715055 0.533184 -0.531104
O4    O     O_2   0.796298 0.719722 0.492181 -0.479118
O5    O     O_R   0.500010 0.319680 0.381230 -0.587715
O6    O     O_R   0.430260 0.500000 0.618780 -0.584599
O7    O     O_R   0.430270 0.500040 0.381190 -0.584316
O8    O     O_R   0.499990 0.680320 0.618770 -0.577441
O9    O     O_R   0.500000 0.680360 0.381190 -0.584129
O10   O     O_R   0.569730 0.499960 0.618810 -0.581943
O11   O     O_R   0.569740 0.500000 0.381220 -0.583139
O12   O     O_2   0.202395 0.284673 0.462168 -0.532160
O13   O     O_3   0.874845 0.841910 0.485558 -0.531691
C55   C     C_3   0.877795 0.902284 0.616495 -0.236058
H28   H     H_    0.864537 0.842227 0.703199 0.160607
H29   H     H_    0.854480 0.985292 0.613267 0.204466
H30   H     H_    0.915084 0.934249 0.638553 0.126419

loop_
_geom_bond_atom_site_label_1
_geom_bond_atom_site_label_2
_ccdc_geom_bond_type
C10   C27   A    
C21   C26   A    
C40   C41   A    
C55   H28   S    
C41   C42   S    
Cu1   O10   S    
Cu2   O11   S    
Cu1   Cu2   S    
Cu2   O7    S    
C28   C29   A    
C24   H5    S    
C16   C20   A    
C51   O3    S    
C5    C6    A    
C9    C22   A    
C23   C40   S    
C45   O12   S    
C34   O10   A    
C23   O9    A    
C18   C19   A    
C31   H3    S    
Cu1   O1    S    
C16   C17   A    
C1    C37   S    
C1    O1    A    
C43   H13   S    
C21   C22   A    
C27   C30   A    
C42   H12   S    
C39   H9    S    
C12   O7    A    
C36   C41   A    
C4    C7    A    
C44   N3    A    
C4    C28   A    
C38   H8    S    
C7    C31   A    
C24   C25   A    
C22   H22   S    
Cu1   O8    S    
C2    H11   S    
C10   C14   A    
C8    C54   A    
C39   C40   A    
C6    H21   S    
C25   C26   A    
C5    C45   A    
C47   N4    A    
C30   H26   S    
C37   C38   A    
C50   H20   S    
Cu2   N3    S    
C15   H24   S    
C8    C12   S    
C20   N2    A    
C21   H23   S    
C17   C18   A    
C48   N4    A    
C46   H15   S    
C52   H2    S    
C48   C49   S    
C6    C30   A    
C11   C32   A    
C1    O5    A    
C2    C54   A    
C9    C34   S    
C31   C35   A    
C12   O6    A    
C45   N1    A    
C42   C43   S    
C32   H4    S    
C3    N1    S    
C52   C53   A    
C44   C50   S    
Cu2   O9    S    
C46   C47   A    
C36   C37   A    
Cu1   O6    S    
C14   C15   A    
C4    C5    A    
C19   N2    A    
C10   C13   A    
C8    C53   A    
C3    C52   A    
C9    C24   A    
C43   H14   S    
C20   O2    S    
C29   C35   A    
C13   C17   A    
C53   H27   S    
C33   O13   S    
C32   C33   A    
C2    C3    A    
C7    C51   A    
C50   H19   S    
C11   C13   A    
C38   C39   A    
C26   N2    S    
O13   C55   S    
C34   O11   A    
C23   O8    A    
C49   H17   S    
C25   H6    S    
Cu1   N4    S    
C18   C33   A    
C47   H16   S    
C19   O4    S    
C44   C48   A    
Cu2   O5    S    
C11   C29   A    
C55   H29   S    
C49   C50   S    
C27   C28   A    
C42   H10   S    
C49   H18   S    
C36   C43   S    
C35   H7    S    
C55   H30   S    
C14   H25   S    
C51   N1    A    
C15   C16   A    
C46   N3    A    
C54   H1    S    
