data_mof_unit_7134.cif
_audit_creation_date              2012-12-11T15:08:36-0500
_audit_creation_method            fapswitch 2.2
_symmetry_space_group_name_H-M    P1
_symmetry_Int_Tables_number       1
_space_group_crystal_system       triclinic
_cell_length_a                    19.593546
_cell_length_b                    11.33797
_cell_length_c                    18.694336
_cell_angle_alpha                 89.901664
_cell_angle_beta                  90.194233
_cell_angle_gamma                 89.912421
_cell_volume                      4152.93125524

loop_
_atom_site_label
_atom_site_type_symbol
_atom_type_description
_atom_site_fract_x
_atom_site_fract_y
_atom_site_fract_z
_atom_type_partial_charge
C1    C     C_R   0.272780 0.041653 0.854437 0.547569
C2    C     C_R   0.726648 0.041550 0.145389 0.576462
C3    C     C_R   0.772815 0.542597 0.854123 0.564953
C4    C     C_R   0.226937 0.541850 0.145179 0.550918
C5    C     C_3   0.515687 0.724930 0.965041 -0.135842
C6    C     C_3   0.481548 0.731349 0.038800 -0.155985
C7    C     C_3   0.014488 0.218347 0.966752 -0.122983
C8    C     C_3   0.979522 0.234294 0.039462 -0.163333
C9    C     C_3   0.304805 0.505702 0.039333 0.099863
C10   C     C_3   0.687434 0.528418 0.955458 0.098835
C11   C     C_3   0.812500 0.028035 0.044969 0.100049
C12   C     C_3   0.183933 0.032349 0.954199 0.099497
C13   C     C_3   0.306977 0.513717 0.956453 -0.245346
C14   C     C_3   0.675939 0.561297 0.035067 -0.207760
C15   C     C_3   0.827090 0.070212 0.967324 -0.227632
C16   C     C_3   0.173496 0.061038 0.034974 -0.199448
C17   C     C_3   0.175976 0.534323 0.026438 -0.227659
C18   C     C_3   0.818140 0.519430 0.974905 -0.226471
C19   C     C_3   0.682682 0.018985 0.023113 -0.225531
C20   C     C_3   0.313845 0.008843 0.976185 -0.227193
C21   C     C_3   0.251569 0.702384 0.055494 -0.230238
C22   C     C_3   0.761097 0.705270 0.943154 -0.253990
C23   C     C_3   0.738997 0.205574 0.057143 -0.259871
C24   C     C_3   0.264310 0.201388 0.944301 -0.243692
C25   C     C_3   0.240898 0.571189 0.068960 0.072048
C26   C     C_3   0.758710 0.573074 0.929651 0.073329
C27   C     C_3   0.741038 0.072793 0.070133 0.077609
C28   C     C_3   0.257457 0.070051 0.930038 0.069719
C29   C     C_3   0.254691 0.607325 0.930659 0.033520
C30   C     C_3   0.743353 0.609938 0.067638 0.022679
C31   C     C_3   0.758845 0.112953 0.933105 0.020067
C32   C     C_3   0.241587 0.106622 0.067994 0.022354
C33   C     C_3   0.181790 0.565082 0.946811 0.133141
C34   C     C_3   0.798799 0.515914 0.055025 0.069059
C35   C     C_3   0.706784 0.013025 0.944534 0.065878
C36   C     C_3   0.294235 0.008609 0.056234 0.057332
C37   C     C_3   0.268762 0.718922 0.975129 -0.234720
C38   C     C_3   0.762225 0.723420 0.024973 -0.266168
C39   C     C_3   0.736041 0.224541 0.975498 -0.276354
C40   C     C_3   0.262504 0.218254 0.025536 -0.258754
C41   C     C_3   0.503958 0.701051 0.460394 -0.236801
C42   C     C_3   0.496126 0.701083 0.539758 -0.236789
C43   C     C_3   0.003958 0.201050 0.460395 -0.236584
C44   C     C_3   0.996126 0.201082 0.539758 -0.236704
C45   C     C_R   0.442195 0.817334 0.862698 0.560774
C46   C     C_R   0.558713 0.817390 0.137684 0.550324
C47   C     C_R   0.943412 0.316886 0.862464 0.549298
C48   C     C_R   0.058532 0.317403 0.137651 0.549401
C49   C     C_3   0.563875 0.904921 0.473707 -0.210032
C50   C     C_3   0.435999 0.904916 0.526048 -0.210006
C51   C     C_3   0.063875 0.404920 0.473707 -0.209407
C52   C     C_3   0.935999 0.404915 0.526048 -0.209626
C53   C     C_3   0.441915 0.885781 0.444206 -0.230389
C54   C     C_3   0.558023 0.885798 0.555579 -0.230367
C55   C     C_3   0.941914 0.385779 0.444207 -0.230388
C56   C     C_3   0.058023 0.385798 0.555579 -0.231400
C57   C     C_3   0.511004 0.828869 0.430887 0.030794
C58   C     C_3   0.488996 0.828936 0.569042 0.030475
C59   C     C_3   0.011004 0.328869 0.430887 0.030706
C60   C     C_3   0.988997 0.328936 0.569043 0.030571
C61   C     C_3   0.181077 0.646098 0.459247 -0.233590
C62   C     C_3   0.818905 0.646092 0.540664 -0.234128
C63   C     C_3   0.681078 0.146098 0.459247 -0.233494
C64   C     C_3   0.318904 0.146092 0.540664 -0.233907
C65   C     C_3   0.186367 0.659478 0.538112 -0.200267
C66   C     C_3   0.813698 0.659009 0.461765 -0.201017
C67   C     C_3   0.686367 0.159477 0.538113 -0.200713
C68   C     C_3   0.313698 0.159010 0.461765 -0.200900
C69   C     C_3   0.251938 0.454312 0.475299 -0.139408
C70   C     C_3   0.747996 0.454567 0.525238 -0.138719
C71   C     C_3   0.751938 0.954311 0.475299 -0.139833
C72   C     C_3   0.247996 0.954568 0.525237 -0.138169
C73   C     C_3   0.305230 0.642253 0.440571 -0.282475
C74   C     C_3   0.694805 0.643070 0.559256 -0.283135
C75   C     C_3   0.805231 0.142251 0.440572 -0.281795
C76   C     C_3   0.194804 0.143070 0.559256 -0.283890
C77   C     C_3   0.240520 0.569966 0.430430 0.033590
C78   C     C_3   0.759459 0.570345 0.569673 0.033862
C79   C     C_3   0.740520 0.069965 0.430430 0.033763
C80   C     C_3   0.259459 0.070346 0.569673 0.034590
C81   C     C_3   0.255237 0.609439 0.567004 0.092473
C82   C     C_3   0.744801 0.609296 0.432996 0.090855
C83   C     C_3   0.755237 0.109437 0.567005 0.090531
C84   C     C_3   0.244800 0.109296 0.432996 0.090712
C85   C     C_3   0.253613 0.476321 0.557348 0.095803
C86   C     C_3   0.746314 0.476201 0.443115 0.095429
C87   C     C_3   0.753612 0.976319 0.557349 0.095407
C88   C     C_3   0.246315 0.976202 0.443114 0.095321
C89   C     C_R   0.261630 0.639359 0.853730 0.551329
C90   C     C_R   0.737179 0.643064 0.144811 0.578323
C91   C     C_R   0.764190 0.146821 0.856246 0.584854
C92   C     C_R   0.236904 0.142209 0.144999 0.576297
C93   C     C_3   0.318180 0.650769 0.521998 -0.257625
C94   C     C_3   0.681846 0.651119 0.477798 -0.258398
C95   C     C_3   0.818180 0.150766 0.521999 -0.258630
C96   C     C_3   0.181846 0.151119 0.477798 -0.257782
C97   C     C_R   0.273933 0.041037 0.645176 0.533648
C98   C     C_R   0.725990 0.040726 0.354947 0.536013
C99   C     C_R   0.773934 0.541036 0.645175 0.538111
C100  C     C_R   0.225989 0.540726 0.354947 0.535131
C101  C     C_R   0.468394 0.823041 0.645373 0.551212
C102  C     C_R   0.531598 0.823013 0.354597 0.549453
C103  C     C_R   0.968395 0.323041 0.645373 0.549375
C104  C     C_R   0.031599 0.323013 0.354597 0.549739
C105  C     C_R   0.262638 0.645250 0.642307 0.539817
C106  C     C_R   0.737424 0.645025 0.357620 0.544081
C107  C     C_R   0.762637 0.145246 0.642309 0.547065
C108  C     C_R   0.237424 0.145025 0.357620 0.544108
C109  C     C_3   0.486806 0.920826 0.035476 0.273826
C110  C     C_3   0.519453 0.915215 0.961939 0.288035
C111  C     C_3   0.990965 0.423167 0.031230 0.290763
C112  C     C_3   0.025381 0.406748 0.958822 0.237600
C113  C     C_3   0.433055 0.829974 0.013197 -0.153307
C114  C     C_3   0.569034 0.818136 0.987855 -0.128574
C115  C     C_3   0.934606 0.335262 0.009966 -0.149788
C116  C     C_3   0.070442 0.307243 0.988797 -0.127294
C117  C     C_3   0.467593 0.823199 0.938356 0.018072
C118  C     C_3   0.534032 0.823850 0.062308 0.007087
C119  C     C_3   0.970532 0.319547 0.936775 -0.007616
C120  C     C_3   0.034351 0.323582 0.061996 0.021401
Cr1   Cr    Cr6+3 0.229620 0.836040 0.749110 1.015552
Cr2   Cr    Cr6+3 0.770380 0.836040 0.250890 1.019445
Cr3   Cr    Cr6+3 0.729620 0.336040 0.749110 1.004118
Cr4   Cr    Cr6+3 0.270380 0.336040 0.250890 1.020232
Cr5   Cr    Cr6+3 0.387630 0.990680 0.750730 1.035941
Cr6   Cr    Cr6+3 0.612370 0.990680 0.249270 1.040164
Cr7   Cr    Cr6+3 0.887630 0.490680 0.750730 1.017319
Cr8   Cr    Cr6+3 0.112370 0.490680 0.249270 1.040528
Cr9   Cr    Cr6+3 0.386020 0.676590 0.749210 0.993923
Cr10  Cr    Cr6+3 0.613980 0.676590 0.250790 0.999281
Cr11  Cr    Cr6+3 0.886020 0.176590 0.749210 0.999870
Cr12  Cr    Cr6+3 0.113980 0.176590 0.250790 0.999947
H1    H     H_    0.382899 0.831994 0.038482 0.176079
H2    H     H_    0.622699 0.807578 0.972360 0.159197
H3    H     H_    0.881571 0.328626 0.028470 0.154983
H4    H     H_    0.124447 0.295648 0.974725 0.142078
H5    H     H_    0.204522 0.752454 0.069275 0.090952
H6    H     H_    0.807239 0.746526 0.919197 0.115730
H7    H     H_    0.693874 0.247958 0.082452 0.122906
H8    H     H_    0.313797 0.234685 0.923368 0.121860
H9    H     H_    0.293584 0.735102 0.090091 0.177804
H10   H     H_    0.716090 0.746524 0.917459 0.185058
H11   H     H_    0.785524 0.244819 0.080924 0.176373
H12   H     H_    0.223369 0.252489 0.917084 0.159821
H13   H     H_    0.323285 0.735535 0.967825 0.119757
H14   H     H_    0.727200 0.793111 0.039884 0.090014
H15   H     H_    0.768513 0.297724 0.960704 0.093921
H16   H     H_    0.225970 0.287969 0.038623 0.087095
H17   H     H_    0.240274 0.793660 0.953440 0.113438
H18   H     H_    0.814795 0.749266 0.039993 0.120534
H19   H     H_    0.682479 0.245752 0.960750 0.121944
H20   H     H_    0.315350 0.240573 0.041821 0.118590
H21   H     H_    0.546367 0.643966 0.446252 0.141949
H22   H     H_    0.453639 0.644273 0.553928 0.142017
H23   H     H_    0.046367 0.143965 0.446252 0.141857
H24   H     H_    0.953639 0.144273 0.553928 0.142062
H25   H     H_    0.459384 0.656351 0.435576 0.116688
H26   H     H_    0.540689 0.656190 0.564690 0.116600
H27   H     H_    0.959384 0.156350 0.435576 0.116833
H28   H     H_    0.040689 0.156189 0.564691 0.116036
H29   H     H_    0.615333 0.897055 0.453553 0.128100
H30   H     H_    0.384549 0.896829 0.546177 0.128932
H31   H     H_    0.115334 0.397055 0.453553 0.128078
H32   H     H_    0.884549 0.396827 0.546178 0.129127
H33   H     H_    0.598191 0.825552 0.574961 0.186521
H34   H     H_    0.401876 0.825504 0.424919 0.186518
H35   H     H_    0.098192 0.325553 0.574961 0.185515
H36   H     H_    0.901876 0.325503 0.424919 0.186731
H37   H     H_    0.437537 0.970787 0.414896 0.147962
H38   H     H_    0.562300 0.970845 0.584671 0.148518
H39   H     H_    0.937537 0.470786 0.414896 0.147912
H40   H     H_    0.062300 0.470845 0.584671 0.147592
H41   H     H_    0.449655 0.998116 0.535937 0.111118
H42   H     H_    0.550081 0.998154 0.463596 0.111475
H43   H     H_    0.949655 0.498115 0.535938 0.111380
H44   H     H_    0.050081 0.498153 0.463596 0.111486
H45   H     H_    0.130808 0.609854 0.446595 0.133952
H46   H     H_    0.869189 0.609901 0.553577 0.134455
H47   H     H_    0.630808 0.109854 0.446594 0.133956
H48   H     H_    0.369189 0.109902 0.553577 0.134302
H49   H     H_    0.178673 0.751981 0.551112 0.113569
H50   H     H_    0.821531 0.751411 0.448396 0.114160
H51   H     H_    0.678673 0.251980 0.551113 0.113182
H52   H     H_    0.321530 0.251412 0.448396 0.114112
H53   H     H_    0.719187 0.882742 0.459621 0.124150
H54   H     H_    0.280638 0.882765 0.541312 0.124350
H55   H     H_    0.219187 0.382743 0.459622 0.124196
H56   H     H_    0.780638 0.382765 0.541312 0.124251
H57   H     H_    0.298600 0.728959 0.415974 0.186448
H58   H     H_    0.701550 0.729918 0.583374 0.187167
H59   H     H_    0.798601 0.228957 0.415975 0.186748
H60   H     H_    0.201550 0.229918 0.583374 0.186061
H61   H     H_    0.522661 0.639017 0.938215 0.196711
H62   H     H_    0.469580 0.652431 0.070673 0.202906
H63   H     H_    0.018625 0.129590 0.942552 0.192679
H64   H     H_    0.965597 0.158490 0.072731 0.205768
H65   H     H_    0.338907 0.734448 0.538342 0.120931
H66   H     H_    0.660985 0.734591 0.460898 0.120136
H67   H     H_    0.838906 0.234446 0.538343 0.120729
H68   H     H_    0.160985 0.234591 0.460898 0.120110
H69   H     H_    0.359107 0.586642 0.533164 0.100462
H70   H     H_    0.641007 0.586991 0.466973 0.100691
H71   H     H_    0.859107 0.086639 0.533166 0.100399
H72   H     H_    0.141007 0.086991 0.466973 0.100693
H73   H     H_    0.303835 0.424963 0.461164 0.078855
H74   H     H_    0.696062 0.425756 0.539520 0.079219
H75   H     H_    0.803834 0.924961 0.461165 0.078926
H76   H     H_    0.196062 0.925757 0.539519 0.079234
H77   H     H_    0.300624 0.435053 0.580354 0.102325
H78   H     H_    0.699277 0.435156 0.420274 0.103075
H79   H     H_    0.800623 0.935050 0.580355 0.103003
H80   H     H_    0.199277 0.935156 0.420274 0.103019
H81   H     H_    0.359643 0.536302 0.939049 0.167317
H82   H     H_    0.634860 0.627862 0.040294 0.162297
H83   H     H_    0.864712 0.142753 0.966934 0.152593
H84   H     H_    0.132602 0.126631 0.042832 0.163150
H85   H     H_    0.294133 0.428297 0.931946 0.059439
H86   H     H_    0.658735 0.481872 0.065058 0.089623
H87   H     H_    0.849493 0.996182 0.936157 0.097463
H88   H     H_    0.156161 0.980271 0.063539 0.082977
H89   H     H_    0.733454 0.929214 0.936203 0.141706
H90   H     H_    0.269710 0.924354 0.069068 0.142205
H91   H     H_    0.171989 0.484430 0.914623 0.185855
H92   H     H_    0.776416 0.429785 0.067409 0.138834
O1    O     O_R   0.214130 0.708570 0.829890 -0.451377
O2    O     O_R   0.785870 0.708570 0.170110 -0.501917
O3    O     O_R   0.714130 0.208570 0.829890 -0.515185
O4    O     O_R   0.285870 0.208570 0.170110 -0.509517
O5    O     O_R   0.446360 0.919990 0.675230 -0.503980
O6    O     O_R   0.553640 0.919990 0.324770 -0.505251
O7    O     O_R   0.946360 0.419990 0.675230 -0.502369
O8    O     O_R   0.053640 0.419990 0.324770 -0.505391
O9    O     O_R   0.457170 0.717300 0.668380 -0.526415
O10   O     O_R   0.542830 0.717300 0.331620 -0.525482
O11   O     O_R   0.957170 0.217300 0.668380 -0.527560
O12   O     O_R   0.042830 0.217300 0.331620 -0.525203
O13   O     O_R   0.320870 0.624890 0.673130 -0.524720
O14   O     O_R   0.679130 0.624890 0.326870 -0.522157
O15   O     O_R   0.820870 0.124890 0.673130 -0.521650
O16   O     O_R   0.179130 0.124890 0.326870 -0.522366
O17   O     O_3   0.334430 0.834430 0.749680 -0.311370
O18   O     O_3   0.665570 0.834430 0.250320 -0.318184
O19   O     O_3   0.834430 0.334430 0.749680 -0.307994
O20   O     O_3   0.165570 0.334430 0.250320 -0.315517
O21   O     O_R   0.236050 0.959150 0.825270 -0.520165
O22   O     O_R   0.763950 0.959150 0.174730 -0.484895
O23   O     O_R   0.736050 0.459150 0.825270 -0.510426
O24   O     O_R   0.263950 0.459150 0.174730 -0.489679
O25   O     O_R   0.332100 0.076650 0.832310 -0.532343
O26   O     O_R   0.667900 0.076650 0.167690 -0.535123
O27   O     O_R   0.832100 0.576650 0.832310 -0.542547
O28   O     O_R   0.167900 0.576650 0.167690 -0.536447
O29   O     O_R   0.446500 0.918620 0.826240 -0.423420
O30   O     O_R   0.553500 0.918620 0.173760 -0.420361
O31   O     O_R   0.946500 0.418620 0.826240 -0.468052
O32   O     O_R   0.053500 0.418620 0.173760 -0.424491
O33   O     O_R   0.457310 0.715830 0.831280 -0.514431
O34   O     O_R   0.542690 0.715830 0.168720 -0.519417
O35   O     O_R   0.957310 0.215830 0.831280 -0.509942
O36   O     O_R   0.042690 0.215830 0.168720 -0.519962
O37   O     O_R   0.321000 0.623520 0.824130 -0.539334
O38   O     O_R   0.679000 0.623520 0.175870 -0.531540
O39   O     O_R   0.821000 0.123520 0.824130 -0.524725
O40   O     O_R   0.179000 0.123520 0.175870 -0.530206
O41   O     O_R   0.213990 0.710040 0.667000 -0.526136
O42   O     O_R   0.786010 0.710040 0.333000 -0.523420
O43   O     O_R   0.713990 0.210040 0.667000 -0.522540
O44   O     O_R   0.286010 0.210040 0.333000 -0.523020
O45   O     O_R   0.235920 0.960520 0.674260 -0.515070
O46   O     O_R   0.764080 0.960520 0.325740 -0.511889
O47   O     O_R   0.735920 0.460520 0.674260 -0.513057
O48   O     O_R   0.264080 0.460520 0.325740 -0.512142
O49   O     O_R   0.331960 0.078120 0.669410 -0.533600
O50   O     O_R   0.668040 0.078120 0.330590 -0.533596
O51   O     O_R   0.831960 0.578120 0.669410 -0.531084
O52   O     O_R   0.168040 0.578120 0.330590 -0.532916
H93   H     H_    0.665644 0.935010 0.045014 0.067868
H94   H     H_    0.363242 0.055787 0.969460 0.155957
H95   H     H_    0.167621 0.440318 0.033998 0.043124
H96   H     H_    0.864912 0.574054 0.968399 0.140864
O53   O     O_3   0.132993 0.651792 0.927599 -0.633700
H97   H     H_    0.133225 0.716355 0.963314 0.314205
O54   O     O_3   0.855647 0.528657 0.100217 -0.647232
H98   H     H_    0.873314 0.609812 0.094386 0.361642
O55   O     O_3   0.653350 0.015189 0.894963 -0.645211
H99   H     H_    0.635008 0.096505 0.894263 0.366588
O56   O     O_3   0.350716 0.017016 0.102140 -0.663651
H100  H     H_    0.367570 0.099062 0.100430 0.364593
O57   O     O_3   0.479157 0.026239 0.073265 -0.656095
H101  H     H_    0.463144 0.085969 0.038383 0.295122
O58   O     O_3   0.528985 0.015619 0.919955 -0.649786
H102  H     H_    0.537530 0.082162 0.952916 0.296110
O59   O     O_3   0.985402 0.532659 0.064936 -0.653831
H103  H     H_    0.975367 0.590987 0.026864 0.297226
O60   O     O_3   0.045382 0.495875 0.912289 -0.635956
H104  H     H_    0.007752 0.554388 0.911710 0.336516
H105  H     H_    0.181535 0.734463 0.433367 0.121912
H106  H     H_    0.818359 0.734604 0.566167 0.121489
H107  H     H_    0.681536 0.234462 0.433367 0.122013
H108  H     H_    0.318359 0.234605 0.566167 0.120824
H109  H     H_    0.142420 0.615060 0.564004 0.171783
H110  H     H_    0.857609 0.614090 0.436109 0.171724
H111  H     H_    0.642420 0.115059 0.564004 0.172080
H112  H     H_    0.357609 0.114092 0.436109 0.171679
O61   O     O_3   0.696911 0.929645 0.591859 -0.782436
H113  H     H_    0.708443 0.923171 0.643505 0.332098
O62   O     O_3   0.302931 0.928938 0.408769 -0.783184
H114  H     H_    0.291477 0.922809 0.357104 0.330231
O63   O     O_3   0.196912 0.429647 0.591858 -0.783833
H115  H     H_    0.208447 0.423165 0.643503 0.326072
O64   O     O_3   0.802931 0.428937 0.408770 -0.783033
H116  H     H_    0.791476 0.422803 0.357105 0.330395
H117  H     H_    0.349110 0.599404 0.413386 0.115689
H118  H     H_    0.650929 0.600756 0.586693 0.115117
H119  H     H_    0.849110 0.099401 0.413387 0.116208
H120  H     H_    0.150929 0.100755 0.586693 0.113872
H121  H     H_    0.302057 0.415541 0.056131 0.137162
H122  H     H_    0.685774 0.432061 0.951475 0.107413
H123  H     H_    0.811234 0.931798 0.044623 0.103685
H124  H     H_    0.176038 0.936594 0.947673 0.115784
O65   O     O_3   0.364532 0.551797 0.069564 -0.723861
H125  H     H_    0.400785 0.491418 0.062793 0.309067
O66   O     O_3   0.635609 0.577497 0.912603 -0.732602
H126  H     H_    0.616535 0.513907 0.882063 0.334096
O67   O     O_3   0.863341 0.065986 0.092469 -0.717395
H127  H     H_    0.896653 0.000335 0.097719 0.318753
O68   O     O_3   0.135025 0.091927 0.912638 -0.740498
H128  H     H_    0.122645 0.040512 0.871696 0.343855
H129  H     H_    0.636233 0.075288 0.026501 0.157472
H130  H     H_    0.323327 0.920961 0.955252 0.060537
H131  H     H_    0.129143 0.576667 0.048097 0.199017
H132  H     H_    0.833098 0.434683 0.952410 0.065206

loop_
_geom_bond_atom_site_label_1
_geom_bond_atom_site_label_2
_ccdc_geom_bond_type
C61   H45   S    
C82   C94   S    
C55   C59   S    
O58   H102  S    
C73   C93   S    
C42   C58   S    
C29   C89   S    
C75   C95   S    
C48   C120  S    
Cr5   O49   S    
C24   H8    S    
C57   C102  S    
C59   C104  S    
C35   H89   S    
C5    C6    S    
Cr3   O3    S    
C22   C38   S    
C29   C33   S    
Cr1   O1    S    
C30   C38   S    
C77   C100  S    
C13   H81   S    
C9    C13   S    
C18   H132  S    
C72   C88   S    
C74   H58   S    
C11   C15   S    
C68   H52   S    
C12   C16   S    
C64   H108  S    
C11   O67   S    
C21   H5    S    
Cr4   O20   S    
C60   C103  S    
C93   H69   S    
Cr11  O39   S    
Cr2   O22   S    
C71   H75   S    
C66   H50   S    
Cr8   O8    S    
C113  H1    S    
C23   H11   S    
C55   H36   S    
C109  C118  S    
C63   C67   S    
C50   C53   S    
O66   H126  S    
C7    C119  S    
C4    O28   A    
C15   H83   S    
Cr11  O35   S    
Cr1   O41   S    
C62   C66   S    
C20   C28   S    
Cr11  O11   S    
Cr4   O44   S    
C67   H111  S    
C43   C44   S    
C66   C82   S    
C11   C27   S    
C58   C101  S    
C10   O66   S    
Cr12  O12   S    
C52   H43   S    
C92   O40   A    
C100  O52   A    
C102  O10   A    
C71   C87   S    
Cr8   O20   S    
C89   O37   A    
C54   H33   S    
C6    H62   S    
C91   O39   A    
C48   O36   A    
Cr9   O13   S    
C112  O60   S    
C90   O2    A    
C3    C26   S    
C84   C88   S    
C31   C91   S    
Cr7   O51   S    
C74   H118  S    
C85   H77   S    
C17   C25   S    
Cr5   O25   S    
C19   C35   S    
C76   C96   S    
C32   C92   S    
C93   H65   S    
C2    O22   A    
C51   H44   S    
C21   H9    S    
C61   C65   S    
C53   H34   S    
C89   O1    A    
O65   H125  S    
C88   H80   S    
C5    C117  S    
C78   C99   S    
C102  O6    A    
C105  O13   A    
C14   H86   S    
C1    O21   A    
C75   C79   S    
C75   H119  S    
C46   O34   A    
C110  O58   S    
C67   C83   S    
C80   C97   S    
C50   H30   S    
C69   C77   S    
C111  C112  S    
Cr3   O19   S    
C4    C25   S    
C20   H130  S    
C7    C8    S    
C72   H76   S    
Cr1   O17   S    
C46   C118  S    
Cr7   O31   S    
C64   C68   S    
C42   H22   S    
C20   H94   S    
C83   C107  S    
C43   H27   S    
C1    O25   A    
C105  O41   A    
C39   H19   S    
C49   C57   S    
C40   H20   S    
C108  O44   A    
C38   H14   S    
C98   O50   A    
Cr12  O20   S    
C61   C77   S    
Cr6   O18   S    
C35   O55   S    
C110  C114  S    
C49   H29   S    
C43   C59   S    
Cr6   O50   S    
C71   H53   S    
Cr10  O34   S    
C96   H72   S    
C41   H21   S    
C103  O7    A    
C86   O64   S    
C81   C105  S    
C61   H105  S    
C30   C34   S    
C44   H24   S    
Cr7   O19   S    
C10   C14   S    
C65   H109  S    
C116  C120  S    
C7    C116  S    
Cr4   O24   S    
C75   H59   S    
O59   H103  S    
C76   H60   S    
C22   H10   S    
O57   H101  S    
C114  H2    S    
Cr6   O30   S    
Cr5   O5    S    
C67   H51   S    
C113  C117  S    
C115  C119  S    
C74   C78   S    
C15   H87   S    
Cr1   O45   S    
C112  C116  S    
C69   C85   S    
Cr2   O42   S    
C45   C117  S    
C96   H68   S    
C21   C25   S    
Cr4   O48   S    
C103  O11   A    
C87   H79   S    
C62   C78   S    
C76   C80   S    
C15   C31   S    
C16   C32   S    
C63   H107  S    
Cr12  O16   S    
C72   C80   S    
Cr10  O18   S    
C97   O45   A    
C115  H3    S    
C62   H106  S    
C56   H35   S    
C99   O47   A    
Cr8   O32   S    
C16   H88   S    
C82   C106  S    
C90   O38   A    
C104  O12   A    
O54   H98   S    
C81   C85   S    
C83   C87   S    
C111  O59   S    
C41   C42   S    
C54   H38   S    
C18   C26   S    
C30   C90   S    
C9    C25   S    
C109  O57   S    
C3    O23   A    
C12   C28   S    
C50   H41   S    
C13   C29   S    
Cr9   O37   S    
Cr3   O47   S    
Cr2   O2    S    
C14   H82   S    
C55   H39   S    
C16   H84   S    
C73   C77   S    
C22   C26   S    
C47   O35   A    
C1    C28   S    
C51   H31   S    
C2    C27   S    
C94   H70   S    
C52   C55   S    
C53   H37   S    
Cr12  O40   S    
Cr1   O21   S    
C68   H112  S    
C34   O54   S    
C56   H40   S    
C64   C80   S    
C42   H26   S    
C17   C33   S    
C43   H23   S    
C110  C117  S    
C71   C79   S    
C49   H42   S    
C9    O65   S    
C106  O42   A    
C40   H16   S    
O62   H114  S    
C68   C84   S    
C24   C28   S    
Cr12  O36   S    
O60   H104  S    
C99   O51   A    
C63   C79   S    
C82   C86   S    
C107  O15   A    
Cr10  O10   S    
C56   C60   S    
C50   C58   S    
C47   O31   A    
O55   H99   S    
C65   C81   S    
O56   H100  S    
C76   H120  S    
C38   H18   S    
C37   H17   S    
C24   H12   S    
C72   H54   S    
C17   H95   S    
C52   H32   S    
C9    H121  S    
C33   H91   S    
C19   H93   S    
C11   H123  S    
C101  O9    A    
C44   H28   S    
C31   C35   S    
C87   O61   S    
C7    H63   S    
C32   C36   S    
C5    H61   S    
C100  O48   A    
C66   H110  S    
C53   C57   S    
C91   O3    A    
C69   H73   S    
C86   H78   S    
C3    O27   A    
C112  C119  S    
C85   O63   S    
C45   O33   A    
C116  H4    S    
C22   H6    S    
Cr9   O33   S    
Cr6   O26   S    
C18   H96   S    
C41   C57   S    
O68   H128  S    
C109  C110  S    
Cr9   O17   S    
C44   C60   S    
C84   C108  S    
C8    H64   S    
O67   H127  S    
Cr2   O46   S    
C20   C36   S    
Cr3   O43   S    
C21   C37   S    
C92   O4    A    
O61   H113  S    
C106  O14   A    
C29   C37   S    
C74   C94   S    
C101  O5    A    
C36   O56   S    
C13   H85   S    
C95   H71   S    
C46   O30   A    
C73   H57   S    
O64   H116  S    
C5    C114  S    
C70   C78   S    
C79   C98   S    
Cr2   O18   S    
C65   H49   S    
O63   H115  S    
C98   O46   A    
Cr8   O28   S    
C23   H7    S    
Cr6   O6    S    
C12   O68   S    
C2    O26   A    
C64   H48   S    
C104  O8    A    
C49   C54   S    
C63   H47   S    
C51   C56   S    
C84   C96   S    
C4    O24   A    
C8    C115  S    
Cr8   O52   S    
C108  O16   A    
Cr11  O15   S    
Cr5   O17   S    
C23   C27   S    
C48   O32   A    
C52   C60   S    
C109  C113  S    
C10   C26   S    
C47   C119  S    
C14   C30   S    
Cr4   O4    S    
C34   H92   S    
C33   O53   S    
C17   H131  S    
O53   H97   S    
Cr9   O9    S    
C111  C120  S    
C94   H66   S    
C73   H117  S    
C6    C113  S    
C81   C93   S    
C19   H129  S    
C83   C95   S    
Cr7   O7    S    
Cr10  O38   S    
Cr5   O29   S    
C18   C34   S    
C114  C118  S    
C107  O43   A    
C12   H124  S    
C41   H25   S    
C51   C59   S    
C70   C86   S    
C36   H90   S    
C19   C27   S    
C8    C120  S    
C54   C58   S    
C69   H55   S    
Cr10  O14   S    
C62   H46   S    
C70   H56   S    
C70   H74   S    
Cr11  O19   S    
Cr3   O23   S    
C10   H122  S    
C23   C39   S    
C24   C40   S    
C31   C39   S    
Cr7   O27   S    
C32   C40   S    
C88   O62   S    
C95   H67   S    
C39   H15   S    
C111  C115  S    
C37   H13   S    
C97   O49   A    
C6    C118  S    
C45   O29   A    
