data_mof_unit_6534.cif
_audit_creation_date              2012-12-10T20:58:00-0500
_audit_creation_method            fapswitch 2.2
_symmetry_space_group_name_H-M    P1
_symmetry_Int_Tables_number       1
_space_group_crystal_system       triclinic
_cell_length_a                    18.190338
_cell_length_b                    18.23951
_cell_length_c                    18.425938
_cell_angle_alpha                 120.295573
_cell_angle_beta                  90.005298
_cell_angle_gamma                 119.880091
_cell_volume                      4311.07241544

loop_
_atom_site_label
_atom_site_type_symbol
_atom_type_description
_atom_site_fract_x
_atom_site_fract_y
_atom_site_fract_z
_atom_type_partial_charge
C1    C     C_R   0.360352 0.220187 0.360664 0.792068
C2    C     C_3   0.340807 0.615900 0.334378 0.344038
C3    C     C_3   0.300555 0.501909 0.302506 -0.004898
C4    C     C_3   0.199835 0.501916 0.199872 0.020408
C5    C     C_3   0.144398 0.453305 0.246133 -0.536743
C6    C     C_3   0.281537 0.615683 0.273018 0.324744
C7    C     C_3   0.680767 0.940299 0.652004 -0.409680
C8    C     C_3   0.739012 0.060652 0.713549 -0.395750
C9    C     C_3   0.679785 0.937937 0.787906 -0.397551
C10   C     C_3   0.800661 0.941175 0.720892 -0.390745
C11   C     C_3   0.699255 0.897411 0.698739 0.216375
C12   C     C_R   0.641067 0.780979 0.639839 0.723962
C13   C     C_3   0.799575 0.102388 0.802961 0.208106
C14   C     C_3   0.738303 0.058254 0.848943 -0.408086
C15   C     C_3   0.859177 0.060809 0.781459 -0.379364
C16   C     C_3   0.699810 0.403635 0.261207 0.433542
C17   C     C_3   0.758863 0.403603 0.200322 -0.465527
C18   C     C_3   0.662584 0.501540 0.225587 -0.391049
C19   C     C_3   0.796332 0.600238 0.357279 -0.507249
C20   C     C_3   0.698321 0.501169 0.301870 0.127017
C21   C     C_3   0.800036 0.501505 0.200874 0.130716
C22   C     C_3   0.722498 0.501640 0.166366 -0.392626
C23   C     C_R   0.360081 0.501469 0.641556 0.804238
C24   C     C_3   0.856270 0.599509 0.298564 -0.390130
C25   C     C_R   0.561377 0.219762 0.481399 -0.123383
C26   C     C_R   0.487976 0.170792 0.409473 -0.145934
C27   C     C_R   0.399884 0.103825 0.403039 0.135805
C28   C     C_R   0.386756 0.085445 0.468974 -0.133922
C29   C     C_R   0.460450 0.134678 0.540851 -0.148233
C30   C     C_R   0.547666 0.201867 0.547086 -0.101751
C31   C     C_R   0.263738 0.944133 0.273244 -0.256887
C32   C     C_R   0.192445 0.892105 0.197890 -0.004869
C33   C     C_R   0.175847 0.947662 0.176373 0.040464
C34   C     C_R   0.640783 0.501032 0.359430 0.772767
C35   C     C_R   0.234007 0.055506 0.229456 -0.229099
C36   C     C_R   0.305808 0.107717 0.304579 -0.043063
C37   C     C_R   0.321636 0.052091 0.326978 0.004004
C38   C     C_R   0.110442 0.896616 0.026492 -0.169723
C39   C     C_R   0.036998 0.844737 0.953219 -0.131571
C40   C     C_R   0.949438 0.791554 0.953841 -0.156448
C41   C     C_R   0.935038 0.790200 0.027694 -0.158668
C42   C     C_R   0.008052 0.841938 0.101495 0.268899
C43   C     C_R   0.096805 0.895146 0.100918 0.070691
C44   C     C_R   0.870435 0.540281 0.512617 -0.143668
C45   C     C_R   0.641834 0.498887 0.638816 0.797152
C46   C     C_R   0.821728 0.503807 0.559248 -0.140093
C47   C     C_R   0.833195 0.574382 0.647595 0.163419
C48   C     C_R   0.893158 0.681616 0.688446 -0.123539
C49   C     C_R   0.941402 0.717781 0.641479 -0.132271
C50   C     C_R   0.930644 0.647175 0.553917 -0.113658
C51   C     C_R   0.838165 0.536149 0.756143 -0.257484
C52   C     C_R   0.799802 0.499573 0.806553 -0.053051
C53   C     C_R   0.709432 0.462118 0.800709 -0.032634
C54   C     C_R   0.659518 0.462007 0.744211 -0.253515
C55   C     C_R   0.697885 0.498904 0.694115 -0.051702
C56   C     C_R   0.358121 0.500493 0.359403 0.812050
C57   C     C_R   0.788278 0.536423 0.699841 -0.031165
C58   C     C_R   0.610613 0.320802 0.818596 -0.108319
C59   C     C_R   0.559715 0.286630 0.865349 -0.133998
C60   C     C_R   0.561779 0.358120 0.947484 -0.124307
C61   C     C_R   0.615858 0.464148 0.983735 -0.156651
C62   C     C_R   0.667559 0.498782 0.937668 -0.144022
C63   C     C_R   0.664827 0.427167 0.854658 0.158548
C64   C     C_R   0.429459 0.843851 0.782097 -0.280538
C65   C     C_R   0.401168 0.760359 0.787204 -0.218846
C66   C     C_R   0.320006 0.663593 0.726138 0.141080
C67   C     C_3   0.297413 0.440977 0.203992 -0.567875
C68   C     C_R   0.267303 0.650976 0.659923 -0.172648
C69   C     C_R   0.296163 0.733736 0.653687 -0.135589
C70   C     C_R   0.377451 0.831011 0.713835 0.609497
C71   C     C_R   0.230778 0.574792 0.789904 -0.253552
C72   C     C_R   0.196549 0.499351 0.806741 -0.058278
C73   C     C_R   0.218468 0.426386 0.770783 -0.014162
C74   C     C_R   0.271647 0.429230 0.716978 -0.249995
C75   C     C_R   0.305178 0.504142 0.699392 -0.056393
C76   C     C_R   0.285355 0.578904 0.737504 0.012963
C77   C     C_R   0.232911 0.370799 0.866206 -0.093319
C78   C     C_3   0.235610 0.437464 0.143504 -0.382670
C79   C     C_R   0.203216 0.294449 0.881476 -0.122127
C80   C     C_R   0.128993 0.192661 0.817350 -0.107727
C81   C     C_R   0.084582 0.166962 0.737700 -0.145862
C82   C     C_R   0.113615 0.243224 0.722435 -0.143959
C83   C     C_R   0.187580 0.345713 0.786913 0.146955
C84   C     C_R   0.857131 0.500723 0.142974 0.794134
C85   C     C_R   0.138706 0.499511 0.861686 0.792732
C86   C     C_R   0.856888 0.218962 0.862139 0.732474
C87   C     C_R   0.137701 0.779747 0.141571 0.816510
C88   C     C_R   0.855905 0.500790 0.863030 0.809990
C89   C     C_3   0.201318 0.446447 0.301577 0.164112
C90   C     C_R   0.140783 0.500842 0.142641 0.830230
H1    H     H_    0.271913 0.359814 0.178346 0.213872
H2    H     H_    0.253703 0.658719 0.315072 0.128098
H3    H     H_    0.120968 0.500761 0.289400 0.220618
H4    H     H_    0.608445 0.909716 0.634122 0.163726
H5    H     H_    0.696110 0.913494 0.588688 0.150794
H6    H     H_    0.781493 0.091666 0.679346 0.153442
H7    H     H_    0.694345 0.087611 0.726325 0.169850
H8    H     H_    0.607557 0.907596 0.774479 0.176677
H9    H     H_    0.693797 0.085414 0.864167 0.170977
H10   H     H_    0.816654 0.912523 0.755125 0.173613
H11   H     H_    0.366333 0.478332 0.200076 0.198453
H12   H     H_    0.817343 0.913862 0.658351 0.171893
H13   H     H_    0.903132 0.090396 0.747382 0.177554
H14   H     H_    0.903714 0.089258 0.844256 0.173449
H15   H     H_    0.693840 0.908954 0.822883 0.152543
H16   H     H_    0.780254 0.087161 0.913411 0.153123
H17   H     H_    0.731735 0.410755 0.318417 0.032663
H18   H     H_    0.813526 0.401528 0.224273 0.116831
H19   H     H_    0.718016 0.332484 0.130746 0.198175
H20   H     H_    0.592121 0.432157 0.183693 0.214730
H21   H     H_    0.273363 0.468090 0.106845 0.218318
H22   H     H_    0.680606 0.431135 0.097062 0.202532
H23   H     H_    0.797223 0.671135 0.386363 0.198314
H24   H     H_    0.824499 0.604302 0.413586 0.198071
H25   H     H_    0.911626 0.600713 0.326189 0.186331
H26   H     H_    0.887614 0.671132 0.300683 0.211257
H27   H     H_    0.661973 0.571412 0.254109 0.149763
H28   H     H_    0.750302 0.570899 0.165364 0.179331
H29   H     H_    0.604663 0.239889 0.602650 0.125513
H30   H     H_    0.628899 0.271463 0.486126 0.106239
H31   H     H_    0.499713 0.184963 0.358809 0.094979
H32   H     H_    0.178238 0.355140 0.092756 0.185672
H33   H     H_    0.319490 0.033907 0.465164 0.138200
H34   H     H_    0.449951 0.120800 0.591758 0.132621
H35   H     H_    0.276144 0.900205 0.288403 0.138897
H36   H     H_    0.221390 0.099104 0.213972 0.156126
H37   H     H_    0.177986 0.936887 0.024837 0.138843
H38   H     H_    0.047996 0.845616 0.895856 0.130591
H39   H     H_    0.892570 0.751598 0.897261 0.140420
H40   H     H_    0.866922 0.749190 0.027688 0.143585
H41   H     H_    0.968801 0.675287 0.517964 0.127178
H42   H     H_    0.172603 0.362890 0.269019 0.123083
H43   H     H_    0.862215 0.485755 0.444788 0.120313
H44   H     H_    0.776745 0.420954 0.527328 0.101482
H45   H     H_    0.903001 0.736963 0.756674 0.105838
H46   H     H_    0.987780 0.800506 0.673255 0.123782
H47   H     H_    0.907387 0.563864 0.759711 0.177356
H48   H     H_    0.590398 0.434646 0.740944 0.178443
H49   H     H_    0.606691 0.264521 0.753885 0.102814
H50   H     H_    0.517540 0.204654 0.837351 0.131379
H51   H     H_    0.521640 0.331435 0.983184 0.130869
H52   H     H_    0.617202 0.519387 0.047262 0.133111
H53   H     H_    0.083100 0.373967 0.195234 0.165283
H54   H     H_    0.707730 0.580798 0.965379 0.118715
H55   H     H_    0.490711 0.918073 0.832817 0.134150
H56   H     H_    0.441276 0.771902 0.840320 0.142473
H57   H     H_    0.203122 0.577421 0.614080 0.183742
H58   H     H_    0.254271 0.722616 0.602230 0.188644
H59   H     H_    0.215617 0.632075 0.818276 0.176021
H60   H     H_    0.286864 0.372010 0.688779 0.178522
H61   H     H_    0.290447 0.449461 0.916276 0.115775
H62   H     H_    0.237808 0.314104 0.942900 0.116724
H63   H     H_    0.106090 0.133621 0.829214 0.117042
H64   H     H_    0.027577 0.087945 0.687823 0.123149
H65   H     H_    0.078496 0.222665 0.660712 0.127700
H66   H     H_    0.409004 0.646960 0.327022 0.076574
O1    O     O_3   0.500000 0.500000 0.500000 -0.487437
O2    O     O_R   0.383400 0.560740 0.616060 -0.618859
O3    O     O_R   0.555060 0.439270 0.322940 -0.609086
O4    O     O_R   0.383950 0.268380 0.445700 -0.624188
O5    O     O_R   0.677590 0.731610 0.615290 -0.648453
O6    O     O_3   0.997750 0.500010 0.002220 -0.478113
O7    O     O_R   0.942690 0.560750 0.179280 -0.637597
O8    O     O_R   0.114340 0.439270 0.886160 -0.635838
O9    O     O_R   0.820160 0.268410 0.886930 -0.649075
O10   O     O_R   0.113800 0.731630 0.056520 -0.641810
O11   O     O_R   0.819390 0.439310 0.886160 -0.640933
O12   O     O_R   0.383400 0.268380 0.323710 -0.640304
O13   O     O_R   0.115110 0.560720 0.179280 -0.669368
O14   O     O_R   0.941380 0.560750 0.885620 -0.638409
O15   O     O_R   0.115110 0.439270 0.057830 -0.646063
O16   O     O_R   0.942690 0.268390 0.886930 -0.644832
O17   O     O_R   0.114340 0.731630 0.178520 -0.629712
O18   O     O_R   0.820160 0.439310 0.057830 -0.643954
O19   O     O_R   0.113800 0.560730 0.885620 -0.649705
O20   O     O_R   0.555060 0.731630 0.615290 -0.648575
O21   O     O_R   0.383950 0.439280 0.616600 -0.650025
O22   O     O_R   0.677590 0.560710 0.444390 -0.656328
O23   O     O_R   0.556370 0.439260 0.616600 -0.640058
O24   O     O_R   0.382640 0.439290 0.322940 -0.668503
O25   O     O_R   0.678360 0.560700 0.616060 -0.639644
O26   O     O_R   0.382640 0.560750 0.444390 -0.560894
Zn1   Zn    Zn3+2 0.456040 0.586770 0.543190 1.000442
Zn2   Zn    Zn3+2 0.456820 0.413240 0.543960 0.980362
Zn3   Zn    Zn3+2 0.631110 0.586750 0.543190 0.950981
Zn4   Zn    Zn3+2 0.456040 0.413240 0.369660 0.970639
Zn5   Zn    Zn3+2 0.041710 0.413240 0.959030 0.963116
Zn6   Zn    Zn3+2 0.866640 0.413270 0.959030 0.966648
Zn7   Zn    Zn3+2 0.040930 0.586780 0.958260 0.977920
Zn8   Zn    Zn3+2 0.041710 0.586770 0.132560 0.973575
Br1   Br    Br    0.187169 0.495150 0.418818 -0.531033
O27   O     O_3   0.610723 0.311909 0.210879 -0.588947
C91   C     C_3   0.601466 0.232536 0.214742 -0.339980
H67   H     H_    0.607997 0.253160 0.283543 0.145896
H68   H     H_    0.651307 0.216135 0.191275 0.154272
H69   H     H_    0.533202 0.160282 0.170190 0.199739
Br2   Br    Br    0.983274 0.840151 0.202063 -0.582840
O28   O     O_3   0.398053 0.910246 0.705200 -0.618841
C92   C     C_3   0.490088 0.993515 0.746302 -0.392069
H70   H     H_    0.533965 0.965886 0.728980 0.161416
H71   H     H_    0.507117 0.044172 0.819752 0.178829
H72   H     H_    0.503647 0.041399 0.721213 0.190692
O29   O     O_3   0.344863 0.676075 0.423866 -0.568365
C93   C     C_3   0.429127 0.773375 0.475425 -0.272255
H73   H     H_    0.443466 0.817732 0.446412 0.138820
H74   H     H_    0.483755 0.763501 0.482249 0.147707
H75   H     H_    0.427857 0.819455 0.543242 0.222863
O30   O     O_3   0.334442 0.660753 0.231665 -0.636125
C94   C     C_3   0.341963 0.751988 0.257286 -0.371877
H76   H     H_    0.373361 0.811069 0.330773 0.166462
H77   H     H_    0.275214 0.734254 0.233683 0.182796
H78   H     H_    0.385898 0.785936 0.225743 0.196957

loop_
_geom_bond_atom_site_label_1
_geom_bond_atom_site_label_2
_ccdc_geom_bond_type
C58   H49   S    
O20   Zn1   S    
C66   C68   A    
C40   H39   S    
C29   H34   S    
C9    H8    S    
C85   O8    A    
C64   H55   S    
C41   C42   A    
C48   H45   S    
C19   C20   S    
C8    H6    S    
C72   C85   S    
O29   C93   S    
O8    Zn5   S    
C77   H61   S    
C38   H37   S    
C28   H33   S    
C45   O25   A    
C80   H63   S    
C54   H48   S    
C53   C54   A    
C7    C11   S    
C86   O9    A    
O14   Zn7   S    
C28   C29   A    
C26   C27   A    
C8    C13   S    
C89   H42   S    
C1    O4    A    
C86   O16   A    
O3    Zn4   S    
C84   O7    A    
C36   C37   A    
O1    Zn3   S    
C10   C15   S    
O6    Zn5   S    
C80   C81   A    
C31   C32   A    
C5    H53   S    
C87   O10   A    
C47   C57   S    
C30   H29   S    
C19   H23   S    
O16   Zn5   S    
C9    H15   S    
C23   O2    A    
O17   Zn8   S    
C25   C30   A    
C94   H78   S    
C85   O19   A    
C73   C74   A    
C10   H12   S    
O26   Zn1   S    
O5    Zn3   S    
C16   O27   S    
C16   H17   S    
O18   Zn6   S    
C12   O5    A    
C54   C55   A    
O22   Zn3   S    
C35   C36   A    
C16   C17   S    
C91   H68   S    
C90   O15   A    
C92   H72   S    
C21   C84   S    
C78   H21   S    
C51   C57   A    
O1    Zn2   S    
C64   C70   A    
C15   H14   S    
O2    Zn1   S    
C6    O30   S    
C12   O20   A    
C20   C34   S    
C34   O3    A    
C91   H69   S    
C59   C60   A    
C70   O28   S    
C21   C22   S    
C2    C6    S    
C67   C78   S    
C48   C49   A    
O13   Zn8   S    
C84   O18   A    
C44   C46   A    
C81   C82   A    
C4    C90   S    
C77   C79   A    
C38   C39   A    
C87   O17   A    
O9    Zn6   S    
C88   O14   A    
C74   C75   A    
C51   C52   A    
C33   C43   S    
C18   H20   S    
C7    C8    S    
O12   Zn4   S    
O1    Zn4   S    
C4    C6    S    
C10   C11   S    
C17   H18   S    
C62   H54   S    
C39   C40   A    
C9    C14   S    
O25   Zn3   S    
O30   C94   S    
C19   H24   S    
C58   C59   A    
C32   C87   S    
C82   C83   A    
C17   C21   S    
C81   H64   S    
C31   C37   A    
C32   C33   A    
C60   C61   A    
C13   C86   S    
C35   H36   S    
C75   C76   A    
C4    C78   S    
C29   C30   A    
C60   H51   S    
C46   H44   S    
C3    C56   S    
C47   C48   A    
C93   H75   S    
C52   C88   S    
C16   C20   S    
C88   O11   A    
C66   C76   S    
C62   C63   A    
C67   H1    S    
C94   H76   S    
C89   Br1   S    
C10   H10   S    
C9    C11   S    
C18   H27   S    
O28   C92   S    
C68   H57   S    
O24   Zn4   S    
C82   H65   S    
C51   H47   S    
C40   C41   A    
C26   H31   S    
C49   H46   S    
C93   H74   S    
C49   C50   A    
C22   H22   S    
C13   C15   S    
C21   C24   S    
C34   O22   A    
C42   C43   A    
C31   H35   S    
C25   H30   S    
C71   C76   A    
O6    Zn8   S    
C52   C53   A    
C67   H11   S    
O23   Zn2   S    
C56   O24   A    
C44   C50   A    
C44   H43   S    
C22   H28   S    
C7    H4    S    
C46   C47   A    
C94   H77   S    
C2    H66   S    
C39   H38   S    
C18   C22   S    
O11   Zn6   S    
C68   C69   A    
C42   Br2   S    
C3    C67   S    
C2    O29   S    
C58   C63   A    
C23   C75   S    
C72   C73   A    
C17   H19   S    
O19   Zn7   S    
C5    H3    S    
C11   C12   S    
C24   H26   S    
O21   Zn2   S    
C7    H5    S    
C1    O12   A    
O15   Zn5   S    
C41   H40   S    
C3    C89   S    
O10   Zn7   S    
C64   C65   A    
C55   C57   A    
C19   C24   S    
C25   C26   A    
C38   C43   A    
O27   C91   S    
O6    Zn6   S    
C53   C63   S    
C14   H9    S    
C71   H59   S    
C56   O26   A    
C59   H50   S    
C27   C37   S    
C8    H7    S    
C6    H2    S    
C4    C5    S    
C90   O13   A    
C33   C35   A    
C73   C83   S    
C2    C3    S    
O7    Zn8   S    
C18   C20   S    
C65   C66   A    
C61   C62   A    
C78   H32   S    
C69   C70   A    
C23   O21   A    
C50   H41   S    
C45   O23   A    
C79   C80   A    
C61   H52   S    
C92   H70   S    
C71   C72   A    
C93   H73   S    
C45   C55   S    
C24   H25   S    
C91   H67   S    
C14   H16   S    
C27   C28   A    
C92   H71   S    
C69   H58   S    
C77   C83   A    
C74   H60   S    
O1    Zn1   S    
C15   H13   S    
C65   H56   S    
C13   C14   S    
O4    Zn2   S    
O6    Zn7   S    
C5    C89   S    
C1    C36   S    
C79   H62   S    
