data_mof_unit_38351.cif
_audit_creation_date              2012-12-10T18:31:48-0500
_audit_creation_method            fapswitch 2.2
_symmetry_space_group_name_H-M    P1
_symmetry_Int_Tables_number       1
_space_group_crystal_system       triclinic
_cell_length_a                    10.631317
_cell_length_b                    14.974176
_cell_length_c                    15.494743
_cell_angle_alpha                 81.386927
_cell_angle_beta                  90.353299
_cell_angle_gamma                 104.018381
_cell_volume                      2365.06990014

loop_
_atom_site_label
_atom_site_type_symbol
_atom_type_description
_atom_site_fract_x
_atom_site_fract_y
_atom_site_fract_z
_atom_type_partial_charge
C1    C     C_R   0.479391 0.441431 0.662055 0.934789
C2    C     C_3   0.121238 0.498698 0.499524 0.014556
C3    C     C_3   0.099132 0.579093 0.430103 -0.462399
C4    C     C_3   0.077700 0.512034 0.591139 -0.442621
C5    C     C_R   0.447895 0.406809 0.754350 -0.138560
C6    C     C_R   0.523149 0.595094 0.245102 -0.142212
C7    C     C_R   0.311902 0.300243 0.868833 0.649249
C8    C     C_R   0.359147 0.321799 0.782495 -0.287021
C9    C     C_R   0.490620 0.468772 0.812862 -0.224546
C10   C     C_R   0.433833 0.453745 0.896303 0.015341
C11   C     C_R   0.347675 0.366276 0.925944 0.017047
C12   C     C_R   0.741960 0.500286 0.500019 0.958924
C13   C     C_R   0.462460 0.523291 0.951015 0.111245
C14   C     C_R   0.422730 0.499048 0.040055 0.117796
C15   C     C_R   0.335532 0.411611 0.068053 -0.235951
C16   C     C_R   0.297429 0.347036 0.011397 -0.151742
C17   C     C_R   0.527132 0.616712 0.919108 -0.232805
C18   C     C_R   0.565696 0.681510 0.975298 -0.143221
C19   C     C_R   0.545114 0.654523 0.065080 0.015498
C20   C     C_R   0.473271 0.562808 0.098056 0.027082
C21   C     C_R   0.598988 0.716739 0.122732 0.643064
C22   C     C_R   0.589183 0.686548 0.212469 -0.270486
C23   C     C_R   0.517780 0.558631 0.337987 0.938317
C24   C     C_R   0.463392 0.535090 0.188353 -0.253926
C25   C     C_R   0.735918 0.852939 0.598165 0.535792
C26   C     C_R   0.685370 0.759321 0.594591 -0.102396
C27   C     C_R   0.505885 0.791887 0.515047 -0.069163
C28   C     C_R   0.556027 0.888665 0.510559 -0.064563
C29   C     C_R   0.672599 0.918220 0.555446 0.014510
C30   C     C_R   0.494883 0.956829 0.465392 0.069720
C31   C     C_R   0.539633 0.050434 0.481221 0.042461
C32   C     C_R   0.661268 0.077576 0.518967 -0.197999
C33   C     C_R   0.726294 0.012575 0.555654 -0.140474
C34   C     C_R   0.258060 0.499430 0.499750 0.874523
C35   C     C_R   0.394943 0.937998 0.403427 0.175143
C36   C     C_R   0.335357 0.008258 0.367523 -0.239718
C37   C     C_R   0.368744 0.096164 0.392619 0.102389
C38   C     C_R   0.465983 0.116338 0.453930 -0.014233
C39   C     C_R   0.306652 0.164742 0.356392 -0.281111
C40   C     C_R   0.340320 0.251917 0.382757 -0.019580
C41   C     C_R   0.482972 0.201464 0.487299 0.266918
C42   C     C_3   0.896486 0.405300 0.477548 -0.331121
C43   C     C_3   0.039120 0.404839 0.477280 -0.394610
C44   C     C_3   0.954902 0.580215 0.430564 0.404618
C45   C     C_3   0.933555 0.513406 0.591277 0.393418
C46   C     C_3   0.878732 0.499851 0.499850 -0.067324
H1    H     H_    0.857370 0.393529 0.412235 0.219445
H2    H     H_    0.136105 0.578708 0.609038 0.158319
H3    H     H_    0.945432 0.648450 0.446422 0.086435
H4    H     H_    0.157977 0.647401 0.444163 0.150755
H5    H     H_    0.229677 0.281335 0.035228 0.204171
H6    H     H_    0.415749 0.464750 0.216052 0.166023
H7    H     H_    0.636252 0.733636 0.256106 0.189879
H8    H     H_    0.616756 0.751913 0.948322 0.213700
H9    H     H_    0.322401 0.274016 0.737279 0.182036
H10   H     H_    0.566735 0.530129 0.790856 0.174779
H11   H     H_    0.842594 0.346220 0.526300 0.205677
H12   H     H_    0.291343 0.392284 0.132764 0.143745
H13   H     H_    0.546584 0.642310 0.850426 0.158182
H14   H     H_    0.818299 0.036633 0.585540 0.205410
H15   H     H_    0.295917 0.306389 0.353150 0.137400
H16   H     H_    0.262281 0.993799 0.318958 0.159866
H17   H     H_    0.737300 0.708534 0.622322 0.163796
H18   H     H_    0.414325 0.761749 0.489067 0.187640
H19   H     H_    0.053726 0.345807 0.526049 0.199090
H20   H     H_    0.709959 0.149951 0.518272 0.166308
H21   H     H_    0.234314 0.151551 0.307251 0.158169
H22   H     H_    0.068831 0.393481 0.411746 0.188763
H23   H     H_    0.130900 0.570205 0.364240 0.215586
H24   H     H_    0.924060 0.581468 0.607576 0.087591
H25   H     H_    0.093941 0.454771 0.641324 0.219898
N1    N     N_R   0.573860 0.731700 0.552730 -0.142630
N2    N     N_R   0.426060 0.268290 0.447230 -0.126565
O1    O     O_R   0.462770 0.383110 0.605620 -0.627598
O2    O     O_R   0.510160 0.531900 0.639510 -0.612909
O3    O     O_R   0.661510 0.425600 0.483070 -0.633961
O4    O     O_R   0.708900 0.574390 0.516960 -0.644455
O5    O     O_R   0.489840 0.468100 0.360490 -0.618196
O6    O     O_R   0.537230 0.616890 0.394380 -0.609856
O7    O     O_R   0.291100 0.425610 0.483040 -0.634828
O8    O     O_R   0.338490 0.574400 0.516930 -0.626710
Zn1   Zn    Zn3+2 0.468350 0.400660 0.477370 0.942741
Zn2   Zn    Zn3+2 0.531650 0.599340 0.522630 0.951732
F1    F     F_    0.226777 0.217027 0.895192 -0.652441
F2    F     F_    0.666312 0.805122 0.092280 -0.655401
N3    N     N_2   0.544584 0.213211 0.567970 -0.336040
H26   H     H_    0.589337 0.280213 0.575238 0.285252
C47   C     C_3   0.468515 0.160595 0.644152 -0.702299
H27   H     H_    0.520866 0.177207 0.704211 0.253464
H28   H     H_    0.452472 0.084680 0.643168 0.251257
H29   H     H_    0.373035 0.178143 0.645867 0.239337
F3    F     F_    0.848203 0.879692 0.640145 -0.664394
N4    N     N_2   0.361774 0.852963 0.368688 -0.345936
H30   H     H_    0.265862 0.833390 0.352194 0.231613
C48   C     C_3   0.449410 0.847151 0.299989 -0.716620
H31   H     H_    0.418177 0.777685 0.278997 0.238596
H32   H     H_    0.549830 0.856004 0.323743 0.251443
H33   H     H_    0.447777 0.901469 0.242906 0.258310
F4    F     F_    0.905774 0.571203 0.348283 -0.652521
F5    F     F_    0.864996 0.443750 0.654984 -0.657666

loop_
_geom_bond_atom_site_label_1
_geom_bond_atom_site_label_2
_ccdc_geom_bond_type
C44   H3    S    
C24   H6    S    
N4    H30   S    
C48   H31   S    
C26   N1    A    
C19   C20   A    
C16   H5    S    
C48   H33   S    
C7    C8    A    
C45   C46   S    
C7    C11   A    
C41   N3    S    
C30   C35   A    
C1    C5    S    
C1    O1    A    
C36   C37   A    
C3    H23   S    
C30   C31   A    
C44   F4    S    
N3    C47   S    
O4    Zn2   S    
C15   C16   A    
C6    C22   A    
C29   C33   A    
C40   N2    A    
C42   H11   S    
C18   C19   A    
C42   C46   S    
C34   O7    A    
C20   C24   A    
C43   H22   S    
C34   O8    A    
C9    C10   A    
C2    C34   S    
C7    F1    S    
N4    C48   S    
C21   C22   A    
O1    Zn1   S    
C36   H16   S    
C8    H9    S    
O8    Zn2   S    
C3    H4    S    
C44   C46   S    
C22   H7    S    
C4    C45   S    
C35   N4    S    
C25   C29   A    
C21   F2    S    
C3    C44   S    
C1    O2    A    
C14   C20   A    
C38   C41   A    
C12   C46   S    
C10   C11   A    
O3    Zn1   S    
C39   C40   A    
N3    H26   S    
C25   C26   A    
C45   F5    S    
C40   H15   S    
C35   C36   A    
C2    C4    S    
C26   H17   S    
C5    C9    A    
C37   C38   A    
C11   C16   A    
O5    Zn1   S    
C31   C32   A    
C47   H29   S    
C2    C43   S    
C43   H19   S    
C6    C24   A    
C12   O4    A    
C17   C18   A    
C9    H10   S    
C17   H13   S    
O7    Zn1   S    
C47   H28   S    
C33   H14   S    
C12   O3    A    
C15   H12   S    
C42   C43   S    
N2    Zn1   S    
C32   H20   S    
C4    H2    S    
C28   C29   A    
C25   F3    S    
C19   C21   A    
C45   H24   S    
C39   H21   S    
C10   C13   A    
C5    C8    A    
C48   H32   S    
C31   C38   A    
C13   C17   A    
C32   C33   A    
C28   C30   A    
C2    C3    S    
C37   C39   A    
O6    Zn2   S    
O2    Zn2   S    
C6    C23   S    
C42   H1    S    
C23   O5    A    
N1    Zn2   S    
C27   H18   S    
C18   H8    S    
C41   N2    A    
C47   H27   S    
C27   C28   A    
C14   C15   A    
C23   O6    A    
C13   C14   A    
C4    H25   S    
C27   N1    A    
