data_mof_unit_29696.cif
_audit_creation_date              2012-12-11T17:29:28-0500
_audit_creation_method            fapswitch 2.2
_symmetry_space_group_name_H-M    P1
_symmetry_Int_Tables_number       1
_space_group_crystal_system       triclinic
_cell_length_a                    8.223651
_cell_length_b                    16.369593
_cell_length_c                    18.769667
_cell_angle_alpha                 98.914077
_cell_angle_beta                  91.444101
_cell_angle_gamma                 93.000971
_cell_volume                      2491.36855716

loop_
_atom_site_label
_atom_site_type_symbol
_atom_type_description
_atom_site_fract_x
_atom_site_fract_y
_atom_site_fract_z
_atom_type_partial_charge
Ba1   Ba    Ba6+2 0.845660 0.536000 0.465120 1.719879
Ba2   Ba    Ba6+2 0.344160 0.464070 0.534880 1.666235
C1    C     C_3   0.603608 0.827748 0.281649 -0.287932
C2    C     C_R   0.921978 0.410364 0.095671 -0.084144
C3    C     C_R   0.784866 0.425243 0.952375 -0.094117
C4    C     C_3   0.137759 0.777323 0.276664 0.391146
C5    C     C_R   0.943092 0.457658 0.976128 0.020818
C6    C     C_R   0.726179 0.426751 0.882523 -0.089008
C7    C     C_R   0.821683 0.460907 0.832652 -0.030114
C8    C     C_R   0.977347 0.498499 0.855647 0.030767
C9    C     C_R   0.038119 0.497338 0.927729 0.037739
C10   C     C_R   0.765937 0.458813 0.760434 0.001859
C11   C     C_R   0.865861 0.492218 0.711836 -0.285888
C12   C     C_3   0.603653 0.743990 0.307143 0.372759
C13   C     C_R   0.016999 0.532094 0.733445 0.002416
C14   C     C_R   0.071652 0.537789 0.806779 -0.028100
C15   C     C_R   0.161658 0.492438 0.070010 0.039462
C16   C     C_3   0.103947 0.845965 0.232852 -0.306905
C17   C     C_R   0.220972 0.493065 0.142543 0.050447
C18   C     C_R   0.124209 0.456509 0.192263 0.005764
C19   C     C_R   0.979957 0.411366 0.166114 -0.030407
C20   C     C_R   0.215910 0.582692 0.833296 0.004085
C21   C     C_R   0.276125 0.581196 0.903012 -0.061037
C22   C     C_R   0.193216 0.535948 0.950734 0.013920
C23   C     C_3   0.495927 0.332087 0.314806 0.327178
C24   C     C_R   0.257473 0.531153 0.021329 0.015263
C25   C     C_R   0.416661 0.562414 0.044681 -0.098222
C26   C     C_R   0.376208 0.531164 0.165607 -0.036300
C27   C     C_R   0.474143 0.562532 0.115024 -0.096472
C28   C     C_3   0.211548 0.718696 0.622345 0.275994
C29   C     C_R   0.427575 0.537969 0.238913 -0.039378
C30   C     C_R   0.323609 0.508812 0.288343 -0.278559
C31   C     C_R   0.174474 0.466810 0.266454 0.070389
C32   C     C_R   0.377573 0.732433 0.469744 -0.320961
C33   C     C_R   0.524643 0.759316 0.506392 0.013962
C34   C     C_3   0.485981 0.305480 0.233427 -0.329583
C35   C     C_R   0.581419 0.841905 0.510057 -0.082343
C36   C     C_R   0.487317 0.899571 0.481549 0.180984
C37   C     C_R   0.331104 0.873489 0.449888 -0.137563
C38   C     C_R   0.277258 0.788628 0.443712 -0.012653
C39   C     C_R   0.624664 0.146124 0.487443 -0.065534
C40   C     C_3   0.278576 0.806963 0.648361 -0.294270
C41   C     C_R   0.672797 0.229686 0.491782 0.004954
C42   C     C_R   0.722971 0.092271 0.519502 0.282738
C43   C     C_R   0.815788 0.261455 0.529439 -0.311460
C44   C     C_R   0.918709 0.209281 0.558471 -0.022293
C45   C     C_3   0.100341 0.299708 0.733154 0.354313
C46   C     C_R   0.872099 0.124651 0.554182 -0.146931
C47   C     C_3   0.002740 0.279244 0.379673 0.279130
C48   C     C_3   0.033479 0.186917 0.366413 0.292349
C49   C     C_3   0.772305 0.734909 0.688339 0.677198
C50   C     C_3   0.749430 0.717068 0.765831 -0.258117
C51   C     C_2   0.903368 0.726289 0.811774 0.480214
C52   C     C_2   0.155264 0.698326 0.225919 0.488515
C53   C     C_2   0.230073 0.936557 0.423807 0.509360
C54   C     C_3   0.116276 0.278176 0.808866 -0.347412
C55   C     C_3   0.582539 0.253451 0.691425 0.336955
C56   C     C_3   0.569413 0.168529 0.714738 -0.332403
C57   C     C_R   0.006561 0.453753 0.047070 0.019767
H1    H     H_    0.680485 0.750628 0.357477 0.087096
H2    H     H_    0.729885 0.849390 0.271578 0.168749
H3    H     H_    0.659036 0.758596 0.792821 0.142297
H4    H     H_    0.698607 0.652273 0.763098 0.037137
H5    H     H_    0.476714 0.725101 0.318870 -0.116729
H6    H     H_    0.552365 0.873885 0.323518 0.082039
H7    H     H_    0.372741 0.347344 0.333456 -0.015132
H8    H     H_    0.580769 0.387873 0.327068 0.041413
H9    H     H_    0.399430 0.250603 0.219291 0.134893
H10   H     H_    0.442977 0.356473 0.206510 0.017358
H11   H     H_    0.608175 0.289586 0.213477 0.161838
H12   H     H_    0.389858 0.805713 0.682402 0.175800
H13   H     H_    0.528090 0.822825 0.231109 0.102263
H14   H     H_    0.205703 0.854593 0.196375 0.065900
H15   H     H_    0.171483 0.358930 0.731784 0.085722
H16   H     H_    0.969876 0.307788 0.721277 -0.070126
H17   H     H_    0.246213 0.271346 0.823107 0.149031
H18   H     H_    0.068651 0.327972 0.848410 0.063248
H19   H     H_    0.045395 0.219234 0.811857 0.130868
H20   H     H_    0.712440 0.268599 0.681935 -0.064032
H21   H     H_    0.510191 0.250475 0.640276 0.091284
H22   H     H_    0.615513 0.121573 0.672025 0.072864
H23   H     H_    0.306230 0.839482 0.602263 0.073321
H24   H     H_    0.440276 0.151077 0.724090 0.159599
H25   H     H_    0.643058 0.169320 0.765287 0.123844
H26   H     H_    0.823188 0.489179 0.656437 0.081221
H27   H     H_    0.604071 0.400690 0.868461 0.109025
H28   H     H_    0.908150 0.376672 0.199778 0.105675
H29   H     H_    0.285184 0.619782 0.800652 0.099024
H30   H     H_    0.596237 0.588604 0.129215 0.125645
H31   H     H_    0.362462 0.515851 0.344563 0.062024
H32   H     H_    0.700847 0.399116 0.986943 0.072418
H33   H     H_    0.809975 0.373945 0.080905 0.065989
H34   H     H_    0.189837 0.842298 0.682200 0.202326
H35   H     H_    0.387508 0.617994 0.918374 0.074350
H36   H     H_    0.254933 0.795830 0.306325 -0.193124
H37   H     H_    0.501746 0.586634 0.009420 0.089911
H38   H     H_    0.512765 0.123469 0.457597 0.103394
H39   H     H_    0.697681 0.861534 0.536286 0.191453
H40   H     H_    0.951797 0.084107 0.576978 0.122445
H41   H     H_    0.335955 0.668047 0.465745 0.071437
H42   H     H_    0.852281 0.326359 0.532004 0.074333
H43   H     H_    0.988759 0.830984 0.200091 0.132571
H44   H     H_    0.092962 0.904942 0.269897 0.182871
H45   H     H_    0.873257 0.288010 0.390117 0.006612
H46   H     H_    0.309273 0.682172 0.596524 0.028152
H47   H     H_    0.109431 0.719228 0.582737 0.079445
H48   H     H_    0.996730 0.179079 0.205914 0.335016
H49   H     H_    0.681817 0.949673 0.674270 0.362970
H50   H     H_    0.017626 0.748190 0.792102 0.077909
H51   H     H_    0.259630 0.692351 0.191693 -0.068969
H52   H     H_    0.288445 0.991575 0.407815 0.020123
H53   H     H_    0.078266 0.307856 0.427776 0.009364
H54   H     H_    0.016731 0.160494 0.416823 -0.028249
H55   H     H_    0.161409 0.178706 0.350269 0.025173
H56   H     H_    0.870237 0.697388 0.664254 -0.060736
N1    N     N_2   0.540879 0.984914 0.486504 -0.243389
N2    N     N_2   0.677666 0.006061 0.516289 -0.192467
O1    O     O_2   0.884010 0.444810 0.325060 -0.463900
O2    O     O_2   0.256492 0.214334 0.551460 -0.492172
O3    O     O_3   0.161009 0.235824 0.683937 -0.588120
O4    O     O_3   0.132090 0.451130 0.414310 -0.494562
O5    O     O_3   0.558660 0.599640 0.536520 -0.471125
O6    O     O_2   0.381010 0.300300 0.465220 -0.475582
O7    O     O_3   0.552153 0.266814 0.347263 -0.578556
O8    O     O_2   0.425884 0.462604 0.756969 -0.495283
O9    O     O_3   0.521412 0.311983 0.745449 -0.606628
O10   O     O_3   0.640770 0.594650 0.368950 -0.495033
O11   O     O_2   0.768894 0.536788 0.243697 -0.432114
O12   O     O_3   0.623566 0.709986 0.650953 -0.653103
O13   O     O_3   0.043418 0.313216 0.318117 -0.642024
O14   O     O_3   0.667416 0.686024 0.253457 -0.566627
O15   O     O_2   0.808690 0.699720 0.534830 -0.462527
O16   O     O_3   0.053760 0.638480 0.405010 -0.471677
O17   O     O_2   0.945405 0.784248 0.457332 -0.418356
O18   O     O_2   0.732176 0.119961 0.326822 -0.264686
O19   O     O_2   0.961576 0.046146 0.274238 -0.292797
O20   O     O_3   0.886241 0.179953 0.225762 -0.481423
O21   O     O_2   0.916245 0.882484 0.755016 -0.318749
O22   O     O_2   0.917558 0.854710 0.623443 -0.345360
O23   O     O_3   0.006542 0.768520 0.322360 -0.545788
O24   O     O_3   0.646797 0.893884 0.684307 -0.549145
O25   O     O_2   0.900138 0.710028 0.873030 -0.562466
O26   O     O_2   0.052027 0.641369 0.221720 -0.539302
O27   O     O_2   0.081589 0.930069 0.422120 -0.533601
O28   O     O_2   0.305690 0.555220 0.674980 -0.442939
O29   O     O_3   0.057610 0.548940 0.585700 -0.493613
O30   O     O_3   0.548930 0.405410 0.631060 -0.476030
O31   O     O_3   0.156248 0.686322 0.682361 -0.661491
O32   O     O_3   0.631040 0.400420 0.463490 -0.485131
O33   O     O_3   0.135930 0.361590 0.595000 -0.488280
P1    P     P_3+3 0.056550 0.421630 0.336220 0.991036
P2    P     P_3+3 0.635450 0.689180 0.556380 1.037390
P3    P     P_3+3 0.074536 0.745886 0.406239 1.064488
P4    P     P_3+3 0.133150 0.578440 0.663790 0.969320
P5    P     P_3+3 0.118055 0.254452 0.596291 0.958106
P6    P     P_3+3 0.626529 0.587017 0.275283 1.001856
P7    P     P_3+3 0.561554 0.296856 0.440963 0.983588
P8    P     P_3+3 0.565646 0.411118 0.724408 0.950804
S1    S     S_3+6 0.898938 0.130314 0.297564 -0.036731
S2    S     S_3+6 0.819500 0.844032 0.688113 -0.114605

loop_
_geom_bond_atom_site_label_1
_geom_bond_atom_site_label_2
_ccdc_geom_bond_type
Ba2   O33   S    
C19   H28   S    
C54   H17   S    
C25   C27   A    
C40   H34   S    
C49   S2    S    
C17   C18   A    
C23   H8    S    
Ba1   O15   S    
O2    P5    D    
C47   H45   S    
C27   H30   S    
C29   P6    S    
C49   O12   S    
C43   C44   A    
C34   H10   S    
Ba2   O28   S    
C5    C9    A    
C44   P5    S    
C24   C25   A    
C32   C38   A    
C15   C24   A    
C26   C27   A    
C33   C35   A    
C22   C24   A    
C32   C33   A    
C36   C37   A    
O17   P3    D    
C1    H2    S    
C13   C14   A    
C9    C22   A    
C54   H19   S    
N1    N2    D    
C52   H51   S    
Ba1   P2    S    
Ba1   Ba2   S    
C16   H43   S    
C55   H20   S    
Ba1   O5    S    
H49   O24   S    
C13   P4    S    
O19   S1    D    
C37   C53   S    
C6    C7    A    
C40   H23   S    
C32   H41   S    
C21   C22   A    
Ba1   O32   S    
C20   H29   S    
C7    C8    A    
O23   P3    S    
C16   H44   S    
Ba2   O32   S    
Ba2   O5    S    
C52   O26   D    
Ba2   P4    S    
C28   H47   S    
C39   C41   A    
C55   H21   S    
C25   H37   S    
C1    H6    S    
O31   P4    S    
C4    C52   S    
Ba1   O16   S    
C5    C57   A    
C35   H39   S    
C7    C10   A    
C34   H11   S    
C12   O14   S    
O9    P8    S    
C4    C16   S    
C44   C46   A    
O18   S1    D    
O20   S1    S    
C49   C50   S    
O16   P3    S    
O12   P2    S    
C31   P1    S    
C56   H22   S    
C37   C38   A    
C3    C5    A    
O8    P8    D    
O6    P7    D    
Ba2   O30   S    
Ba2   O6    S    
O3    P5    S    
C49   H56   S    
C54   H18   S    
O4    P1    S    
C48   H55   S    
O5    P2    S    
H48   O20   S    
C35   C36   A    
C56   H25   S    
C36   N1    S    
O24   S2    S    
C29   C30   A    
O29   P4    S    
C51   O25   D    
C12   H5    S    
O7    P7    S    
C18   C19   A    
C17   C26   A    
C41   C43   A    
C3    H32   S    
C1    C12   S    
C43   H42   S    
C15   C57   A    
C47   H53   S    
O28   P4    D    
C45   O3    S    
C30   H31   S    
O22   S2    D    
C47   C48   S    
C16   H14   S    
O33   P5    S    
C11   C13   A    
C28   H46   S    
O15   P2    D    
C39   C42   A    
C39   H38   S    
C38   P3    S    
C33   P2    S    
C18   C31   A    
C55   O9    S    
C50   C51   S    
Ba2   O4    S    
C51   H50   S    
C46   H40   S    
O14   P6    S    
C14   C20   A    
C53   O27   D    
C53   H52   S    
C26   C29   A    
C23   H7    S    
Ba1   O10   S    
C45   H15   S    
C41   P7    S    
C50   H4    S    
O10   P6    S    
C3    C6    A    
C34   H9    S    
C28   O31   S    
C48   S1    S    
Ba2   O29   S    
C12   H1    S    
C47   O13   S    
C21   H35   S    
C48   H54   S    
C30   C31   A    
C1    H13   S    
C45   H16   S    
C8    C14   A    
C56   H24   S    
C2    C19   A    
C55   C56   S    
C42   N2    S    
C2    C57   A    
C40   H12   S    
C15   C17   A    
Ba1   P1    S    
C6    H27   S    
Ba1   O1    S    
C4    O23   S    
O1    P1    D    
C23   O7    S    
Ba1   O4    S    
C8    C9    A    
O11   P6    D    
C23   C34   S    
O21   S2    D    
Ba1   O29   S    
C10   C11   A    
C4    H36   S    
C11   H26   S    
O13   P1    S    
C20   C21   A    
C28   C40   S    
C50   H3    S    
C10   P8    S    
O30   P8    S    
O32   P7    S    
C42   C46   A    
C45   C54   S    
C2    H33   S    
