data_mof_unit_33444.cif
_audit_creation_date              2012-12-10T18:33:43-0500
_audit_creation_method            fapswitch 2.2
_symmetry_space_group_name_H-M    P1
_symmetry_Int_Tables_number       1
_space_group_crystal_system       triclinic
_cell_length_a                    10.494226
_cell_length_b                    15.010046
_cell_length_c                    15.5436
_cell_angle_alpha                 81.983941
_cell_angle_beta                  89.662734
_cell_angle_gamma                 104.672862
_cell_volume                      2343.24712452

loop_
_atom_site_label
_atom_site_type_symbol
_atom_type_description
_atom_site_fract_x
_atom_site_fract_y
_atom_site_fract_z
_atom_type_partial_charge
C1    C     C_R   0.478808 0.441643 0.662096 0.885434
C2    C     C_R   0.517569 0.558441 0.338254 0.901426
C3    C     C_R   0.473721 0.469997 0.814331 0.414217
C4    C     C_R   0.484554 0.534587 0.186712 0.421745
C5    C     C_R   0.497484 0.444054 0.901453 -0.059631
C6    C     C_R   0.537955 0.553799 0.101370 -0.060909
C7    C     C_R   0.473980 0.348149 0.934362 0.012232
C8    C     C_R   0.612126 0.645889 0.069576 0.012753
C9    C     C_R   0.538930 0.511543 0.956959 -0.000832
C10   C     C_R   0.518016 0.484144 0.046935 -0.006576
C11   C     C_R   0.488417 0.388177 0.080088 -0.182553
C12   C     C_R   0.609221 0.603936 0.925147 -0.177146
C13   C     C_R   0.471190 0.320875 0.024717 0.355674
C14   C     C_R   0.648411 0.669973 0.980705 0.355098
C15   C     C_R   0.682810 0.839039 0.643950 -0.287476
C16   C     C_R   0.314010 0.159997 0.357887 -0.275820
C17   C     C_R   0.655516 0.751391 0.618764 0.055225
C18   C     C_R   0.343453 0.248213 0.381864 0.030274
C19   C     C_R   0.516813 0.794472 0.509208 -0.074229
C20   C     C_R   0.481841 0.205160 0.491586 -0.057416
C21   C     C_R   0.540294 0.884975 0.531484 0.000585
C22   C     C_R   0.456001 0.113984 0.470656 -0.003118
C23   C     C_R   0.742637 0.501081 0.499943 0.850272
C24   C     C_R   0.257439 0.499037 0.499727 0.847482
C25   C     C_R   0.625486 0.906223 0.600503 0.160277
C26   C     C_R   0.370180 0.092532 0.401987 0.168744
C27   C     C_R   0.482613 0.954214 0.488222 0.083619
C28   C     C_R   0.512432 0.044403 0.514620 0.083202
C29   C     C_R   0.597484 0.061989 0.583991 -0.233626
C30   C     C_R   0.396264 0.936267 0.419567 -0.232662
C31   C     C_R   0.652640 0.994055 0.625885 -0.185841
C32   C     C_R   0.341282 0.004232 0.377576 -0.175670
C33   C     C_3   0.931510 0.431866 0.560184 -0.173314
C34   C     C_3   0.068749 0.568355 0.438936 -0.179004
C35   C     C_3   0.047077 0.512831 0.578377 -0.179363
C36   C     C_3   0.953108 0.487392 0.420745 -0.174550
C37   C     C_3   0.121691 0.497805 0.499188 0.030369
C38   C     C_3   0.878507 0.502426 0.499983 0.031913
C39   C     C_3   0.008763 0.416807 0.480970 -0.141327
C40   C     C_3   0.991477 0.583429 0.518162 -0.134638
C41   C     C_R   0.467564 0.406587 0.755261 -0.175325
C42   C     C_R   0.536787 0.594510 0.245989 -0.169934
C43   C     C_R   0.454356 0.282902 0.875696 -0.125803
C44   C     C_R   0.649504 0.710585 0.128038 -0.125494
C45   C     C_R   0.457099 0.312654 0.786368 -0.293602
C46   C     C_R   0.616978 0.683520 0.216454 -0.298368
H1    H     H_    0.089704 0.522777 0.642585 0.132376
H2    H     H_    0.910369 0.477399 0.356526 0.141390
H3    H     H_    0.546227 0.228944 0.541813 0.127437
H4    H     H_    0.453385 0.770925 0.458458 0.132502
H5    H     H_    0.301433 0.301223 0.348179 0.173441
H6    H     H_    0.698198 0.698416 0.652164 0.147574
H7    H     H_    0.747643 0.854071 0.697018 0.181629
H8    H     H_    0.248442 0.144760 0.305224 0.169007
H9    H     H_    0.623738 0.127712 0.608170 0.138183
H10   H     H_    0.368436 0.870133 0.396229 0.139477
H11   H     H_    0.870961 0.376593 0.609677 0.134507
H12   H     H_    0.129405 0.623519 0.389398 0.131880
H13   H     H_    0.019801 0.348948 0.465821 0.145490
H14   H     H_    0.980512 0.651295 0.533341 0.146117
H15   H     H_    0.655683 0.731552 0.261597 0.188740
H16   H     H_    0.449360 0.262177 0.741935 0.184953
H17   H     H_    0.440525 0.209379 0.897933 0.209408
H18   H     H_    0.708801 0.780602 0.106807 0.211203
H19   H     H_    0.487913 0.364477 0.149050 0.223672
H20   H     H_    0.642509 0.624374 0.857618 0.213372
H21   H     H_    0.717352 0.010547 0.678759 0.161586
H22   H     H_    0.275676 0.987486 0.325196 0.159585
N1    N     N_R   0.574200 0.731700 0.552740 -0.108694
N2    N     N_R   0.425800 0.268300 0.447260 -0.106878
O1    O     O_R   0.462600 0.383110 0.605620 -0.628883
O2    O     O_R   0.537400 0.616890 0.394380 -0.631576
O3    O     O_R   0.510210 0.531900 0.639510 -0.560517
O4    O     O_R   0.489790 0.468100 0.360490 -0.566114
O5    O     O_R   0.662240 0.425610 0.483080 -0.619824
O6    O     O_R   0.337760 0.574390 0.516920 -0.625735
O7    O     O_R   0.709860 0.574400 0.516970 -0.630928
O8    O     O_R   0.290140 0.425600 0.483030 -0.628845
Zn1   Zn    Zn3+2 0.468210 0.400660 0.477370 0.953147
Zn2   Zn    Zn3+2 0.531790 0.599340 0.522630 0.946182
Cl1   Cl    Cl    0.442308 0.203343 0.072036 -0.631905
Cl2   Cl    Cl    0.740755 0.782247 0.935202 -0.646508
O9    O     O_3   0.378464 0.458760 0.212424 -0.623890
C47   C     C_3   0.261128 0.486431 0.194804 0.104708
H23   H     H_    0.249981 0.499953 0.123305 0.154139
H24   H     H_    0.259517 0.550076 0.223858 0.126329
C48   C     C_3   0.143743 0.408931 0.234178 -0.828321
H25   H     H_    0.148794 0.397651 0.306077 0.244992
H26   H     H_    0.050747 0.428452 0.217345 0.212415
H27   H     H_    0.143459 0.343381 0.208591 0.266005
O10   O     O_3   0.453460 0.557142 0.787275 -0.610051
C49   C     C_3   0.317267 0.550848 0.794277 0.117429
H28   H     H_    0.282095 0.535463 0.863822 0.143469
H29   H     H_    0.259151 0.496008 0.758155 0.116491
C50   C     C_3   0.293260 0.643566 0.755179 -0.775853
H30   H     H_    0.325638 0.659721 0.685297 0.265974
H31   H     H_    0.186556 0.640130 0.761004 0.196133
H32   H     H_    0.349316 0.699945 0.789972 0.267267

loop_
_geom_bond_atom_site_label_1
_geom_bond_atom_site_label_2
_ccdc_geom_bond_type
C18   N2    A    
C38   C40   S    
C48   H25   S    
C17   N1    A    
C40   H14   S    
C34   C37   S    
C50   H30   S    
C47   C48   S    
C35   H1    S    
O1    Zn1   S    
C50   H32   S    
C43   H17   S    
C44   H18   S    
C26   C32   A    
C1    O1    A    
C4    C42   A    
C34   C40   S    
C15   H7    S    
C28   C29   A    
C35   C37   S    
C47   H24   S    
C15   C25   A    
C13   Cl1   S    
C45   H16   S    
C3    O10   S    
C42   C46   A    
C8    C14   A    
C7    C43   A    
C9    C10   A    
C2    O4    A    
C32   H22   S    
C21   C27   A    
C22   C28   A    
C27   C30   A    
C20   N2    A    
C2    O2    A    
C17   H6    S    
C44   C46   A    
C18   H5    S    
C16   C26   A    
C46   H15   S    
O6    Zn2   S    
C47   H23   S    
C4    C6    A    
C23   O5    A    
O10   C49   S    
C5    C7    A    
O8    Zn1   S    
C24   O6    A    
C6    C8    A    
C29   H9    S    
C30   H10   S    
C49   C50   S    
C31   H21   S    
C5    C9    A    
C20   H3    S    
O9    C47   S    
C29   C31   A    
C39   H13   S    
C49   H29   S    
C24   C37   S    
C16   C18   A    
C33   C39   S    
C23   O7    A    
C43   C45   A    
C1    C41   S    
C12   C14   A    
O4    Zn1   S    
C48   H26   S    
C19   N1    A    
C14   Cl2   S    
O7    Zn2   S    
C24   O8    A    
C15   C17   A    
C21   C25   A    
C3    C41   A    
C33   H11   S    
C19   C21   A    
N2    Zn1   S    
C25   C31   A    
C36   C39   S    
C8    C44   A    
C20   C22   A    
C3    C5    A    
C6    C10   A    
C50   H31   S    
C23   C38   S    
C33   C38   S    
C1    O3    A    
C36   C38   S    
C35   C40   S    
C37   C39   S    
C30   C32   A    
C11   C13   A    
C19   H4    S    
C4    O9    S    
C12   H20   S    
C2    C42   S    
C49   H28   S    
C33   C35   S    
O3    Zn2   S    
C36   H2    S    
C34   C36   S    
C9    C12   A    
C16   H8    S    
C10   C11   A    
C7    C13   A    
O2    Zn2   S    
C22   C26   A    
C48   H27   S    
C27   C28   A    
C34   H12   S    
C41   C45   A    
N1    Zn2   S    
O5    Zn1   S    
C11   H19   S    
