data_mof_unit_47315.cif
_audit_creation_date              2012-12-10T20:47:08-0500
_audit_creation_method            fapswitch 2.2
_symmetry_space_group_name_H-M    P1
_symmetry_Int_Tables_number       1
_space_group_crystal_system       triclinic
_cell_length_a                    10.738933
_cell_length_b                    8.907775
_cell_length_c                    8.101531
_cell_angle_alpha                 89.445773
_cell_angle_beta                  92.83203
_cell_angle_gamma                 92.173916
_cell_volume                      773.465224024

loop_
_atom_site_label
_atom_site_type_symbol
_atom_type_description
_atom_site_fract_x
_atom_site_fract_y
_atom_site_fract_z
_atom_type_partial_charge
C1    C     C_R   0.512495 0.219434 0.500922 0.936045
C2    C     C_R   0.057817 0.353026 0.578728 0.029996
C3    C     C_R   0.126245 0.463784 0.487335 -0.094706
C4    C     C_R   0.874682 0.498673 0.517782 -0.100741
C5    C     C_R   0.065476 0.577641 0.399652 -0.204896
C6    C     C_R   0.939178 0.589841 0.408232 -0.216027
C7    C     C_1   0.513436 0.066234 0.500094 -0.209359
C8    C     C_1   0.509246 0.935442 0.498941 -0.216234
C9    C     C_3   0.222796 0.142570 0.604996 -0.414809
C10   C     C_3   0.290528 0.126036 0.775539 -0.752353
C11   C     C_3   0.842626 0.384192 0.897598 -0.375612
C12   C     C_R   0.502217 0.782210 0.499477 0.949292
C13   C     C_3   0.738806 0.302672 0.989407 -0.804319
C14   C     C_R   0.259723 0.481656 0.496586 0.868981
C15   C     C_R   0.741269 0.501979 0.505111 0.869330
C16   C     C_R   0.097144 0.205305 0.626188 0.155772
C17   C     C_R   0.875700 0.304865 0.741508 0.182746
C18   C     C_R   0.011861 0.103851 0.698224 -0.211475
C19   C     C_R   0.903867 0.153968 0.760037 -0.203718
C20   C     C_R   0.935814 0.389236 0.616671 -0.005982
H1    H     H_    0.116411 0.659000 0.325729 0.154195
H2    H     H_    0.657370 0.275042 0.904077 0.275633
H3    H     H_    0.772222 0.198172 0.049535 0.230585
H4    H     H_    0.710596 0.375393 0.089534 0.272765
H5    H     H_    0.927414 0.390680 0.982207 0.202741
H6    H     H_    0.818466 0.502515 0.873475 0.219959
H7    H     H_    0.892015 0.673786 0.333046 0.151194
H8    H     H_    0.035700 0.988416 0.723779 0.156210
H9    H     H_    0.852517 0.079007 0.839975 0.159524
H10   H     H_    0.312503 0.238287 0.830333 0.273294
H11   H     H_    0.232569 0.059848 0.861949 0.231386
H12   H     H_    0.377636 0.064931 0.766349 0.251573
H13   H     H_    0.211158 0.029829 0.547102 0.192488
H14   H     H_    0.277294 0.210027 0.519195 0.193059
N1    N     N_1   0.500000 0.500000 0.073640 -0.051073
N2    N     N_1   0.500000 0.500000 0.926360 -0.050884
O1    O     O_R   0.500000 0.285350 0.636850 -0.631327
O2    O     O_R   0.500000 0.714650 0.636850 -0.612278
O3    O     O_R   0.500000 0.285360 0.363100 -0.620628
O4    O     O_R   0.500000 0.714640 0.363100 -0.611775
O5    O     O_R   0.316770 0.500000 0.636900 -0.604979
O6    O     O_R   0.683230 0.500000 0.636900 -0.628006
O7    O     O_R   0.316780 0.500000 0.363150 -0.619868
O8    O     O_R   0.683220 0.500000 0.363150 -0.632283
Zn1   Zn    Zn3+2 0.500000 0.500000 0.682780 0.955582
Zn2   Zn    Zn3+2 0.500000 0.500000 0.317220 0.960987

loop_
_geom_bond_atom_site_label_1
_geom_bond_atom_site_label_2
_ccdc_geom_bond_type
C12   O4    A    
O4    Zn2   S    
C2    C16   A    
C9    C10   S    
C10   H10   S    
N1    N2    T    
C1    O1    A    
C8    C12   S    
C4    C15   S    
C2    C3    A    
C18   H8    S    
N2    Zn1   S    
C9    H13   S    
C11   C13   S    
C9    H14   S    
C3    C14   S    
C13   H2    S    
C14   O5    A    
C16   C18   A    
C17   C19   A    
C9    C16   S    
O8    Zn2   S    
C15   O8    A    
O3    Zn2   S    
C12   O2    A    
C5    C6    A    
C13   H4    S    
O7    Zn2   S    
C1    O3    A    
O1    Zn1   S    
C4    C20   A    
C10   H12   S    
C7    C8    T    
C17   C20   A    
C5    H1    S    
C13   H3    S    
C4    C6    A    
C18   C19   A    
C11   H5    S    
C11   C17   S    
O2    Zn1   S    
O5    Zn1   S    
C11   H6    S    
C1    C7    S    
N1    Zn2   S    
C2    C20   A    
C10   H11   S    
C6    H7    S    
C15   O6    A    
C14   O7    A    
C3    C5    A    
O6    Zn1   S    
C19   H9    S    
