data_mof_unit_60659.cif
_audit_creation_date              2012-10-26T20:23:11-0400
_audit_creation_method            fapswitch 2.2
_symmetry_space_group_name_H-M    P1
_symmetry_Int_Tables_number       1
_space_group_crystal_system       triclinic
_cell_length_a                    10.703534
_cell_length_b                    12.779052
_cell_length_c                    13.895639
_cell_angle_alpha                 98.021273
_cell_angle_beta                  90.125852
_cell_angle_gamma                 93.509217
_cell_volume                      1878.42440963

loop_
_atom_site_label
_atom_site_type_symbol
_atom_type_description
_atom_site_fract_x
_atom_site_fract_y
_atom_site_fract_z
_atom_type_partial_charge
C1    C     C_R   0.498648 0.483513 0.315855 0.582026
C2    C     C_3   0.967070 0.600293 0.508660 -0.037776
C3    C     C_3   0.953472 0.446178 0.416704 -0.028584
C4    C     C_3   0.046528 0.553822 0.583296 -0.028584
C5    C     C_3   0.876365 0.500773 0.500475 0.026739
C6    C     C_3   0.123635 0.499227 0.499525 0.026740
C7    C     C_3   0.955439 0.454484 0.575161 -0.067196
C8    C     C_3   0.044561 0.545516 0.424839 -0.067196
C9    C     C_1   0.501953 0.525983 0.787529 0.056618
C10   C     C_1   0.498047 0.474017 0.212471 0.056618
C11   C     C_2   0.502909 0.543509 0.978498 -0.106749
C12   C     C_R   0.501352 0.516487 0.684145 0.582026
C13   C     C_2   0.497091 0.456491 0.021502 -0.106749
C14   C     C_1   0.497561 0.465506 0.125370 -0.012236
C15   C     C_1   0.502439 0.534494 0.874630 -0.012236
C16   C     C_2   0.906176 0.386014 0.321845 0.253908
C17   C     C_2   0.093824 0.613986 0.678155 0.253909
C18   C     C_2   0.067183 0.286687 0.481725 0.262290
C19   C     C_2   0.932817 0.713313 0.518275 0.262293
C20   C     C_2   0.910439 0.403835 0.660942 0.230449
C21   C     C_2   0.089560 0.596165 0.339058 0.230450
C22   C     C_2   0.661255 0.019640 0.568059 0.221594
C23   C     C_2   0.456681 0.029371 0.480346 -0.019129
C24   C     C_2   0.338745 0.980360 0.431941 0.221595
C25   C     C_2   0.543319 0.970629 0.519654 -0.019129
C26   C     C_1   0.528430 0.854041 0.516808 0.198152
C27   C     C_1   0.471570 0.145959 0.483191 0.198152
C28   C     C_R   0.259404 0.499852 0.499578 0.618532
C29   C     C_R   0.740596 0.500148 0.500422 0.618531
C30   C     C_3   0.032930 0.399707 0.491340 -0.037776
Cu1   Cu    Cu3+1 0.491940 0.395330 0.493960 1.136155
Cu2   Cu    Cu3+1 0.508060 0.604670 0.506040 1.136154
H1    H     H_    0.491973 0.378190 0.979014 0.152677
H2    H     H_    0.274330 0.030521 0.402501 0.141903
H3    H     H_    0.508027 0.621810 0.020986 0.152677
H4    H     H_    0.972191 0.350299 0.270036 0.151425
H5    H     H_    0.027809 0.649700 0.729963 0.151425
H6    H     H_    0.047915 0.240541 0.540425 0.117553
H7    H     H_    0.952080 0.759457 0.459573 0.117551
H8    H     H_    0.977630 0.372563 0.706209 0.109155
H9    H     H_    0.022370 0.627437 0.293791 0.109155
H10   H     H_    0.725669 0.969479 0.597499 0.141903
N1    N     N_1   0.479830 0.238040 0.484880 -0.155249
N2    N     N_1   0.520170 0.761960 0.515120 -0.155250
O1    O     O_R   0.492210 0.399110 0.356330 -0.481388
O2    O     O_2   0.205394 0.622723 0.697888 -0.500645
O3    O     O_2   0.118400 0.246639 0.408523 -0.500028
O4    O     O_2   0.881603 0.753362 0.591478 -0.500028
O5    O     O_2   0.799467 0.397874 0.680616 -0.461967
O6    O     O_2   0.200533 0.602126 0.319384 -0.461967
O7    O     O_2   0.688811 0.114591 0.575925 -0.464591
O8    O     O_2   0.311189 0.885409 0.424075 -0.464590
O9    O     O_R   0.507790 0.600890 0.643670 -0.481388
O10   O     O_R   0.505820 0.575890 0.366540 -0.486714
O11   O     O_R   0.494180 0.424110 0.633460 -0.486714
O12   O     O_R   0.310050 0.411620 0.494870 -0.506889
O13   O     O_R   0.689950 0.588380 0.505130 -0.506892
O14   O     O_R   0.323660 0.588400 0.505080 -0.430033
O15   O     O_R   0.676340 0.411600 0.494920 -0.430033
O16   O     O_2   0.794606 0.377277 0.302111 -0.500645

loop_
_geom_bond_atom_site_label_1
_geom_bond_atom_site_label_2
_ccdc_geom_bond_type
C24   O8    D    
C3    C30   S    
C2    C4    S    
C1    O10   A    
C13   H1    S    
C20   O5    D    
C18   C30   S    
C23   C27   S    
Cu1   O12   S    
C5    C29   S    
Cu1   Cu2   S    
Cu2   O14   S    
C23   C24   S    
C25   C26   S    
C18   O3    D    
C11   H3    S    
C8    C21   S    
Cu2   N2    S    
C26   N2    T    
C7    C30   S    
C17   H5    S    
C13   C14   S    
C16   H4    S    
C11   C13   D    
C1    O1    A    
C22   H10   S    
Cu1   N1    S    
Cu2   O13   S    
C4    C7    S    
C21   H9    S    
C4    C17   S    
C19   H7    S    
Cu2   O10   S    
C21   O6    D    
C6    C30   S    
C29   O13   A    
C7    C20   S    
C28   O14   A    
C23   C25   D    
C28   O12   A    
C20   H8    S    
C9    C12   S    
C2    C8    S    
C12   O11   A    
C1    C10   S    
C2    C5    S    
C27   N1    T    
Cu2   O9    S    
C17   O2    D    
C4    C6    S    
C3    C8    S    
Cu1   O1    S    
Cu1   O15   S    
C5    C7    S    
C29   O15   A    
C19   O4    D    
C6    C8    S    
Cu1   O11   S    
C2    C19   S    
C18   H6    S    
C16   O16   D    
C11   C15   S    
C6    C28   S    
C3    C16   S    
C12   O9    A    
C9    C15   T    
C10   C14   T    
C22   O7    D    
C3    C5    S    
C22   C25   S    
C24   H2    S    
