data_mof_unit_40768.cif
_audit_creation_date              2012-12-10T17:08:14-0500
_audit_creation_method            fapswitch 2.2
_symmetry_space_group_name_H-M    P1
_symmetry_Int_Tables_number       1
_space_group_crystal_system       triclinic
_cell_length_a                    23.548908
_cell_length_b                    10.961013
_cell_length_c                    9.842093
_cell_angle_alpha                 110.102582
_cell_angle_beta                  99.345505
_cell_angle_gamma                 90.281104
_cell_volume                      2348.94890589

loop_
_atom_site_label
_atom_site_type_symbol
_atom_type_description
_atom_site_fract_x
_atom_site_fract_y
_atom_site_fract_z
_atom_type_partial_charge
C1    C     C_R   0.499195 0.254457 0.443059 0.850511
C2    C     C_R   0.506865 0.745754 0.557269 0.854438
C3    C     C_R   0.245744 0.570457 0.621537 -0.128903
C4    C     C_R   0.754062 0.427546 0.378337 -0.130080
C5    C     C_R   0.305182 0.579166 0.626272 0.375831
C6    C     C_R   0.694640 0.419182 0.373930 0.374579
C7    C     C_R   0.328440 0.506193 0.500543 -0.184484
C8    C     C_R   0.671491 0.493380 0.499316 -0.183686
C9    C     C_R   0.290841 0.432357 0.371336 -0.257365
C10   C     C_R   0.709140 0.568014 0.627987 -0.261371
C11   C     C_R   0.231104 0.427817 0.365557 0.201413
C12   C     C_R   0.768862 0.572202 0.633528 0.201488
C13   C     C_R   0.208593 0.496781 0.492597 0.267273
C14   C     C_R   0.791288 0.502083 0.506731 0.267592
C15   C     C_2   0.504456 0.116096 0.418023 -0.350573
C16   C     C_2   0.515032 0.884821 0.584126 -0.347816
C17   C     C_2   0.535317 0.071957 0.518432 0.160497
C18   C     C_2   0.533681 0.931325 0.487201 0.195605
C19   C     C_2   0.506073 0.505709 0.079674 0.029871
C20   C     C_2   0.496024 0.488788 0.918772 0.031233
C21   C     C_R   0.391056 0.503067 0.500791 0.806188
C22   C     C_R   0.608926 0.496867 0.499194 0.785924
C23   C     C_R   0.879085 0.602892 0.485798 0.585259
C24   C     C_R   0.120762 0.395687 0.512949 0.585453
C25   C     C_R   0.881376 0.400722 0.526564 0.566013
C26   C     C_R   0.118481 0.597971 0.472453 0.566380
C27   C     C_R   0.941750 0.398570 0.530166 -0.046511
C28   C     C_R   0.058095 0.600006 0.468613 -0.046701
C29   C     C_R   0.970007 0.499789 0.501534 -0.127136
C30   C     C_R   0.029833 0.498755 0.497172 -0.127060
C31   C     C_R   0.938649 0.604008 0.481128 -0.083016
C32   C     C_R   0.061191 0.394523 0.517534 -0.083086
C33   C     C_R   0.974513 0.299157 0.560553 0.046233
C34   C     C_R   0.025329 0.699351 0.438093 0.046083
C35   C     C_R   0.032787 0.292011 0.541876 0.428533
C36   C     C_R   0.967046 0.706474 0.456679 0.428558
Cu1   Cu    Cu3+1 0.509980 0.521810 0.644910 0.949699
Cu2   Cu    Cu3+1 0.490020 0.478190 0.355090 0.954539
H1    H     H_    0.227911 0.625093 0.717781 0.169412
H2    H     H_    0.771822 0.372029 0.282310 0.169059
H3    H     H_    0.308041 0.376862 0.274232 0.176691
H4    H     H_    0.691983 0.624392 0.724822 0.177256
H5    H     H_    0.505325 0.952103 0.686843 0.134862
H6    H     H_    0.482051 0.047346 0.314185 0.143941
H7    H     H_    0.462747 0.418112 0.843686 0.142940
H8    H     H_    0.541019 0.571998 0.153322 0.143600
N1    N     N_R   0.852293 0.502481 0.507497 -0.474508
N2    N     N_R   0.147568 0.496221 0.491519 -0.474721
N3    N     N_2   0.475010 0.445410 0.137370 -0.140277
N4    N     N_2   0.524990 0.554590 0.862630 -0.140357
O1    O     O_R   0.505330 0.332340 0.577400 -0.572863
O2    O     O_R   0.494670 0.667660 0.422600 -0.564317
O3    O     O_R   0.488470 0.295500 0.332650 -0.576035
O4    O     O_R   0.511530 0.704500 0.667350 -0.577939
O5    O     O_R   0.426310 0.518390 0.622390 -0.567437
O6    O     O_R   0.573690 0.481610 0.377610 -0.574208
O7    O     O_R   0.409450 0.481550 0.377650 -0.570325
O8    O     O_R   0.590550 0.518450 0.622350 -0.576619
O9    O     O_2   0.847474 0.699909 0.466557 -0.455783
O10   O     O_2   0.152367 0.298611 0.532041 -0.454950
O11   O     O_2   0.851097 0.301084 0.538058 -0.530060
O12   O     O_2   0.148765 0.697734 0.461236 -0.528718
C37   C     C_3   0.950275 0.207575 0.626006 -0.736286
H9    H     H_    0.927325 0.262780 0.715983 0.259091
H10   H     H_    0.920948 0.129871 0.539470 0.270457
H11   H     H_    0.984311 0.160769 0.679050 0.219502
C38   C     C_3   0.049576 0.790853 0.372555 -0.735871
H12   H     H_    0.072613 0.735631 0.282772 0.259167
H13   H     H_    0.015534 0.837454 0.319244 0.219408
H14   H     H_    0.078827 0.868708 0.459103 0.270632
C39   C     C_3   0.571164 0.649744 0.953286 -0.528164
H15   H     H_    0.590962 0.692663 0.883881 0.226965
H16   H     H_    0.553941 0.730009 0.036834 0.168878
H17   H     H_    0.605414 0.602915 0.006063 0.180912
C40   C     C_3   0.427798 0.353021 0.046830 -0.518039
H18   H     H_    0.407233 0.311452 0.116210 0.225259
H19   H     H_    0.394506 0.402266 0.994518 0.183373
H20   H     H_    0.444001 0.271237 0.962279 0.162509
O13   O     O_3   0.062767 0.185410 0.548030 -0.673135
H21   H     H_    0.036059 0.106441 0.501802 0.315805
O14   O     O_3   0.937055 0.813022 0.450371 -0.673442
H22   H     H_    0.963756 0.892011 0.496474 0.315809
O15   O     O_3   0.338292 0.662305 0.753751 -0.712465
H23   H     H_    0.371823 0.698686 0.727878 0.332859
O16   O     O_3   0.661438 0.335179 0.247163 -0.715734
H24   H     H_    0.627813 0.299797 0.273711 0.331944
C41   C     C_3   0.193088 0.349283 0.222872 -0.771251
H25   H     H_    0.203316 0.245522 0.192011 0.238573
H26   H     H_    0.146521 0.354876 0.228838 0.230686
H27   H     H_    0.201111 0.385781 0.135039 0.232532
C42   C     C_3   0.806950 0.651589 0.775716 -0.772378
H28   H     H_    0.853505 0.645427 0.769759 0.230928
H29   H     H_    0.796854 0.755373 0.805343 0.238490
H30   H     H_    0.798862 0.616303 0.864402 0.231866
C43   C     C_3   0.552838 0.846598 0.347591 -0.818453
H31   H     H_    0.574789 0.906591 0.298173 0.221866
H32   H     H_    0.584066 0.777699 0.370944 0.232336
H33   H     H_    0.514679 0.793346 0.266151 0.235178
C44   C     C_3   0.572136 0.158836 0.660481 -0.751703
H34   H     H_    0.599896 0.100234 0.713365 0.222079
H35   H     H_    0.601120 0.227491 0.638478 0.235847
H36   H     H_    0.544464 0.213075 0.739409 0.233927

loop_
_geom_bond_atom_site_label_1
_geom_bond_atom_site_label_2
_ccdc_geom_bond_type
C41   H25   S    
C37   H10   S    
C27   C29   A    
C12   C42   S    
C43   H31   S    
N4    C39   S    
O14   H22   S    
C43   H33   S    
Cu2   N3    S    
O16   H24   S    
C27   C33   A    
C23   O9    S    
Cu1   Cu2   S    
C6    O16   S    
C15   H6    S    
C5    O15   S    
Cu2   O2    S    
C7    C9    A    
C1    O3    A    
C20   N4    D    
C44   H34   S    
C11   C41   S    
C8    C22   S    
N3    C40   S    
C1    C15   S    
C2    C16   S    
C25   N1    A    
Cu1   O8    S    
C3    C13   A    
C26   N2    A    
C37   H11   S    
C3    H1    S    
C18   C43   S    
C10   C12   A    
C19   H8    S    
C23   N1    A    
C38   H12   S    
C24   N2    A    
C32   C35   A    
C4    H2    S    
C4    C6    A    
C2    O4    A    
C42   H28   S    
C21   O5    A    
C6    C8    A    
C7    C21   S    
C42   H29   S    
C17   C44   S    
C37   H9    S    
C38   H13   S    
C23   C31   A    
C40   H18   S    
C24   C32   A    
C21   O7    A    
C29   C30   A    
C39   H17   S    
Cu2   O7    S    
C40   H19   S    
C19   N3    D    
O15   H23   S    
C36   O14   S    
C33   C37   S    
C17   C18   S    
C25   O11   S    
C10   H4    S    
C9    C11   A    
C16   H5    S    
C2    O2    A    
Cu1   O4    S    
C16   C18   D    
C44   H35   S    
C12   C14   A    
C41   H26   S    
C5    C7    A    
C15   C17   D    
C9    H3    S    
C20   H7    S    
C3    C5    A    
C34   C38   S    
C22   O8    A    
C13   N2    S    
C22   O6    A    
C43   H32   S    
C14   N1    S    
C25   C27   A    
C26   C28   A    
C1    O1    A    
C38   H14   S    
C19   C20   S    
C28   C30   A    
C26   O12   S    
C39   H15   S    
C29   C31   A    
C42   H30   S    
C30   C32   A    
Cu1   N4    S    
C11   C13   A    
Cu2   O3    S    
Cu1   O1    S    
C35   O13   S    
C33   C35   A    
C34   C36   A    
C4    C14   A    
C40   H20   S    
C28   C34   A    
O13   H21   S    
Cu1   O5    S    
C44   H36   S    
Cu2   O6    S    
C8    C10   A    
C41   H27   S    
C39   H16   S    
C31   C36   A    
C24   O10   S    
