data_mof_unit_26566.cif
_audit_creation_date              2012-12-10T19:47:59-0500
_audit_creation_method            fapswitch 2.2
_symmetry_space_group_name_H-M    P1
_symmetry_Int_Tables_number       1
_space_group_crystal_system       triclinic
_cell_length_a                    15.024591
_cell_length_b                    14.112373
_cell_length_c                    10.757056
_cell_angle_alpha                 93.002456
_cell_angle_beta                  89.102394
_cell_angle_gamma                 90.22366
_cell_volume                      2277.42560032

loop_
_atom_site_label
_atom_site_type_symbol
_atom_type_description
_atom_site_fract_x
_atom_site_fract_y
_atom_site_fract_z
_atom_type_partial_charge
C1    C     C_R   0.327879 0.499845 0.499908 1.073310
C2    C     C_R   0.672847 0.500201 0.502291 1.084140
C3    C     C_R   0.049288 0.493330 0.526101 0.075522
C4    C     C_R   0.953181 0.496889 0.529045 0.047346
C5    C     C_R   0.442311 0.108178 0.581004 0.377866
C6    C     C_R   0.445339 0.891041 0.416476 0.382091
C7    C     C_R   0.557286 0.102395 0.417648 0.388290
C8    C     C_R   0.554997 0.898420 0.581968 0.350907
C9    C     C_R   0.444206 0.207629 0.578642 0.008171
C10   C     C_R   0.447044 0.791652 0.419676 0.035703
C11   C     C_R   0.555793 0.202036 0.421169 0.040582
C12   C     C_R   0.553089 0.798744 0.579867 0.046710
C13   C     C_R   0.499782 0.053352 0.499125 -0.204391
C14   C     C_R   0.500079 0.946635 0.499135 -0.204199
C15   C     C_R   0.502000 0.496389 0.258801 0.947845
C16   C     C_R   0.501577 0.502649 0.740144 0.930215
C17   C     C_R   0.640063 0.604781 0.134423 0.329441
C18   C     C_R   0.358015 0.421563 0.880830 0.277038
C19   C     C_R   0.640991 0.610148 0.879089 0.276334
C20   C     C_R   0.422823 0.337155 0.090283 0.322442
C21   C     C_R   0.683953 0.680374 0.078846 0.196119
C22   C     C_R   0.312665 0.343296 0.926864 0.240615
C23   C     C_R   0.690764 0.678536 0.948276 0.230467
C24   C     C_R   0.352493 0.293068 0.021577 0.121282
C25   C     C_R   0.572725 0.556670 0.938152 -0.154371
C26   C     C_R   0.460012 0.424601 0.052647 -0.077884
C27   C     C_R   0.574908 0.550982 0.067618 -0.082309
C28   C     C_R   0.439569 0.452826 0.935064 -0.177682
C29   C     C_R   0.502838 0.508290 0.873336 -0.050241
C30   C     C_R   0.516450 0.486363 0.125174 -0.010056
C31   C     C_R   0.095954 0.557241 0.604900 0.386490
C32   C     C_R   0.904579 0.419770 0.570526 0.358134
C33   C     C_R   0.912231 0.576802 0.484365 0.308511
C34   C     C_R   0.092349 0.430105 0.440300 0.349540
C35   C     C_R   0.188565 0.563797 0.590683 0.296191
C36   C     C_R   0.811235 0.422242 0.566135 0.222428
C37   C     C_R   0.819172 0.581437 0.484727 0.274465
C38   C     C_R   0.185531 0.433822 0.429434 0.247171
C39   C     C_R   0.232247 0.499111 0.506982 -0.188353
C40   C     C_R   0.769401 0.500662 0.515233 -0.238870
H1    H     H_    0.400608 0.249623 0.640540 0.200269
H2    H     H_    0.405476 0.749132 0.357111 0.171729
H3    H     H_    0.599497 0.239683 0.359690 0.203596
H4    H     H_    0.594771 0.761748 0.642514 0.224058
N1    N     N_R   0.500000 0.252470 0.500000 -0.185097
N2    N     N_R   0.500000 0.747530 0.500000 -0.165293
O1    O     O_R   0.369060 0.579480 0.500010 -0.618736
O2    O     O_R   0.630940 0.420520 0.499990 -0.594712
O3    O     O_R   0.630940 0.579480 0.499990 -0.495761
O4    O     O_R   0.369060 0.420520 0.500010 -0.571111
O5    O     O_R   0.499990 0.579480 0.316780 -0.595705
O6    O     O_R   0.500010 0.420520 0.683220 -0.617393
O7    O     O_R   0.500010 0.579480 0.683220 -0.600717
O8    O     O_R   0.499990 0.420520 0.316780 -0.588215
Zn1   Zn    Zn3+2 0.500000 0.606140 0.500000 1.060540
Zn2   Zn    Zn3+2 0.500000 0.393860 0.500000 1.034675
S1    S     S_3+6 0.321634 0.173386 0.048546 0.126746
O9    O     O_2   0.253319 0.173881 0.152086 -0.203305
O10   O     O_2   0.283438 0.124007 0.934183 -0.153247
O11   O     O_3   0.410295 0.110688 0.090605 -0.491525
H5    H     H_    0.452210 0.111789 0.018675 0.382875
S2    S     S_3+6 0.766362 0.754097 0.870402 0.163186
O12   O     O_2   0.719813 0.845504 0.848134 -0.153587
O13   O     O_2   0.847204 0.775631 0.947500 -0.189360
O14   O     O_3   0.800964 0.705316 0.732374 -0.470622
H6    H     H_    0.841460 0.653407 0.753181 0.369560
S3    S     S_3+6 0.206854 0.311684 0.864296 0.158918
O15   O     O_2   0.220444 0.245682 0.751469 -0.166584
O16   O     O_2   0.149707 0.263490 0.958137 -0.198407
O17   O     O_3   0.152529 0.408272 0.820869 -0.478477
H7    H     H_    0.144215 0.448418 0.898476 0.355789
S4    S     S_3+6 0.726345 0.774562 0.177083 0.111320
O18   O     O_2   0.822341 0.755966 0.204116 -0.262773
O19   O     O_2   0.718454 0.867757 0.116738 -0.178339
O20   O     O_3   0.667491 0.780828 0.311483 -0.517198
H8    H     H_    0.696302 0.832010 0.363147 0.382390
O21   O     O_3   0.666949 0.576395 0.248142 -0.716693
H9    H     H_    0.730902 0.592120 0.256348 0.378257
O22   O     O_3   0.319949 0.468489 0.786039 -0.704684
H10   H     H_    0.337403 0.536204 0.795815 0.357855
O23   O     O_3   0.665564 0.591017 0.757493 -0.714905
H11   H     H_    0.670976 0.521029 0.747694 0.314482
O24   O     O_3   0.465473 0.287457 0.178205 -0.693134
H12   H     H_    0.419174 0.257672 0.230123 0.386831
O25   O     O_3   0.048985 0.611015 0.694683 -0.713722
H13   H     H_    0.088277 0.625803 0.766229 0.361947
O26   O     O_3   0.950373 0.342878 0.611637 -0.671919
H14   H     H_    0.914327 0.284764 0.595489 0.376143
O27   O     O_3   0.965172 0.647602 0.437962 -0.707020
H15   H     H_    0.932043 0.679383 0.373159 0.381866
O28   O     O_3   0.041553 0.366656 0.369175 -0.713131
H16   H     H_    0.076939 0.308557 0.349747 0.386768
O29   O     O_3   0.237742 0.632268 0.655887 -0.740256
H17   H     H_    0.199892 0.688700 0.674442 0.367178
O30   O     O_3   0.759554 0.351985 0.616148 -0.728810
H18   H     H_    0.791430 0.325864 0.686567 0.360604
O31   O     O_3   0.775818 0.664232 0.459368 -0.660988
H19   H     H_    0.814905 0.719283 0.480196 0.394504
O32   O     O_3   0.232467 0.379279 0.340320 -0.739382
H20   H     H_    0.194149 0.365954 0.267379 0.364050
O33   O     O_3   0.383629 0.068861 0.664211 -0.672561
H21   H     H_    0.387536 0.998894 0.657155 0.364774
O34   O     O_3   0.389496 0.929555 0.331701 -0.677387
H22   H     H_    0.393644 0.999555 0.337749 0.385653
O35   O     O_3   0.615685 0.057178 0.333800 -0.677621
H23   H     H_    0.610058 0.987645 0.338091 0.370763
O36   O     O_3   0.611232 0.944560 0.665784 -0.667995
H24   H     H_    0.607913 0.013923 0.658081 0.362040

loop_
_geom_bond_atom_site_label_1
_geom_bond_atom_site_label_2
_ccdc_geom_bond_type
O26   H14   S    
C9    N1    A    
O29   H17   S    
C31   O25   S    
C10   H2    S    
C19   C23   A    
O30   H18   S    
C37   O31   S    
O23   H11   S    
O21   H9    S    
C7    C11   A    
O33   H21   S    
O24   H12   S    
C32   C36   A    
C28   C29   A    
C37   C40   A    
O25   H13   S    
C38   C39   A    
S1    O10   D    
C34   O28   S    
S2    O13   D    
C16   O7    A    
C23   S2    S    
C20   C24   A    
N1    Zn2   S    
C18   O22   S    
N2    Zn1   S    
C10   N2    A    
O36   H24   S    
C7    O35   S    
C11   H3    S    
O17   H7    S    
C15   O5    A    
C1    O4    A    
C5    C13   A    
S4    O18   D    
C35   O29   S    
C18   C22   A    
C13   C14   S    
C27   C30   A    
S4    O20   S    
O31   H19   S    
C5    O33   S    
O7    Zn1   S    
C25   C29   A    
O8    Zn2   S    
C21   S4    S    
S3    O15   D    
C17   C27   A    
C15   O8    A    
C36   C40   A    
C18   C28   A    
S4    O19   D    
O28   H16   S    
C1    O1    A    
S1    O11   S    
C3    C34   A    
C2    O2    A    
C16   C29   S    
O3    Zn1   S    
C32   O26   S    
C33   C37   A    
O11   H5    S    
S3    O16   D    
C35   C39   A    
O20   H8    S    
C5    C9    A    
S2    O12   D    
C2    O3    A    
C33   O27   S    
C6    C14   A    
O32   H20   S    
C8    C12   A    
C17   O21   S    
C6    O34   S    
C3    C31   A    
C4    C32   A    
C12   N2    A    
C26   C30   A    
C21   C23   A    
C22   C24   A    
C11   N1    A    
C3    C4    S    
C8    O36   S    
C15   C30   S    
O1    Zn1   S    
C24   S1    S    
O2    Zn2   S    
C4    C33   A    
C8    C14   A    
S2    O14   S    
C34   C38   A    
C26   C28   A    
C16   O6    A    
C38   O32   S    
C6    C10   A    
C25   C27   A    
O35   H23   S    
C9    H1    S    
S3    O17   S    
C12   H4    S    
C36   O30   S    
S1    O9    D    
C20   C26   A    
C31   C35   A    
O5    Zn1   S    
C19   C25   A    
O4    Zn2   S    
C22   S3    S    
C1    C39   S    
O22   H10   S    
C2    C40   S    
C7    C13   A    
O14   H6    S    
C20   O24   S    
O34   H22   S    
O27   H15   S    
C19   O23   S    
O6    Zn2   S    
C17   C21   A    
