data_mof_unit_6150.cif
_audit_creation_date              2012-12-11T15:59:38-0500
_audit_creation_method            fapswitch 2.2
_symmetry_space_group_name_H-M    P1
_symmetry_Int_Tables_number       1
_space_group_crystal_system       triclinic
_cell_length_a                    10.736401
_cell_length_b                    10.715909
_cell_length_c                    17.112064
_cell_angle_alpha                 99.652261
_cell_angle_beta                  100.190716
_cell_angle_gamma                 60.352052
_cell_volume                      1676.60087356

loop_
_atom_site_label
_atom_site_type_symbol
_atom_type_description
_atom_site_fract_x
_atom_site_fract_y
_atom_site_fract_z
_atom_type_partial_charge
C1    C     C_R   0.355990 0.769258 0.397840 0.531089
C2    C     C_R   0.856279 0.203617 0.197307 0.031593
C3    C     C_R   0.865996 0.213091 0.281191 0.019218
C4    C     C_R   0.780716 0.471255 0.284901 -0.143080
C5    C     C_R   0.786947 0.459447 0.204647 -0.155975
C6    C     C_R   0.874867 0.071542 0.154110 -0.060385
C7    C     C_R   0.925140 0.948375 0.193070 -0.137037
C8    C     C_R   0.951098 0.955329 0.275795 -0.136806
C9    C     C_R   0.920225 0.086679 0.319823 -0.091597
C10   C     C_R   0.819997 0.349442 0.324051 0.004541
C11   C     C_R   0.356293 0.815571 0.157733 -0.000575
C12   C     C_R   0.398010 0.368340 0.353966 0.564735
C13   C     C_R   0.448684 0.849426 0.216914 0.016795
C14   C     C_R   0.433554 0.855856 0.298078 0.012820
C15   C     C_R   0.282463 0.740530 0.256850 -0.143714
C16   C     C_R   0.284236 0.749781 0.178047 -0.141423
C17   C     C_R   0.554140 0.878361 0.198049 -0.103987
C18   C     C_R   0.630747 0.926839 0.257354 -0.133054
C19   C     C_R   0.607755 0.944157 0.336560 -0.093645
C20   C     C_R   0.507627 0.912251 0.356994 -0.085064
C21   C     C_R   0.347716 0.801915 0.317555 0.010321
C22   C     C_R   0.296684 0.278900 0.798658 0.001606
C23   C     C_R   0.774600 0.378082 0.402959 0.545914
C24   C     C_R   0.424786 0.177110 0.763286 -0.000577
C25   C     C_R   0.478069 0.224146 0.712421 0.019762
C26   C     C_R   0.247449 0.445846 0.703999 -0.105665
C27   C     C_R   0.205431 0.411791 0.765842 0.211695
C28   C     C_R   0.504469 0.030466 0.779369 -0.088271
C29   C     C_R   0.643063 0.941519 0.757627 -0.096308
C30   C     C_R   0.705376 0.996965 0.719158 -0.103213
C31   C     C_R   0.623959 0.136703 0.696609 -0.088448
C32   C     C_R   0.381643 0.352994 0.676097 -0.052568
C33   C     C_1   0.770286 0.368559 0.714663 -0.032487
C34   C     C_R   0.358492 0.768496 0.627696 0.543188
C35   C     C_1   0.814802 0.329874 0.780695 -0.021723
C36   C     C_1   0.339757 0.808428 0.709758 -0.054060
C37   C     C_1   0.313229 0.836362 0.777595 -0.054427
C38   C     C_R   0.891290 0.308751 0.087129 0.534977
C39   C     C_R   0.297369 0.268070 0.124460 0.567988
C40   C     C_R   0.298876 0.886771 0.084102 0.545524
C41   C     C_R   0.879821 0.300823 0.860295 0.551339
C42   C     C_R   0.278248 0.253750 0.876763 0.565935
C43   C     C_R   0.279044 0.884362 0.857263 0.546843
C44   C     C_R   0.408314 0.375197 0.600129 0.533305
C45   C     C_R   0.719150 0.411536 0.635513 0.538205
C46   C     C_1   0.354283 0.342104 0.273229 -0.036947
C47   C     C_1   0.324571 0.311639 0.205008 -0.032083
C48   C     C_R   0.830840 0.326077 0.160575 0.001318
Cr1   Cr    Cr6+3 0.608100 0.610860 0.522250 1.025052
Cr2   Cr    Cr6+3 0.288890 0.599990 0.488420 1.014566
Cr3   Cr    Cr6+3 0.603040 0.289190 0.489390 0.989099
Cr4   Cr    Cr6+3 0.053960 0.052250 0.967380 1.032100
Cr5   Cr    Cr6+3 0.059890 0.373160 0.992710 1.066672
Cr6   Cr    Cr6+3 0.373370 0.061690 0.991710 1.000571
H1    H     H_    0.741726 0.578410 0.315928 0.158762
H2    H     H_    0.706717 0.952688 0.241326 0.135437
H3    H     H_    0.668223 0.981838 0.382337 0.137585
H4    H     H_    0.489436 0.932322 0.419069 0.141601
H5    H     H_    0.173306 0.544833 0.676795 0.176030
H6    H     H_    0.461180 0.983754 0.809516 0.153459
H7    H     H_    0.703073 0.830882 0.772447 0.166814
H8    H     H_    0.815208 0.930603 0.704676 0.140414
H9    H     H_    0.676238 0.173766 0.665747 0.148238
H10   H     H_    0.846536 0.061948 0.090472 0.146217
H11   H     H_    0.763458 0.554419 0.177650 0.138845
H12   H     H_    0.941478 0.847671 0.159077 0.108489
H13   H     H_    0.989134 0.859929 0.306102 0.126290
H14   H     H_    0.940569 0.088055 0.384101 0.133958
H15   H     H_    0.227717 0.685767 0.270032 0.135733
H16   H     H_    0.583741 0.858248 0.138322 0.141660
H17   H     H_    0.220685 0.714230 0.133113 0.144431
O1    O     O_R   0.749810 0.499790 0.438040 -0.511263
O2    O     O_R   0.298970 0.468800 0.557390 -0.484603
O3    O     O_R   0.489400 0.255930 0.561910 -0.513189
O4    O     O_R   0.723890 0.306050 0.584610 -0.530983
O5    O     O_3   0.500010 0.500010 0.500020 -0.297127
O6    O     O_R   0.171100 0.914680 0.053100 -0.506828
O7    O     O_R   0.941680 0.184840 0.050710 -0.513521
O8    O     O_R   0.922080 0.403420 0.072610 -0.527460
O9    O     O_R   0.196880 0.369150 0.083850 -0.494443
O10   O     O_R   0.411730 0.181020 0.091530 -0.506571
O11   O     O_R   0.365010 0.944360 0.063320 -0.526739
O12   O     O_R   0.477660 0.726260 0.439290 -0.508017
O13   O     O_R   0.159380 0.906670 0.876210 -0.478825
O14   O     O_R   0.930820 0.177420 0.886730 -0.499252
O15   O     O_R   0.910360 0.395420 0.895720 -0.471176
O16   O     O_R   0.186010 0.361730 0.919870 -0.423081
O17   O     O_R   0.400000 0.173010 0.914630 -0.522407
O18   O     O_R   0.354140 0.936940 0.899340 -0.540556
O19   O     O_3   0.162410 0.162370 0.983930 -0.288584
O20   O     O_R   0.260150 0.743000 0.412270 -0.532204
O21   O     O_R   0.297740 0.466550 0.394720 -0.488264
O22   O     O_R   0.488080 0.253500 0.386430 -0.507997
O23   O     O_R   0.722670 0.303800 0.421940 -0.516170
O24   O     O_R   0.751130 0.502220 0.613520 -0.459653
O25   O     O_R   0.478890 0.728510 0.601960 -0.504404
O26   O     O_R   0.261470 0.745430 0.587750 -0.516794
Cl1   Cl    Cl    0.033665 0.536882 0.795588 -0.597501

loop_
_geom_bond_atom_site_label_1
_geom_bond_atom_site_label_2
_ccdc_geom_bond_type
C25   C31   A    
C27   Cl1   S    
C1    C21   S    
C33   C45   S    
Cr4   O19   S    
C19   C20   A    
Cr3   O3    S    
C7    C8    A    
C19   H3    S    
C26   C32   A    
C41   O15   A    
C26   C27   A    
C43   O18   A    
C14   C21   A    
C28   C29   A    
Cr5   O8    S    
C34   O25   A    
Cr6   O19   S    
C30   C31   A    
C38   O8    A    
C15   C16   A    
C34   O26   A    
C14   C20   A    
C18   C19   A    
C6    H10   S    
Cr4   O13   S    
C8    C9    A    
Cr1   O1    S    
Cr5   O15   S    
C26   H5    S    
C38   C48   S    
C18   H2    S    
C25   C32   A    
C17   H16   S    
C1    O20   A    
C13   C14   A    
C43   O13   A    
C2    C6    A    
C16   H17   S    
Cr4   O7    S    
C28   H6    S    
C15   H15   S    
C5    C48   A    
C29   H7    S    
C40   O11   A    
Cr5   O9    S    
C24   C25   A    
C39   O10   A    
Cr6   O18   S    
C12   C46   S    
Cr2   O2    S    
C38   O7    A    
C2    C48   A    
Cr1   O24   S    
C37   C43   S    
C29   C30   A    
C3    C9    A    
Cr2   O5    S    
C11   C16   A    
C17   C18   A    
C32   C44   S    
Cr1   O5    S    
Cr5   O16   S    
Cr3   O5    S    
C44   O3    A    
Cr3   O22   S    
C5    H11   S    
C22   C27   A    
C30   H8    S    
C4    H1    S    
C22   C24   A    
C12   O22   A    
C42   O17   A    
C4    C10   A    
Cr4   O6    S    
C45   O24   A    
Cr6   O11   S    
C39   C47   S    
Cr2   O21   S    
C44   O2    A    
C46   C47   T    
Cr4   O14   S    
Cr2   O26   S    
C23   O1    A    
C12   O21   A    
C24   C28   A    
Cr3   O4    S    
C4    C5    A    
C6    C7    A    
C10   C23   S    
C1    O12   A    
C31   H9    S    
C41   O14   A    
C23   O23   A    
C13   C17   A    
C45   O4    A    
C39   O9    A    
Cr1   O12   S    
C2    C3    A    
C9    H14   S    
C3    C10   A    
C7    H12   S    
Cr6   O17   S    
C11   C13   A    
C22   C42   S    
C33   C35   T    
C34   C36   S    
Cr1   O25   S    
C11   C40   S    
C35   C41   S    
Cr3   O23   S    
Cr2   O20   S    
C15   C21   A    
C8    H13   S    
C36   C37   T    
Cr5   O19   S    
C40   O6    A    
C42   O16   A    
C20   H4    S    
Cr6   O10   S    
