data_mof_unit_26918.cif
_audit_creation_date              2012-12-10T17:35:01-0500
_audit_creation_method            fapswitch 2.2
_symmetry_space_group_name_H-M    P1
_symmetry_Int_Tables_number       1
_space_group_crystal_system       triclinic
_cell_length_a                    12.352553
_cell_length_b                    13.045586
_cell_length_c                    13.830497
_cell_angle_alpha                 105.764603
_cell_angle_beta                  74.70964
_cell_angle_gamma                 116.533117
_cell_volume                      1892.58737266

loop_
_atom_site_label
_atom_site_type_symbol
_atom_type_description
_atom_site_fract_x
_atom_site_fract_y
_atom_site_fract_z
_atom_type_partial_charge
C1    C     C_R   0.143997 0.715481 0.511490 0.789278
C2    C     C_1   0.975556 0.505729 0.791121 -0.075613
C3    C     C_R   0.729299 0.965968 0.376228 -0.131360
C4    C     C_R   0.775307 0.159201 0.478118 -0.278932
C5    C     C_R   0.182063 0.930685 0.573281 0.436184
C6    C     C_R   0.263214 0.047606 0.578239 -0.184206
C7    C     C_R   0.387302 0.078556 0.542407 -0.176230
C8    C     C_R   0.434364 0.993476 0.498861 0.140183
C9    C     C_R   0.350592 0.877633 0.470500 0.020088
C10   C     C_R   0.562465 0.021788 0.475405 -0.012540
C11   C     C_R   0.604149 0.940883 0.403532 -0.006978
C12   C     C_R   0.984683 0.504145 0.686183 0.830326
C13   C     C_R   0.520307 0.833973 0.361339 -0.131768
C14   C     C_R   0.395396 0.802410 0.394494 -0.143719
C15   C     C_R   0.650718 0.125828 0.522122 0.318133
C16   C     C_R   0.815397 0.073237 0.414166 0.406992
C17   C     C_R   0.224675 0.842227 0.516815 -0.234124
C18   C     C_R   0.624422 0.647656 0.689231 0.337004
C19   C     C_R   0.258998 0.348269 0.362880 0.551964
C20   C     C_R   0.343156 0.301125 0.355578 -0.355151
C21   C     C_R   0.433503 0.353584 0.416359 0.389776
C22   C     C_R   0.441933 0.457608 0.483886 0.042259
C23   C     C_R   0.856241 0.285016 0.489282 0.888009
C24   C     C_R   0.341640 0.491442 0.504576 0.139098
C25   C     C_R   0.544669 0.524322 0.536075 -0.123301
C26   C     C_R   0.531420 0.599490 0.628332 -0.044228
C27   C     C_R   0.428463 0.627214 0.653749 -0.124108
C28   C     C_R   0.340145 0.579912 0.589817 -0.140233
C29   C     C_R   0.664408 0.528007 0.493914 0.621369
C30   C     C_R   0.728002 0.620802 0.654013 0.020516
C31   C     C_R   0.015784 0.496624 0.313916 0.840651
C32   C     C_1   0.025415 0.495860 0.209088 -0.042780
C33   C     C_2   0.043638 0.494521 0.015314 -0.145617
C34   C     C_2   0.957960 0.508263 0.985104 -0.129906
C35   C     C_1   0.966877 0.507073 0.879747 0.066988
C36   C     C_1   0.034422 0.495153 0.120570 0.064805
Cu1   Cu    Cu3+1 0.899780 0.525060 0.522890 1.120664
Cu2   Cu    Cu3+1 0.100220 0.474940 0.477110 1.014004
H1    H     H_    0.880909 0.520156 0.039099 0.190188
H2    H     H_    0.335041 0.720313 0.356523 0.178377
H3    H     H_    0.795041 0.650656 0.702894 0.222944
H4    H     H_    0.417705 0.690096 0.720703 0.217239
H5    H     H_    0.343035 0.225687 0.298546 0.216299
H6    H     H_    0.271352 0.613873 0.611491 0.197982
H7    H     H_    0.120684 0.482604 0.961346 0.186733
H8    H     H_    0.551465 0.773176 0.304028 0.181957
H9    H     H_    0.760758 0.901682 0.325268 0.195559
H10   H     H_    0.445842 0.169858 0.548037 0.229222
H11   H     H_    0.231879 0.116416 0.614510 0.209106
N1    N     N_R   0.748810 0.563010 0.557590 -0.255512
N2    N     N_R   0.250540 0.437620 0.443020 -0.267362
O1    O     O_R   0.025040 0.682470 0.528790 -0.494358
O2    O     O_R   0.194310 0.640150 0.490130 -0.620552
O3    O     O_R   0.903380 0.524130 0.659910 -0.557011
O4    O     O_R   0.072660 0.481800 0.621240 -0.613767
O5    O     O_R   0.805690 0.359850 0.509870 -0.527780
O6    O     O_R   0.974960 0.317530 0.471210 -0.562279
O7    O     O_R   0.927340 0.518200 0.378760 -0.513979
O8    O     O_R   0.096620 0.475870 0.340090 -0.520513
S1    S     S_3+6 0.612887 0.737121 0.810034 0.030324
O9    O     O_2   0.716673 0.763676 0.862991 -0.247459
O10   O     O_2   0.617090 0.849171 0.795900 -0.258914
O11   O     O_3   0.478760 0.668178 0.881953 -0.530665
H12   H     H_    0.474330 0.725674 0.944951 0.382036
S2    S     S_3+6 0.715311 0.544226 0.363416 0.047373
O12   O     O_2   0.729483 0.436561 0.298591 -0.268654
O13   O     O_2   0.624936 0.564966 0.325009 -0.314602
O14   O     O_3   0.849565 0.661145 0.352541 -0.502176
H13   H     H_    0.873971 0.662896 0.278588 0.360778
S3    S     S_3+6 0.186338 0.298624 0.253173 0.062172
O15   O     O_2   0.049757 0.259463 0.278502 -0.249555
O16   O     O_2   0.240015 0.395774 0.193331 -0.282983
O17   O     O_3   0.215023 0.185362 0.177606 -0.521293
H14   H     H_    0.181280 0.170218 0.115193 0.393101
O18   O     O_3   0.512726 0.303425 0.412345 -0.712723
H15   H     H_    0.492879 0.229795 0.362011 0.337339
O19   O     O_3   0.936462 0.088625 0.389461 -0.638012
H16   H     H_    0.975511 0.133555 0.450423 0.350254
S4    S     S_3+6 0.617944 0.191244 0.651809 0.023412
O20   O     O_2   0.725670 0.227592 0.703528 -0.279382
O21   O     O_2   0.596168 0.297332 0.656999 -0.296294
O22   O     O_3   0.493923 0.095574 0.714293 -0.501574
H17   H     H_    0.478070 0.140688 0.782625 0.393164
S5    S     S_3+6 0.032036 0.903354 0.643434 0.033862
O23   O     O_2   0.940820 0.849819 0.571413 -0.253679
O24   O     O_2   0.002407 0.822028 0.714584 -0.294485
O25   O     O_3   0.022503 0.027731 0.712721 -0.520800
H18   H     H_    0.936252 0.004167 0.747899 0.409448

loop_
_geom_bond_atom_site_label_1
_geom_bond_atom_site_label_2
_ccdc_geom_bond_type
C2    C35   T    
O25   H18   S    
C33   H7    S    
O17   H14   S    
C19   C20   A    
C18   C26   A    
S5    O25   S    
O18   H15   S    
C2    C12   S    
C7    C8    A    
O19   H16   S    
C26   C27   A    
S1    O11   S    
C32   C36   T    
C31   O7    A    
S5    O24   D    
C16   O19   S    
C10   C15   A    
C5    C6    A    
C5    C17   A    
C33   C36   S    
S1    O10   D    
C34   C35   S    
C31   O8    A    
C1    O2    A    
Cu1   O5    S    
C15   S4    S    
Cu2   O4    S    
C8    C9    A    
S2    O13   D    
C22   C25   A    
C23   O6    A    
C30   H3    S    
S3    O15   D    
C18   C30   A    
Cu1   O7    S    
C24   N2    A    
C30   N1    A    
C13   C14   A    
C29   N1    A    
C25   C29   A    
C34   H1    S    
C23   O5    A    
S5    O23   D    
S4    O21   D    
C5    S5    S    
O14   H13   S    
Cu2   N2    S    
C25   C26   A    
C28   H6    S    
S4    O20   D    
S1    O9    D    
C4    C16   A    
C9    C14   A    
Cu1   Cu2   S    
Cu2   O6    S    
C31   C32   S    
S2    O14   S    
S3    O17   S    
C33   C34   D    
C29   S2    S    
Cu1   O3    S    
C18   S1    S    
O22   H17   S    
C22   C24   A    
C20   H5    S    
C9    C17   A    
Cu1   O1    S    
C24   C28   A    
O11   H12   S    
S4    O22   S    
C6    C7    A    
C21   O18   S    
C1    C17   S    
C7    H10   S    
C4    C15   A    
Cu1   N1    S    
C11   C13   A    
C27   H4    S    
C13   H8    S    
Cu2   O2    S    
C3    H9    S    
C6    H11   S    
C1    O1    A    
C12   O4    A    
C3    C11   A    
C10   C11   A    
C14   H2    S    
Cu2   O8    S    
C19   N2    A    
C20   C21   A    
C8    C10   A    
S2    O12   D    
C27   C28   A    
C19   S3    S    
S3    O16   D    
C4    C23   S    
C21   C22   A    
C12   O3    A    
C3    C16   A    
