data_mof_unit_31646.cif
_audit_creation_date              2012-12-11T15:10:43-0500
_audit_creation_method            fapswitch 2.2
_symmetry_space_group_name_H-M    P1
_symmetry_Int_Tables_number       1
_space_group_crystal_system       triclinic
_cell_length_a                    21.163101
_cell_length_b                    7.239025
_cell_length_c                    18.257162
_cell_angle_alpha                 90.123269
_cell_angle_beta                  93.385923
_cell_angle_gamma                 90.12831
_cell_volume                      2792.10434381

loop_
_atom_site_label
_atom_site_type_symbol
_atom_type_description
_atom_site_fract_x
_atom_site_fract_y
_atom_site_fract_z
_atom_type_partial_charge
O1    O     O_R   0.448880 0.506250 0.415280 -0.529295
O2    O     O_R   0.551120 0.006250 0.584720 -0.529953
O3    O     O_R   0.434830 0.174000 0.557310 -0.521390
O4    O     O_R   0.565170 0.674000 0.442690 -0.521318
C1    C     C_R   0.416985 0.344565 0.579655 0.696064
C2    C     C_R   0.583007 0.844600 0.420349 0.696303
O5    O     O_R   0.441680 0.176440 0.414130 -0.531368
O6    O     O_R   0.558320 0.676440 0.585870 -0.530496
O7    O     O_R   0.558020 0.007570 0.440520 -0.519398
O8    O     O_R   0.441980 0.507570 0.559480 -0.519818
C3    C     C_R   0.428068 0.344557 0.388286 0.688310
C4    C     C_R   0.571788 0.845051 0.611761 0.689009
O9    O     O_3   0.538160 0.339670 0.508820 -0.364609
O10   O     O_3   0.461840 0.839670 0.491180 -0.365049
V1    V     V_3+5 0.492920 0.064260 0.498360 1.421464
V2    V     V_3+5 0.507080 0.564260 0.501640 1.422085
C5    C     C_R   0.876799 0.943497 0.687652 -0.157540
C6    C     C_R   0.127375 0.515763 0.309472 -0.159934
H1    H     H_    0.965285 0.965988 0.750408 0.107535
H2    H     H_    0.039621 0.547421 0.246206 0.108925
H3    H     H_    0.797091 0.940688 0.570894 0.124399
H4    H     H_    0.207166 0.514035 0.426167 0.124510
H5    H     H_    0.899271 0.957216 0.636099 0.114322
H6    H     H_    0.106634 0.558593 0.359653 0.114530
C7    C     C_R   0.887085 0.938682 0.820063 -0.066389
C8    C     C_R   0.113214 0.446120 0.180026 -0.070679
C9    C     C_R   0.580590 0.816500 0.745563 -0.206426
C10   C     C_R   0.418779 0.311985 0.254418 -0.205684
C11   C     C_R   0.614794 0.796350 0.812137 -0.195057
C12   C     C_R   0.386261 0.324038 0.186439 -0.193800
C13   C     C_R   0.681173 0.812825 0.817511 0.352433
C14   C     C_R   0.321517 0.369075 0.179983 0.353213
C15   C     C_R   0.714076 0.864954 0.754525 0.039838
C16   C     C_R   0.287165 0.390918 0.244516 0.040297
C17   C     C_R   0.678049 0.875301 0.685270 0.011376
C18   C     C_R   0.322752 0.390922 0.314202 0.011043
C19   C     C_R   0.781498 0.898995 0.756336 0.089773
C20   C     C_R   0.219556 0.420366 0.243062 0.089329
C21   C     C_R   0.810944 0.920569 0.688731 0.125555
C22   C     C_R   0.191924 0.471629 0.309339 0.125873
C23   C     C_R   0.774730 0.922105 0.622296 -0.194739
C24   C     C_R   0.228448 0.477585 0.375540 -0.195724
C25   C     C_R   0.709442 0.904119 0.620635 -0.167943
C26   C     C_R   0.292240 0.433396 0.378312 -0.169449
C27   C     C_R   0.821073 0.918280 0.822019 -0.163859
C28   C     C_R   0.177569 0.397558 0.179439 -0.169039
C29   C     C_R   0.914533 0.949576 0.752655 -0.162681
C30   C     C_R   0.088898 0.507753 0.245086 -0.160132
C31   C     C_R   0.611229 0.850882 0.681551 -0.078614
C32   C     C_R   0.388608 0.350351 0.318453 -0.079512
H7    H     H_    0.802520 0.926581 0.875454 0.166550
H8    H     H_    0.192453 0.339502 0.129052 0.170577
H9    H     H_    0.529704 0.797153 0.743481 0.123968
H10   H     H_    0.468798 0.278980 0.256886 0.124786
H11   H     H_    0.589248 0.760149 0.859769 0.118224
H12   H     H_    0.412487 0.303093 0.137934 0.118466
H13   H     H_    0.683685 0.910029 0.567653 0.107784
H14   H     H_    0.317882 0.436259 0.431412 0.110026
C33   C     C_1   0.864598 0.938868 0.132177 -0.200079
C34   C     C_1   0.135417 0.438974 0.867828 -0.198509
C35   C     C_1   0.821776 0.924817 0.175976 0.001785
C36   C     C_1   0.178239 0.424912 0.824034 0.002618
C37   C     C_1   0.771239 0.905723 0.228138 -0.001570
C38   C     C_1   0.228774 0.405771 0.771876 -0.001290
C39   C     C_1   0.728684 0.889121 0.272151 -0.002621
C40   C     C_1   0.271326 0.389116 0.727864 -0.002526
C41   C     C_1   0.678131 0.870032 0.324291 -0.001439
C42   C     C_1   0.321872 0.369969 0.675723 -0.001538
C43   C     C_1   0.635281 0.855992 0.368051 -0.205220
C44   C     C_1   0.364716 0.355903 0.631959 -0.205532
O11   O     O_R   0.058070 0.289240 0.940580 -0.520788
O12   O     O_R   0.941930 0.789240 0.059420 -0.519962
O13   O     O_R   0.058330 0.616740 0.085880 -0.529956
O14   O     O_R   0.941670 0.116740 0.914120 -0.532481
C45   C     C_R   0.071974 0.449192 0.111794 0.689790
C46   C     C_R   0.928061 0.948342 0.888281 0.688164
O15   O     O_R   0.065180 0.619040 0.942700 -0.522131
O16   O     O_R   0.934820 0.119040 0.057300 -0.522706
O17   O     O_R   0.948870 0.787780 0.915270 -0.526841
O18   O     O_R   0.051130 0.287780 0.084730 -0.532211
C47   C     C_R   0.083181 0.450338 0.920186 0.708719
C48   C     C_R   0.916830 0.950299 0.079814 0.705701
O19   O     O_3   0.961870 0.453310 0.991210 -0.364147
O20   O     O_3   0.038130 0.953310 0.008790 -0.366220
V3    V     V_3+5 0.007070 0.728770 0.001630 1.434920
V4    V     V_3+5 0.992930 0.228770 0.998370 1.427155
O21   O     O_3   0.713783 0.762959 0.882129 -0.664432
H15   H     H_    0.683597 0.729169 0.919459 0.285682
O22   O     O_3   0.293508 0.406223 0.111417 -0.664935
H16   H     H_    0.324280 0.385646 0.073309 0.285925

loop_
_geom_bond_atom_site_label_1
_geom_bond_atom_site_label_2
_ccdc_geom_bond_type
C2    C43   S    
C40   C42   S    
O21   H15   S    
C37   C39   T    
C9    C11   A    
C23   C25   A    
O1    C3    A    
C46   O17   A    
O2    C4    A    
C2    O7    A    
O12   V3    S    
O3    V1    S    
C21   C23   A    
O5    C3    A    
C5    H5    S    
O14   C46   A    
C6    H6    S    
H1    C29   S    
C27   H7    S    
C28   H8    S    
C34   C36   T    
C5    C21   A    
C35   C37   S    
C6    C22   A    
C36   C38   S    
C10   C32   A    
C26   H14   S    
C39   C41   S    
C17   C31   A    
O18   V4    S    
C33   C48   S    
C12   C14   A    
C17   C25   A    
C45   O18   A    
C7    C29   A    
C8    C30   A    
O16   V4    S    
O5    V1    S    
O15   V3    S    
O6    V2    S    
O13   C45   A    
C24   C26   A    
C4    C31   S    
C33   C35   T    
C13   O21   S    
O20   V3    S    
O4    C2    A    
C10   H10   S    
C11   H11   S    
C12   H12   S    
C15   C19   A    
C41   C43   T    
C14   C16   A    
O4    V2    S    
C1    C44   S    
O11   V4    S    
C34   C47   S    
O16   C48   A    
C14   O22   S    
O15   C47   A    
O6    C4    A    
C13   C15   A    
C8    C45   S    
C25   H13   S    
O1    V2    S    
O14   V4    S    
O2    V1    S    
O13   V3    S    
H2    C30   S    
H3    C23   S    
C42   C44   T    
C18   C26   A    
C19   C27   A    
C7    C27   A    
O17   V3    S    
C18   C32   A    
C16   C20   A    
C5    C29   A    
O3    C1    A    
C6    C30   A    
C9    H9    S    
C7    C46   S    
C10   C12   A    
O7    V1    S    
C1    O8    A    
C19   C21   A    
C3    C32   S    
O8    V2    S    
C20   C22   A    
H4    C24   S    
C22   C24   A    
C15   C17   A    
C16   C18   A    
C20   C28   A    
C8    C28   A    
O19   V4    S    
C11   C13   A    
O9    V2    S    
O10   V1    S    
O22   H16   S    
O12   C48   A    
C9    C31   A    
C38   C40   T    
O11   C47   A    
