data_mof_unit_19080.cif
_audit_creation_date              2012-12-10T17:07:52-0500
_audit_creation_method            fapswitch 2.2
_symmetry_space_group_name_H-M    P1
_symmetry_Int_Tables_number       1
_space_group_crystal_system       triclinic
_cell_length_a                    10.672849
_cell_length_b                    10.711082
_cell_length_c                    10.007081
_cell_angle_alpha                 89.606592
_cell_angle_beta                  89.592009
_cell_angle_gamma                 89.75386
_cell_volume                      1143.92080502

loop_
_atom_site_label
_atom_site_type_symbol
_atom_type_description
_atom_site_fract_x
_atom_site_fract_y
_atom_site_fract_z
_atom_type_partial_charge
C1    C     C_R   0.504934 0.262186 0.500603 0.810296
C2    C     C_2   0.600018 0.517179 0.074089 -0.137638
C3    C     C_R   0.257985 0.498441 0.500966 0.884034
C4    C     C_R   0.494089 0.737159 0.499573 0.941893
C5    C     C_R   0.742264 0.496795 0.499578 0.868393
C6    C     C_3   0.068722 0.498727 0.650676 -0.163845
C7    C     C_3   0.926110 0.502176 0.645709 -0.494047
C8    C     C_3   0.070154 0.605654 0.414827 0.347494
C9    C     C_3   0.077744 0.371466 0.438087 -0.512442
C10   C     C_3   0.122077 0.495057 0.503475 -0.082419
C11   C     C_2   0.890402 0.365571 0.281525 0.446118
C12   C     C_3   0.878976 0.493398 0.498482 -0.036759
C13   C     C_3   0.578509 0.084534 0.720991 0.086576
C14   C     C_3   0.680024 0.159906 0.791440 -0.309131
C15   C     C_3   0.649235 0.176850 0.939413 -0.923430
C16   C     C_2   0.111226 0.391194 0.739795 0.474611
C17   C     C_3   0.126965 0.780993 0.549085 0.087817
C18   C     C_3   0.135178 0.922355 0.528824 -0.308851
C19   C     C_3   0.147637 0.990346 0.661475 -0.981466
C20   C     C_2   0.883784 0.253254 0.500179 0.306834
C21   C     C_3   0.926516 0.612113 0.424001 -0.457011
C22   C     C_3   0.931425 0.370402 0.428340 -0.001530
C23   C     C_2   0.484899 0.934464 0.387318 -0.100066
C24   C     C_2   0.472530 0.867662 0.499076 -0.276516
C25   C     C_2   0.473726 0.067992 0.395703 -0.268838
C26   C     C_2   0.521227 0.129216 0.500172 0.368346
C27   C     C_2   0.601089 0.507795 0.924273 -0.142383
H1    H     H_    0.100764 0.584539 0.700881 0.160144
H2    H     H_    0.419511 0.475412 0.102830 0.186325
H3    H     H_    0.884330 0.427120 0.709111 0.170043
H4    H     H_    0.893118 0.591373 0.691003 0.189238
H5    H     H_    0.892986 0.697581 0.475430 0.179077
H6    H     H_    0.123171 0.360143 0.338535 0.230269
H7    H     H_    0.114101 0.289653 0.494917 0.136315
H8    H     H_    0.799083 0.328388 0.256467 0.120916
H9    H     H_    0.577677 0.989482 0.766158 0.149943
H10   H     H_    0.483390 0.124220 0.740645 0.131317
H11   H     H_    0.771348 0.110368 0.781797 0.219617
H12   H     H_    0.089713 0.577445 0.309810 0.191503
H13   H     H_    0.690064 0.253195 0.743776 0.236938
H14   H     H_    0.558687 0.227168 0.951588 0.272268
H15   H     H_    0.724031 0.232371 0.987261 0.270615
H16   H     H_    0.643226 0.084666 0.990535 0.263544
H17   H     H_    0.085883 0.295904 0.717680 0.034322
H18   H     H_    0.209340 0.749283 0.607729 0.147565
H19   H     H_    0.039689 0.761840 0.606166 0.131122
H20   H     H_    0.217292 0.945043 0.464572 0.233590
H21   H     H_    0.049556 0.956229 0.477072 0.250669
H22   H     H_    0.063437 0.974066 0.725012 0.275975
H23   H     H_    0.887091 0.618507 0.321476 0.189136
H24   H     H_    0.156741 0.092007 0.642171 0.253244
H25   H     H_    0.232430 0.957665 0.715355 0.259362
H26   H     H_    0.900469 0.240388 0.605907 0.067645
H27   H     H_    0.502257 0.892206 0.290511 0.174976
H28   H     H_    0.444271 0.909900 0.592835 0.143266
H29   H     H_    0.421980 0.115458 0.316971 0.142914
H30   H     H_    0.691622 0.508573 0.874519 0.173501
H31   H     H_    0.415631 0.508805 0.898481 0.205924
H32   H     H_    0.688472 0.535713 0.122564 0.177791
N1    N     N_2   0.501360 0.501330 0.852150 -0.188085
N2    N     N_2   0.501390 0.501360 0.147810 -0.194620
O1    O     O_R   0.499980 0.319060 0.613040 -0.623148
O2    O     O_3   0.609120 0.071820 0.583613 -0.598239
O3    O     O_2   0.171772 0.411317 0.840414 -0.568564
O4    O     O_3   0.131073 0.723589 0.422517 -0.644619
O5    O     O_2   0.829580 0.170204 0.440993 -0.552865
O6    O     O_R   0.500020 0.319100 0.386900 -0.624153
O7    O     O_R   0.314770 0.499960 0.613070 -0.607814
O8    O     O_R   0.314820 0.500000 0.386930 -0.609924
O9    O     O_R   0.499980 0.680900 0.613100 -0.620830
O10   O     O_R   0.500020 0.680940 0.386960 -0.599306
O11   O     O_R   0.685180 0.500000 0.613070 -0.629707
O12   O     O_R   0.685230 0.500040 0.386930 -0.640798
O13   O     O_2   0.955611 0.406299 0.190493 -0.610049
Zn1   Zn    Zn3+2 0.499970 0.499970 0.650990 0.955939
Zn2   Zn    Zn3+2 0.500030 0.500030 0.349010 0.961665

loop_
_geom_bond_atom_site_label_1
_geom_bond_atom_site_label_2
_ccdc_geom_bond_type
C6    C10   S    
C23   C24   D    
C2    N2    D    
C6    C7    S    
C8    H12   S    
C19   H24   S    
C14   H11   S    
C6    C16   S    
C9    C10   S    
C16   H17   S    
C11   C22   S    
C17   O4    S    
C3    O7    A    
C13   O2    S    
C25   H29   S    
C26   O2    S    
C18   H20   S    
C11   H8    S    
C17   C18   S    
C15   H16   S    
C8    O4    S    
C7    H3    S    
H31   N1    S    
C13   C14   S    
C1    O1    A    
O7    Zn1   S    
C9    H6    S    
C2    C27   S    
C23   H27   S    
O11   Zn1   S    
C19   H25   S    
C4    O9    A    
C21   H23   S    
C1    O6    A    
C17   H18   S    
C9    H7    S    
C8    C21   S    
C5    O11   A    
C27   N1    D    
C23   C25   S    
N2    Zn2   S    
C5    O12   A    
C1    C26   S    
C4    C24   S    
O12   Zn2   S    
H2    N2    S    
C7    C12   S    
N1    Zn1   S    
C7    H4    S    
C5    C12   S    
C14   H13   S    
C21   H5    S    
C12   C22   S    
O10   Zn2   S    
C17   H19   S    
C15   H14   S    
C13   H9    S    
C8    C10   S    
C9    C22   S    
C27   H30   S    
C20   O5    D    
O9    Zn1   S    
C3    C10   S    
C19   H22   S    
C14   C15   S    
C18   C19   S    
O6    Zn2   S    
C16   O3    D    
C3    O8    A    
C25   C26   D    
C2    H32   S    
O8    Zn2   S    
C13   H10   S    
C12   C21   S    
C4    O10   A    
C6    H1    S    
O1    Zn1   S    
C15   H15   S    
C20   C22   S    
C20   H26   S    
C24   H28   S    
C11   O13   D    
C18   H21   S    
