data_mof_unit_46819.cif
_audit_creation_date              2012-12-10T20:27:53-0500
_audit_creation_method            fapswitch 2.2
_symmetry_space_group_name_H-M    P1
_symmetry_Int_Tables_number       1
_space_group_crystal_system       triclinic
_cell_length_a                    12.835519
_cell_length_b                    10.676078
_cell_length_c                    9.852694
_cell_angle_alpha                 89.716281
_cell_angle_beta                  97.886109
_cell_angle_gamma                 90.154128
_cell_volume                      1337.35644243

loop_
_atom_site_label
_atom_site_type_symbol
_atom_type_description
_atom_site_fract_x
_atom_site_fract_y
_atom_site_fract_z
_atom_type_partial_charge
C1    C     C_R   0.504154 0.259843 0.500984 0.875250
C2    C     C_R   0.027754 0.556367 0.547838 0.071553
C3    C     C_R   0.972179 0.478544 0.446401 0.128415
C4    C     C_R   0.866326 0.457555 0.446335 -0.293326
C5    C     C_R   0.869455 0.583994 0.652216 0.172503
C6    C     C_R   0.975642 0.608228 0.650231 -0.220090
C7    C     C_R   0.535024 0.063001 0.627836 0.139479
C8    C     C_R   0.523407 0.128657 0.504028 -0.159748
C9    C     C_R   0.533912 0.065449 0.381970 -0.185936
C10   C     C_R   0.533426 0.935998 0.381362 -0.203277
C11   C     C_R   0.522065 0.871322 0.502673 -0.102903
C12   C     C_R   0.298258 0.504235 0.472348 0.941549
C13   C     C_R   0.533157 0.935111 0.626641 0.050619
C14   C     C_3   0.471001 0.926747 0.743930 -0.473809
C15   C     C_3   0.474287 0.068901 0.746859 0.208165
C16   C     C_R   0.448626 0.407947 0.062753 0.262107
C17   C     C_R   0.557492 0.585002 0.081807 -0.126257
C18   C     C_R   0.557177 0.585248 0.937704 -0.125195
C19   C     C_R   0.448215 0.408353 0.920092 0.325561
C20   C     C_3   0.333247 0.380597 0.894742 -0.499764
C21   C     C_3   0.333954 0.379566 0.048926 -0.533992
C22   C     C_R   0.503578 0.740123 0.500264 0.913010
C23   C     C_R   0.702069 0.501665 0.527937 0.894376
C24   C     C_R   0.814634 0.511405 0.546569 -0.079311
C25   C     C_R   0.185921 0.509326 0.453580 -0.127368
C26   C     C_R   0.022820 0.422457 0.345878 -0.186300
C27   C     C_R   0.130125 0.436362 0.350718 -0.268128
C28   C     C_R   0.134746 0.576790 0.546780 0.303205
H1    H     H_    0.823395 0.400033 0.366759 0.170287
H2    H     H_    0.516034 0.880768 0.835059 0.232143
H3    H     H_    0.395957 0.113935 0.722018 0.108445
H4    H     H_    0.602321 0.655100 0.143819 0.152616
H5    H     H_    0.601210 0.655873 0.890649 0.159372
H6    H     H_    0.286509 0.458934 0.842842 0.251217
H7    H     H_    0.316490 0.287227 0.847335 0.210024
H8    H     H_    0.287607 0.457160 0.085721 0.225354
H9    H     H_    0.318274 0.285457 0.090547 0.214771
H10   H     H_    0.980281 0.363822 0.267356 0.156725
H11   H     H_    0.016493 0.665518 0.730982 0.203088
H12   H     H_    0.170197 0.385783 0.278089 0.170377
H13   H     H_    0.534067 0.114707 0.285580 0.201178
H14   H     H_    0.533560 0.887937 0.284790 0.181380
H15   H     H_    0.390559 0.888605 0.713268 0.224596
N1    N     N_R   0.499290 0.499140 0.142710 -0.116173
N2    N     N_R   0.499290 0.499180 0.857070 -0.107041
O1    O     O_R   0.500010 0.316790 0.614690 -0.602229
O2    O     O_R   0.500000 0.316760 0.385350 -0.622291
O3    O     O_R   0.346360 0.499990 0.595720 -0.585358
O4    O     O_R   0.346350 0.499960 0.366370 -0.629361
O5    O     O_R   0.500000 0.683240 0.614650 -0.601880
O6    O     O_R   0.499990 0.683210 0.385310 -0.631994
O7    O     O_R   0.653650 0.500040 0.633630 -0.592142
O8    O     O_R   0.653640 0.500010 0.404280 -0.628565
Zn1   Zn    Zn3+2 0.500010 0.500020 0.653130 1.002068
Zn2   Zn    Zn3+2 0.499990 0.499980 0.346870 0.957240
Cl1   Cl    Cl    0.553458 0.127665 0.896201 -0.651366
N3    N     N_2   0.818000 0.636851 0.757378 -0.299763
H16   H     H_    0.837264 0.729695 0.775837 0.228925
C29   C     C_3   0.830316 0.563660 0.882586 -0.725964
H17   H     H_    0.788231 0.609813 0.959788 0.224155
H18   H     H_    0.914827 0.556246 0.925472 0.231602
H19   H     H_    0.796958 0.468280 0.862980 0.267430
Cl2   Cl    Cl    0.204357 0.688278 0.658587 -0.679253

loop_
_geom_bond_atom_site_label_1
_geom_bond_atom_site_label_2
_ccdc_geom_bond_type
C8    C9    A    
C7    C13   A    
C23   C24   S    
C28   Cl2   S    
C12   O4    A    
C16   C21   S    
C27   H12   S    
C10   H14   S    
C1    C8    S    
C22   O6    A    
C9    C10   A    
C16   N1    A    
C11   C22   S    
C9    H13   S    
C19   C20   S    
C5    N3    S    
C12   C25   S    
C12   O3    A    
C20   H6    S    
C15   Cl1   S    
O1    Zn1   S    
C7    C15   S    
C17   C18   A    
C23   O7    A    
C17   N1    A    
C29   H17   S    
C21   H8    S    
C2    C6    A    
C13   C14   S    
C25   C28   A    
O3    Zn1   S    
C11   C13   A    
N1    Zn2   S    
N3    H16   S    
O5    Zn1   S    
C5    C24   A    
C14   H2    S    
C16   C19   A    
O7    Zn1   S    
N2    Zn1   S    
C23   O8    A    
C2    C3    A    
O8    Zn2   S    
C26   C27   A    
C5    C6    A    
C4    C24   A    
C18   H5    S    
C1    O1    A    
N3    C29   S    
C29   H18   S    
C10   C11   A    
C3    C4    A    
C18   N2    A    
C22   O5    A    
C7    C8    A    
C21   H9    S    
C20   C21   S    
O2    Zn2   S    
C17   H4    S    
C6    H11   S    
C26   H10   S    
C29   H19   S    
C2    C28   A    
O6    Zn2   S    
C14   C15   S    
C20   H7    S    
C25   C27   A    
C15   H3    S    
C3    C26   A    
C1    O2    A    
C19   N2    A    
C4    H1    S    
C14   H15   S    
O4    Zn2   S    
