data_mof_unit_60980.cif
_audit_creation_date              2012-12-10T20:11:20-0500
_audit_creation_method            fapswitch 2.2
_symmetry_space_group_name_H-M    P1
_symmetry_Int_Tables_number       1
_space_group_crystal_system       triclinic
_cell_length_a                    15.95003
_cell_length_b                    15.950033
_cell_length_c                    51.398226
_cell_angle_alpha                 89.999926
_cell_angle_beta                  89.999936
_cell_angle_gamma                 89.994928
_cell_volume                      13075.8887863

loop_
_atom_site_label
_atom_site_type_symbol
_atom_type_description
_atom_site_fract_x
_atom_site_fract_y
_atom_site_fract_z
_atom_type_partial_charge
C1    C     C_R   0.964569 0.568465 0.637097 -0.033981
C2    C     C_R   0.535432 0.931535 0.862902 -0.033981
C3    C     C_1   0.276575 0.223425 0.250000 0.008994
C4    C     C_1   0.223426 0.723426 0.750000 0.002058
C5    C     C_1   0.776574 0.276574 0.250000 0.002058
C6    C     C_1   0.276575 0.223425 0.750000 0.008994
C7    C     C_1   0.723425 0.776575 0.250000 0.008994
C8    C     C_1   0.776575 0.723425 0.250000 0.008994
C9    C     C_1   0.223425 0.276575 0.750000 0.008994
C10   C     C_1   0.723426 0.223426 0.250000 0.002058
C11   C     C_1   0.276574 0.776574 0.750000 0.002058
C12   C     C_1   0.223425 0.276575 0.250000 0.008994
C13   C     C_R   0.931535 0.535432 0.137098 -0.033981
C14   C     C_1   0.776575 0.723425 0.750000 0.008994
C15   C     C_1   0.276574 0.776574 0.250000 0.002058
C16   C     C_1   0.723426 0.223426 0.750000 0.002058
C17   C     C_R   0.546163 0.058951 0.945107 0.404650
C18   C     C_R   0.453837 0.941049 0.054892 0.404650
C19   C     C_R   0.941049 0.453836 0.945108 0.404650
C20   C     C_R   0.058950 0.546164 0.054892 0.404650
C21   C     C_R   0.453837 0.941049 0.945108 0.404650
C22   C     C_R   0.546163 0.058951 0.054892 0.404650
C23   C     C_R   0.058951 0.546163 0.945107 0.404651
C24   C     C_R   0.068465 0.464568 0.862902 -0.033981
C25   C     C_R   0.941049 0.453837 0.054892 0.404650
C26   C     C_R   0.046165 0.558949 0.445107 0.404651
C27   C     C_R   0.953835 0.441051 0.554892 0.404650
C28   C     C_R   0.441050 0.953836 0.445108 0.404650
C29   C     C_R   0.558950 0.046164 0.554892 0.404651
C30   C     C_R   0.953835 0.441051 0.445108 0.404650
C31   C     C_R   0.046165 0.558949 0.554892 0.404651
C32   C     C_R   0.558950 0.046164 0.445107 0.404650
C33   C     C_R   0.441050 0.953836 0.554892 0.404650
C34   C     C_R   0.453032 0.939750 0.972486 0.027816
C35   C     C_R   0.535432 0.931535 0.137098 -0.033981
C36   C     C_R   0.546968 0.060249 0.027514 0.027816
C37   C     C_R   0.060249 0.546968 0.972486 0.027816
C38   C     C_R   0.939750 0.453032 0.027514 0.027816
C39   C     C_R   0.546968 0.060249 0.972486 0.027816
C40   C     C_R   0.453032 0.939750 0.027514 0.027816
C41   C     C_R   0.939750 0.453032 0.972486 0.027816
C42   C     C_R   0.060249 0.546968 0.027514 0.027816
C43   C     C_R   0.953030 0.439752 0.472486 0.027816
C44   C     C_R   0.046970 0.560248 0.527514 0.027816
C45   C     C_R   0.560249 0.046968 0.472486 0.027816
C46   C     C_R   0.464567 0.068464 0.862902 -0.033981
C47   C     C_R   0.439751 0.953032 0.527514 0.027816
C48   C     C_R   0.046970 0.560248 0.472486 0.027816
C49   C     C_R   0.953030 0.439752 0.527514 0.027816
C50   C     C_R   0.439751 0.953031 0.472486 0.027816
C51   C     C_R   0.560249 0.046969 0.527514 0.027816
C52   C     C_2   0.928997 0.644584 0.649702 0.240891
C53   C     C_2   0.071003 0.355416 0.350298 0.240891
C54   C     C_2   0.355416 0.071005 0.649702 0.240890
C55   C     C_2   0.644583 0.928995 0.350298 0.240890
C56   C     C_2   0.071003 0.355416 0.649702 0.240892
C57   C     C_R   0.068465 0.464568 0.137098 -0.033981
C58   C     C_2   0.928997 0.644584 0.350297 0.240891
C59   C     C_2   0.644583 0.928995 0.649702 0.240891
C60   C     C_2   0.355416 0.071004 0.350298 0.240891
C61   C     C_2   0.428995 0.144583 0.149702 0.240891
C62   C     C_2   0.571006 0.855417 0.850298 0.240891
C63   C     C_2   0.855417 0.571005 0.149702 0.240890
C64   C     C_2   0.144583 0.428995 0.850298 0.240890
C65   C     C_2   0.571006 0.855417 0.149702 0.240892
C66   C     C_2   0.428994 0.144583 0.850298 0.240890
C67   C     C_2   0.144583 0.428995 0.149702 0.240891
C68   C     C_R   0.931535 0.535432 0.862902 -0.033981
C69   C     C_2   0.855417 0.571005 0.850298 0.240891
C70   C     C_R   0.500000 0.000000 0.986227 -0.027503
C71   C     C_R   0.500000 1.000000 0.013773 -0.027503
C72   C     C_R   1.000000 0.500000 0.986227 -0.027503
C73   C     C_R   0.035431 0.431535 0.362902 -0.033981
C74   C     C_R   1.000000 0.500000 0.013773 -0.027503
C75   C     C_R   1.000000 0.500000 0.486227 -0.027503
C76   C     C_R   1.000000 0.500000 0.513773 -0.027503
C77   C     C_R   0.500000 1.000000 0.486227 -0.027503
C78   C     C_R   0.500000 0.000000 0.513773 -0.027503
C79   C     C_R   0.406330 0.879954 0.986406 -0.119579
C80   C     C_R   0.593670 0.120045 0.013594 -0.119579
C81   C     C_R   0.120045 0.593670 0.986406 -0.119579
C82   C     C_R   0.879955 0.406330 0.013594 -0.119579
C83   C     C_R   0.593670 0.120045 0.986406 -0.119579
C84   C     C_R   0.431535 0.035432 0.637097 -0.033981
C85   C     C_R   0.406330 0.879954 0.013594 -0.119579
C86   C     C_R   0.879955 0.406329 0.986406 -0.119579
C87   C     C_R   0.120045 0.593670 0.013594 -0.119579
C88   C     C_R   0.906326 0.379957 0.486406 -0.119579
C89   C     C_R   0.093674 0.620043 0.513594 -0.119579
C90   C     C_R   0.620045 0.093671 0.486406 -0.119579
C91   C     C_R   0.379955 0.906329 0.513594 -0.119579
C92   C     C_R   0.093674 0.620043 0.486406 -0.119579
C93   C     C_R   0.906326 0.379957 0.513594 -0.119579
C94   C     C_R   0.379955 0.906329 0.486406 -0.119579
C95   C     C_R   0.568465 0.964568 0.362902 -0.033981
C96   C     C_R   0.620045 0.093671 0.513594 -0.119579
C97   C     C_R   0.964201 0.566661 0.609798 -0.085949
C98   C     C_R   0.035799 0.433339 0.390202 -0.085949
C99   C     C_R   0.433340 0.035800 0.609798 -0.085949
C100  C     C_R   0.566660 0.964200 0.390202 -0.085949
C101  C     C_R   0.035799 0.433339 0.609798 -0.085949
C102  C     C_R   0.964201 0.566661 0.390202 -0.085949
C103  C     C_R   0.566660 0.964200 0.609798 -0.085949
C104  C     C_R   0.433340 0.035799 0.390202 -0.085949
C105  C     C_R   0.464200 0.066660 0.109798 -0.085949
C106  C     C_R   0.035431 0.431535 0.637097 -0.033981
C107  C     C_R   0.535800 0.933340 0.890202 -0.085949
C108  C     C_R   0.933340 0.535800 0.109798 -0.085949
C109  C     C_R   0.066660 0.464200 0.890202 -0.085949
C110  C     C_R   0.535800 0.933340 0.109798 -0.085949
C111  C     C_R   0.464199 0.066660 0.890202 -0.085949
C112  C     C_R   0.066660 0.464200 0.109798 -0.085949
C113  C     C_R   0.933340 0.535800 0.890202 -0.085949
C114  C     C_R   0.000000 0.500000 0.596105 0.220212
C115  C     C_R   1.000000 0.500000 0.403894 0.220212
C116  C     C_R   0.500000 0.000000 0.596105 0.220212
C117  C     C_R   0.964569 0.568465 0.362902 -0.033982
C118  C     C_R   0.500000 1.000000 0.403894 0.220212
C119  C     C_R   0.500000 0.000000 0.096105 0.220212
C120  C     C_R   0.500000 0.000000 0.903895 0.220212
C121  C     C_R   1.000000 0.500000 0.096105 0.220212
C122  C     C_R   1.000000 0.500000 0.903895 0.220212
C123  C     C_R   1.000000 0.500000 0.820129 0.619735
C124  C     C_R   0.000000 0.500000 0.179871 0.619735
C125  C     C_R   0.500000 0.000000 0.820129 0.619734
C126  C     C_R   0.500000 0.000000 0.179871 0.619734
C127  C     C_R   0.500000 1.000000 0.320128 0.619735
C128  C     C_R   0.568465 0.964568 0.637097 -0.033981
C129  C     C_R   0.500000 0.000000 0.679871 0.619735
C130  C     C_R   1.000000 0.500000 0.320128 0.619735
C131  C     C_R   1.000000 0.500000 0.679871 0.619735
C132  C     C_R   0.839675 0.660325 0.750000 0.546428
C133  C     C_R   0.160325 0.339675 0.250000 0.546428
C134  C     C_R   0.339673 0.839673 0.750000 0.528930
C135  C     C_R   0.660326 0.160326 0.250000 0.528931
C136  C     C_R   0.160325 0.339675 0.750000 0.546429
C137  C     C_R   0.839675 0.660325 0.250000 0.546429
C138  C     C_R   0.660326 0.160326 0.750000 0.528931
C139  C     C_R   0.431535 0.035432 0.362902 -0.033981
C140  C     C_R   0.339673 0.839673 0.250000 0.528931
C141  C     C_R   0.839673 0.339674 0.250000 0.528931
C142  C     C_R   0.160326 0.660326 0.750000 0.528931
C143  C     C_R   0.339675 0.160325 0.250000 0.546428
C144  C     C_R   0.660325 0.839675 0.750000 0.546428
C145  C     C_R   0.160326 0.660326 0.250000 0.528931
C146  C     C_R   0.839673 0.339674 0.750000 0.528931
C147  C     C_R   0.660325 0.839675 0.250000 0.546429
C148  C     C_R   0.339675 0.160325 0.750000 0.546429
C149  C     C_R   0.000000 0.500000 0.651109 0.053928
C150  C     C_R   0.464568 0.068465 0.137098 -0.033981
C151  C     C_R   1.000000 0.500000 0.348891 0.053928
C152  C     C_R   0.500000 0.000000 0.651109 0.053928
C153  C     C_R   0.500000 1.000000 0.348891 0.053928
C154  C     C_R   0.500000 0.000000 0.151109 0.053927
C155  C     C_R   0.500000 1.000000 0.848891 0.053927
C156  C     C_R   1.000000 0.500000 0.151109 0.053928
C157  C     C_R   1.000000 0.500000 0.848891 0.053927
C158  C     C_1   0.776574 0.276574 0.750000 0.002058
C159  C     C_1   0.223426 0.723426 0.250000 0.002058
C160  C     C_1   0.723425 0.776575 0.750000 0.008994
H1    H     H_    0.369607 0.832927 0.976348 0.171362
H2    H     H_    0.130397 0.667069 0.523652 0.171362
H3    H     H_    0.667072 0.130394 0.476348 0.171362
H4    H     H_    0.332928 0.869606 0.523652 0.171362
H5    H     H_    0.130397 0.667069 0.476348 0.171362
H6    H     H_    0.869602 0.332931 0.523652 0.171362
H7    H     H_    0.332928 0.869606 0.476348 0.171361
H8    H     H_    0.667072 0.130394 0.523652 0.171362
H9    H     H_    0.936917 0.618139 0.598934 0.126392
H10   H     H_    0.063082 0.381861 0.401066 0.126392
H11   H     H_    0.381862 0.063084 0.598934 0.126392
H12   H     H_    0.630393 0.167073 0.023652 0.171362
H13   H     H_    0.618138 0.936916 0.401066 0.126392
H14   H     H_    0.063083 0.381861 0.598934 0.126392
H15   H     H_    0.936917 0.618139 0.401066 0.126392
H16   H     H_    0.618138 0.936916 0.598934 0.126392
H17   H     H_    0.381862 0.063084 0.401066 0.126392
H18   H     H_    0.436915 0.118138 0.098934 0.126392
H19   H     H_    0.563085 0.881863 0.901066 0.126392
H20   H     H_    0.881862 0.563085 0.098934 0.126392
H21   H     H_    0.118138 0.436915 0.901066 0.126392
H22   H     H_    0.563085 0.881862 0.098934 0.126392
H23   H     H_    0.167073 0.630393 0.976348 0.171362
H24   H     H_    0.436915 0.118137 0.901066 0.126392
H25   H     H_    0.118138 0.436916 0.098934 0.126392
H26   H     H_    0.881862 0.563084 0.901066 0.126392
H27   H     H_    0.891192 0.687628 0.638288 0.113285
H28   H     H_    0.108808 0.312372 0.361712 0.113285
H29   H     H_    0.312373 0.108811 0.638288 0.113286
H30   H     H_    0.687627 0.891189 0.361712 0.113286
H31   H     H_    0.108808 0.312372 0.638288 0.113285
H32   H     H_    0.891192 0.687628 0.361712 0.113285
H33   H     H_    0.687627 0.891189 0.638288 0.113285
H34   H     H_    0.832927 0.369607 0.023652 0.171362
H35   H     H_    0.312373 0.108810 0.361712 0.113285
H36   H     H_    0.391189 0.187626 0.138288 0.113285
H37   H     H_    0.608812 0.812374 0.861712 0.113285
H38   H     H_    0.812374 0.608812 0.138288 0.113285
H39   H     H_    0.187626 0.391188 0.861712 0.113286
H40   H     H_    0.608812 0.812374 0.138288 0.113285
H41   H     H_    0.391187 0.187626 0.861712 0.113285
H42   H     H_    0.187626 0.391189 0.138288 0.113285
H43   H     H_    0.812373 0.608811 0.861712 0.113286
H44   H     H_    0.630393 0.167073 0.976348 0.171362
H45   H     H_    0.369607 0.832927 0.023652 0.171362
H46   H     H_    0.832927 0.369607 0.976348 0.171362
H47   H     H_    0.167073 0.630393 0.023652 0.171362
H48   H     H_    0.869602 0.332931 0.476348 0.171362
N1    N     N_R   0.500000 0.000000 0.931966 -0.392946
N2    N     N_R   0.500000 1.000000 0.068034 -0.392946
N3    N     N_R   1.000000 0.500000 0.931966 -0.392946
N4    N     N_R   1.000000 0.500000 0.068034 -0.392947
N5    N     N_R   1.000000 0.500000 0.431966 -0.392947
N6    N     N_R   0.000000 0.500000 0.568034 -0.392947
N7    N     N_R   0.500000 1.000000 0.431966 -0.392946
N8    N     N_R   0.500000 0.000000 0.568034 -0.392946
O1    O     O_3   1.000000 0.500000 0.750000 -0.467205
O2    O     O_R   1.000000 0.430630 0.192350 -0.504691
O3    O     O_R   0.430630 0.000000 0.807650 -0.504691
O4    O     O_R   0.569370 0.000000 0.192350 -0.504692
O5    O     O_R   0.500000 0.930630 0.307650 -0.504691
O6    O     O_R   0.500000 0.069370 0.692350 -0.504692
O7    O     O_R   0.069370 0.500000 0.307650 -0.504691
O8    O     O_R   0.930630 0.500000 0.692350 -0.504691
O9    O     O_R   0.500000 0.069370 0.307650 -0.504691
O10   O     O_R   0.500000 0.930630 0.692350 -0.504691
O11   O     O_R   0.930630 0.500000 0.307650 -0.504691
O12   O     O_3   1.000000 0.500000 0.250000 -0.467205
O13   O     O_R   0.069370 0.500000 0.692350 -0.504692
O14   O     O_R   0.902350 0.666510 0.764820 -0.519659
O15   O     O_R   0.097650 0.333490 0.235180 -0.519660
O16   O     O_R   0.333490 0.902350 0.764820 -0.530632
O17   O     O_R   0.666510 0.097650 0.235180 -0.530632
O18   O     O_R   0.097650 0.333490 0.764820 -0.519660
O19   O     O_R   0.902350 0.666510 0.235180 -0.519660
O20   O     O_R   0.666510 0.097650 0.764820 -0.530631
O21   O     O_R   0.333490 0.902350 0.235180 -0.530631
O22   O     O_R   0.902350 0.333490 0.235180 -0.530631
O23   O     O_3   0.500000 0.000000 0.750000 -0.467205
O24   O     O_R   0.097650 0.666510 0.764820 -0.530631
O25   O     O_R   0.333490 0.097650 0.235180 -0.519660
O26   O     O_R   0.666510 0.902350 0.764820 -0.519660
O27   O     O_R   0.097650 0.666510 0.235180 -0.530632
O28   O     O_R   0.902350 0.333490 0.764820 -0.530632
O29   O     O_R   0.666510 0.902350 0.235180 -0.519660
O30   O     O_R   0.333490 0.097650 0.764820 -0.519660
O31   O     O_R   0.402350 0.166510 0.264820 -0.519660
O32   O     O_R   0.597650 0.833490 0.735180 -0.519660
O33   O     O_R   0.833490 0.402350 0.264820 -0.530632
O34   O     O_3   0.500000 0.000000 0.250000 -0.467205
O35   O     O_R   0.166510 0.597650 0.735180 -0.530632
O36   O     O_R   0.597650 0.833490 0.264820 -0.519660
O37   O     O_R   0.402350 0.166510 0.735180 -0.519660
O38   O     O_R   0.166510 0.597650 0.264820 -0.530631
O39   O     O_R   0.833490 0.402350 0.735180 -0.530631
O40   O     O_R   0.402350 0.833490 0.735180 -0.530631
O41   O     O_R   0.597650 0.166510 0.264820 -0.530631
O42   O     O_R   0.833490 0.597650 0.735180 -0.519660
O43   O     O_R   0.166510 0.402350 0.264820 -0.519660
O44   O     O_R   0.597650 0.166510 0.735180 -0.530632
O45   O     O_R   1.000000 0.430630 0.807650 -0.504692
O46   O     O_R   0.402350 0.833490 0.264820 -0.530632
O47   O     O_R   0.166510 0.402350 0.735180 -0.519660
O48   O     O_R   0.833490 0.597650 0.264820 -0.519660
O49   O     O_2   0.591727 0.115717 0.931735 -0.482500
O50   O     O_2   0.408273 0.884283 0.068265 -0.482500
O51   O     O_2   0.884283 0.408273 0.931735 -0.482500
O52   O     O_2   0.115717 0.591727 0.068265 -0.482500
O53   O     O_2   0.408273 0.884283 0.931735 -0.482500
O54   O     O_2   0.591727 0.115717 0.068265 -0.482500
O55   O     O_2   0.115717 0.591727 0.931735 -0.482500
O56   O     O_R   1.000000 0.569370 0.192350 -0.504692
O57   O     O_2   0.884283 0.408273 0.068265 -0.482500
O58   O     O_2   0.091730 0.615715 0.431735 -0.482500
O59   O     O_2   0.908270 0.384285 0.568265 -0.482500
O60   O     O_2   0.384283 0.908272 0.431735 -0.482500
O61   O     O_2   0.615717 0.091728 0.568265 -0.482500
O62   O     O_2   0.908270 0.384285 0.431735 -0.482500
O63   O     O_2   0.091730 0.615715 0.568265 -0.482500
O64   O     O_2   0.615717 0.091728 0.431735 -0.482500
O65   O     O_2   0.384283 0.908272 0.568265 -0.482500
O66   O     O_2   0.943137 0.662099 0.672396 -0.494589
O67   O     O_R   0.569370 0.000000 0.807650 -0.504691
O68   O     O_2   0.056863 0.337901 0.327604 -0.494589
O69   O     O_2   0.337901 0.056864 0.672396 -0.494589
O70   O     O_2   0.662098 0.943136 0.327604 -0.494589
O71   O     O_2   0.056863 0.337901 0.672396 -0.494590
O72   O     O_2   0.943137 0.662099 0.327604 -0.494589
O73   O     O_2   0.662099 0.943136 0.672396 -0.494589
O74   O     O_2   0.337901 0.056864 0.327604 -0.494590
O75   O     O_2   0.443135 0.162098 0.172396 -0.494589
O76   O     O_2   0.556865 0.837901 0.827604 -0.494589
O77   O     O_2   0.837901 0.556864 0.172396 -0.494588
O78   O     O_R   0.430630 0.000000 0.192350 -0.504691
O79   O     O_2   0.162099 0.443135 0.827604 -0.494588
O80   O     O_2   0.556865 0.837901 0.172396 -0.494589
O81   O     O_2   0.443135 0.162098 0.827604 -0.494588
O82   O     O_2   0.162098 0.443136 0.172396 -0.494589
O83   O     O_2   0.837901 0.556864 0.827604 -0.494589
O84   O     O_R   1.000000 0.569370 0.807650 -0.504691
Zn1   Zn    Zn3+2 0.900880 0.500000 0.727850 1.024068
Zn2   Zn    Zn3+2 0.599120 0.000000 0.772150 1.024067
Zn3   Zn    Zn3+2 1.000000 0.400880 0.227850 1.024068
Zn4   Zn    Zn3+2 1.000000 0.599120 0.772150 1.024068
Zn5   Zn    Zn3+2 0.599120 0.000000 0.227850 1.024067
Zn6   Zn    Zn3+2 0.400880 0.000000 0.772150 1.024067
Zn7   Zn    Zn3+2 0.000000 0.599120 0.227850 1.024067
Zn8   Zn    Zn3+2 1.000000 0.400880 0.772150 1.024067
Zn9   Zn    Zn3+2 0.099120 0.500000 0.272150 1.024068
Zn10  Zn    Zn3+2 0.500000 0.900880 0.727850 1.024067
Zn11  Zn    Zn3+2 0.500000 0.099120 0.272150 1.024068
Zn12  Zn    Zn3+2 0.099120 0.500000 0.727850 1.024068
Zn13  Zn    Zn3+2 0.900880 0.500000 0.272150 1.024068
Zn14  Zn    Zn3+2 0.500000 0.099120 0.727850 1.024067
Zn15  Zn    Zn3+2 0.500000 0.900880 0.272150 1.024068
Zn16  Zn    Zn3+2 0.400880 0.000000 0.227850 1.024067

loop_
_geom_bond_atom_site_label_1
_geom_bond_atom_site_label_2
_ccdc_geom_bond_type
C40   C71   A    
C141  O33   A    
C32   C45   A    
C107  C120  A    
C35   C154  A    
C116  N8    S    
C31   N6    A    
O31   Zn11  S    
O22   Zn3   S    
C46   C155  A    
C141  O22   A    
C130  O7    A    
C18   N2    A    
O28   Zn8   S    
C4    C142  S    
C29   O61   S    
O11   Zn13  S    
C145  O27   A    
C17   C39   A    
C18   C40   A    
O23   Zn14  S    
O19   Zn7   S    
C66   H41   S    
C113  C122  A    
O6    Zn14  S    
C144  O26   A    
C129  O10   A    
C96   H8    S    
O45   Zn8   S    
C118  N7    S    
C52   H27   S    
C137  O19   A    
C36   C71   A    
C56   H31   S    
C37   C81   A    
C88   H48   S    
C80   C83   A    
C126  O4    A    
O9    Zn11  S    
C124  O2    A    
O21   Zn16  S    
C43   C75   A    
C138  O44   A    
C147  O36   A    
O8    Zn1   S    
C16   C158  T    
C3    C143  S    
C129  C152  S    
C36   C80   A    
C99   C116  A    
C18   O50   S    
C14   C132  S    
C61   O75   D    
O25   Zn16  S    
C55   O70   D    
O37   Zn14  S    
C95   C153  A    
C75   C76   A    
O1    Zn12  S    
C105  C150  A    
O23   Zn2   S    
O34   Zn16  S    
C13   C63   S    
C45   C90   A    
C61   H36   S    
C56   C106  S    
C126  C154  S    
C67   O82   D    
C58   H32   S    
C33   C47   A    
C91   H4    S    
C131  C149  S    
C80   H12   S    
C50   C77   A    
C89   H2    S    
C79   C85   A    
C53   O68   D    
C27   O59   S    
C119  N2    S    
C142  O35   A    
C107  H19   S    
C16   C138  S    
O17   Zn5   S    
C83   H44   S    
C20   C42   A    
C104  C139  A    
C59   O73   D    
C22   C36   A    
C103  C116  A    
C51   C78   A    
C30   N5    A    
C22   N2    A    
C103  H16   S    
C20   N4    A    
C39   C83   A    
C137  O48   A    
O26   Zn2   S    
O40   Zn10  S    
C146  O28   A    
C139  C153  A    
O1    Zn4   S    
C49   C93   A    
O12   Zn7   S    
C126  O78   A    
O34   Zn5   S    
C114  N6    S    
C6    C9    T    
O15   Zn3   S    
C85   H45   S    
C7    C8    T    
C58   O72   D    
C59   H33   S    
C54   O69   D    
C26   N5    A    
C34   C79   A    
C121  N4    S    
C63   O77   D    
C115  N5    S    
C44   C76   A    
C128  C152  A    
C21   N1    A    
C136  O18   A    
C27   N6    A    
C134  O16   A    
C140  O46   A    
C136  O47   A    
C32   N7    A    
C13   C108  A    
O18   Zn8   S    
O29   Zn5   S    
C7    C147  S    
C73   C98   A    
C57   C156  A    
C30   O62   S    
C10   C135  S    
C11   C134  S    
C112  H25   S    
C24   C157  A    
C50   C94   A    
C123  C157  S    
C102  H15   S    
C58   C117  S    
C62   O76   D    
O39   Zn1   S    
C13   C156  A    
C25   C38   A    
C104  H17   S    
O12   Zn3   S    
C117  C151  A    
O12   Zn9   S    
O13   Zn12  S    
C131  O8    A    
C102  C117  A    
O34   Zn11  S    
O24   Zn4   S    
C93   H6    S    
C37   C72   A    
C144  C160  S    
O14   Zn4   S    
O3    Zn6   S    
C84   C152  A    
C19   O51   S    
C38   C74   A    
C109  H21   S    
C101  C106  A    
C124  O56   A    
C62   H37   S    
C129  O6    A    
O20   Zn2   S    
C110  C119  A    
O23   Zn6   S    
C90   C96   A    
C146  C158  S    
C124  C156  S    
C112  C121  A    
C98   C115  A    
C140  O21   A    
C98   H10   S    
O84   Zn4   S    
C48   C92   A    
O44   Zn14  S    
C45   C77   A    
C42   C87   A    
C47   C78   A    
C97   C114  A    
O2    Zn3   S    
C44   C89   A    
C27   C49   A    
C60   H35   S    
O33   Zn13  S    
O10   Zn10  S    
C60   O74   D    
O35   Zn12  S    
C146  O39   A    
C138  O20   A    
O1    Zn1   S    
C108  C121  A    
C20   O52   S    
C54   C84   S    
C21   O53   S    
C77   C78   A    
C142  O24   A    
C41   C86   A    
C23   O55   S    
C19   N3    A    
C43   C88   A    
C53   H28   S    
C79   H1    S    
C46   C66   S    
C17   N1    A    
C29   C51   A    
C91   C94   A    
C35   C65   S    
O1    Zn8   S    
C25   O57   S    
C102  C115  A    
C92   H5    S    
C125  O67   A    
C68   C69   S    
C143  O25   A    
C1    C149  A    
C70   C71   A    
C34   C70   A    
C26   C48   A    
C68   C113  A    
C131  O13   A    
C28   N7    A    
C24   C64   S    
C46   C111  A    
C38   C82   A    
C101  C114  A    
C127  C153  S    
C104  C118  A    
C42   C74   A    
C135  O41   A    
C72   C74   A    
C95   C100  A    
C21   C34   A    
C82   C86   A    
C54   H29   S    
C8    C137  S    
C40   C85   A    
C25   N4    A    
C15   C159  T    
O48   Zn13  S    
C65   H40   S    
C148  O30   A    
C4    C11   T    
C81   C87   A    
C35   C110  A    
O78   Zn16  S    
O30   Zn6   S    
O67   Zn2   S    
C130  O11   A    
C100  C118  A    
C68   C157  A    
C15   C140  S    
C120  N1    S    
C84   C99   A    
C47   C91   A    
O46   Zn15  S    
C24   C109  A    
C132  O14   A    
C132  O42   A    
C63   H38   S    
C90   H3    S    
O12   Zn13  S    
C134  O40   A    
C23   C37   A    
C65   O80   D    
O34   Zn15  S    
C23   N3    A    
C145  C159  S    
C143  O31   A    
C64   O79   D    
C1    C52   S    
C82   H34   S    
O4    Zn5   S    
C133  O43   A    
C110  H22   S    
C69   O83   D    
C64   H39   S    
C130  C151  S    
C127  O9    A    
C122  N3    S    
C105  C119  A    
O38   Zn9   S    
O23   Zn10  S    
C19   C41   A    
C2    C155  A    
C123  O84   A    
O56   Zn7   S    
C105  H18   S    
C86   H46   S    
C109  C122  A    
C28   O60   S    
C57   C112  A    
C99   H11   S    
C2    C107  A    
C97   H9    S    
C108  H20   S    
C17   O49   S    
C3    C12   T    
C28   C50   A    
O16   Zn6   S    
O36   Zn15  S    
C135  O17   A    
C31   O63   S    
C61   C150  S    
C32   O64   S    
C51   C96   A    
C22   O54   S    
C148  O37   A    
C106  C149  A    
C73   C151  A    
C48   C75   A    
C101  H14   S    
O47   Zn12  S    
C57   C67   S    
C33   N8    A    
O42   Zn1   S    
C33   O65   S    
C31   C44   A    
C55   H30   S    
C55   C95   S    
C1    C97   A    
C26   O58   S    
C29   N8    A    
C59   C128  S    
O32   Zn10  S    
O27   Zn7   S    
C14   C160  T    
C111  C120  A    
C133  O15   A    
C6    C148  S    
C5    C141  S    
C49   C76   A    
C89   C92   A    
C103  C128  A    
C87   H47   S    
C41   C72   A    
C30   C43   A    
C125  O3    A    
C69   H43   S    
C12   C133  S    
C144  O32   A    
C81   H23   S    
O5    Zn15  S    
C88   C93   A    
C53   C73   S    
C94   H7    S    
C66   O81   D    
O41   Zn11  S    
C5    C10   T    
C67   H42   S    
O43   Zn9   S    
C123  O45   A    
C113  H26   S    
C111  H24   S    
C39   C70   A    
C56   O71   D    
C145  O38   A    
C127  O5    A    
C60   C139  S    
C52   O66   D    
C9    C136  S    
C125  C155  S    
C147  O29   A    
C150  C154  A    
C100  H13   S    
O7    Zn9   S    
C2    C62   S    
