data_mof_unit_30420.cif
_audit_creation_date              2013-03-05T15:59:10-0500
_audit_creation_method            fapswitch 2.2
_symmetry_space_group_name_H-M    P1
_symmetry_Int_Tables_number       1
_space_group_crystal_system       triclinic
_cell_length_a                    12.621116
_cell_length_b                    13.114049
_cell_length_c                    15.732023
_cell_angle_alpha                 90.699736
_cell_angle_beta                  103.182472
_cell_angle_gamma                 81.717146
_cell_volume                      2508.23257157

loop_
_atom_site_label
_atom_site_type_symbol
_atom_site_description
_atom_site_fract_x
_atom_site_fract_y
_atom_site_fract_z
_atom_type_partial_charge
O1    O     O_R   0.366740 0.627160 0.478850 -0.564406
O2    O     O_R   0.544830 0.662520 0.507140 -0.623246
C1    C     C_R   0.437818 0.691714 0.486058 0.866053
O3    O     O_R   0.410920 0.482310 0.608710 -0.633114
O4    O     O_R   0.589010 0.517670 0.637000 -0.580098
C2    C     C_R   0.501348 0.500451 0.661562 0.891166
Zn1   Zn    Zn3+2 0.381090 0.476390 0.481110 1.036530
Zn2   Zn    Zn3+2 0.618910 0.523610 0.518890 0.957061
O5    O     O_R   0.455170 0.337480 0.492860 -0.586917
O6    O     O_R   0.633260 0.372840 0.521150 -0.640055
O7    O     O_R   0.410990 0.482330 0.363000 -0.550410
O8    O     O_R   0.589080 0.517690 0.391290 -0.651490
C3    C     C_R   0.561786 0.308581 0.509423 0.890233
C4    C     C_R   0.498644 0.499739 0.338427 0.886338
C5    C     C_3   0.385206 0.518782 0.927707 -0.475940
C6    C     C_3   0.562674 0.594313 0.965972 0.331899
C7    C     C_3   0.558143 0.592418 0.063712 -0.425180
H1    H     H_    0.333655 0.589220 0.041056 0.198640
H2    H     H_    0.340866 0.593728 0.897195 0.202270
H3    H     H_    0.514439 0.668098 0.935969 0.102643
H4    H     H_    0.512999 0.666903 0.079613 0.165537
H5    H     H_    0.642023 0.584546 0.107181 0.231028
C8    C     C_1   0.495851 0.499820 0.248907 -0.105272
C9    C     C_3   0.506350 0.503786 0.918527 0.156692
C10   C     C_3   0.381333 0.516237 0.024989 -0.354685
C11   C     C_3   0.499559 0.502152 0.082668 0.216491
C12   C     C_3   0.563720 0.399513 0.060125 -0.366034
C13   C     C_3   0.563451 0.398637 0.961999 -0.346737
C14   C     C_1   0.496263 0.500640 0.173581 -0.054034
C15   C     C_1   0.506128 0.503060 0.826845 -0.017934
C16   C     C_1   0.504368 0.501871 0.751112 -0.097990
H6    H     H_    0.518625 0.335863 0.930455 0.178650
H7    H     H_    0.648731 0.380417 0.952849 0.235309
H8    H     H_    0.525626 0.333106 0.076597 0.194228
H9    H     H_    0.341325 0.457009 0.893083 0.210996
H10   H     H_    0.338049 0.451748 0.037599 0.213096
H11   H     H_    0.650067 0.389881 0.099314 0.207208
C17   C     C_R   0.711845 0.060188 0.449493 0.375141
H12   H     H_    0.749372 0.215364 0.466351 0.187839
H13   H     H_    0.703595 0.865997 0.385978 0.231953
C18   C     C_R   0.599975 0.199191 0.505313 -0.111418
C19   C     C_R   0.293437 0.844493 0.489593 0.322405
C20   C     C_R   0.270858 0.949879 0.502090 -0.148280
C21   C     C_R   0.349564 0.013201 0.501056 -0.213024
C22   C     C_R   0.451887 0.973508 0.481973 0.126638
C23   C     C_R   0.469098 0.869793 0.458128 0.056559
C24   C     C_R   0.536570 0.034182 0.483855 0.080897
C25   C     C_R   0.630287 0.996163 0.450351 -0.000876
C26   C     C_R   0.637367 0.897130 0.416055 -0.167554
C27   C     C_R   0.557884 0.835478 0.419303 -0.170680
C28   C     C_R   0.529445 0.132548 0.517944 -0.176335
C29   C     C_R   0.693552 0.162830 0.474479 -0.254953
C30   C     C_R   0.396835 0.802678 0.473361 -0.246835
H14   H     H_    0.465531 0.161934 0.550809 0.152049
H15   H     H_    0.325379 0.093739 0.511423 0.181015
H16   H     H_    0.191964 0.983038 0.514016 0.212008
H17   H     H_    0.565557 0.760926 0.389235 0.173979
C31   C     C_R   0.087747 0.344976 0.381646 -0.302518
H18   H     H_    0.882988 0.311769 0.362672 0.189861
H19   H     H_    0.064888 0.285618 0.335249 0.199385
N1    N     N_R   0.222200 0.444690 0.455710 -0.165903
C32   C     C_R   0.797978 0.631536 0.601008 -0.072837
C33   C     C_R   0.902124 0.660894 0.623182 0.337900
C34   C     C_R   0.985058 0.609769 0.586140 -0.215675
C35   C     C_R   0.963053 0.529959 0.526166 -0.028941
C36   C     C_R   0.855363 0.503358 0.506347 0.216942
C37   C     C_R   0.042655 0.476034 0.484680 0.024262
C38   C     C_R   0.012327 0.397350 0.424909 0.109890
C39   C     C_R   0.906549 0.372010 0.407903 -0.196632
C40   C     C_R   0.829359 0.424338 0.448213 -0.174966
C41   C     C_R   0.151372 0.497035 0.499178 -0.046337
C42   C     C_R   0.192952 0.370644 0.397111 0.443737
N2    N     N_R   0.776960 0.554780 0.543830 -0.154698
H20   H     H_    0.182272 0.554214 0.544041 0.173751
H21   H     H_    0.732872 0.669634 0.629519 0.197014
H22   H     H_    0.065135 0.633454 0.605474 0.206750
H23   H     H_    0.749537 0.401535 0.432316 0.203046
S1    S     S_3+6 0.833562 0.017366 0.413056 0.034264
O9    O     O_2   0.803567 0.999216 0.316594 -0.234752
O10   O     O_2   0.910837 0.096368 0.430048 -0.309743
O11   O     O_3   0.897426 0.906177 0.464772 -0.502599
H24   H     H_    0.920343 0.924439 0.526911 0.381596
N3    N     N_R   0.210048 0.782101 0.492845 0.215158
O12   O     O_R   0.159930 0.792391 0.556738 -0.369194
O13   O     O_R   0.166825 0.734807 0.423127 -0.334933
N4    N     N_R   0.268729 0.320129 0.349904 0.226430
O14   O     O_R   0.268968 0.357425 0.273750 -0.362963
O15   O     O_R   0.309818 0.224221 0.368846 -0.405083
S2    S     S_3+6 0.927667 0.760027 0.698356 0.068731
O16   O     O_2   0.952398 0.714656 0.789192 -0.213731
O17   O     O_2   0.024209 0.808777 0.686598 -0.247051
O18   O     O_3   0.815717 0.850274 0.685225 -0.511325
H25   H     H_    0.797490 0.870355 0.622495 0.336907
S3    S     S_3+6 0.701931 0.597088 0.955357 0.036511
O19   O     O_2   0.778297 0.506672 0.002978 -0.296309
O20   O     O_2   0.707250 0.596238 0.860876 -0.263993
O21   O     O_3   0.742580 0.706404 0.999575 -0.512695
H26   H     H_    0.818449 0.704564 0.991599 0.411687

loop_
_geom_bond_atom_site_label_1
_geom_bond_atom_site_label_2
_geom_bond_distance
_ccdc_geom_bond_type
C21   H15   1.077457 S    
C3    C18   1.451599 S    
O11   H24   0.990932 S    
C36   C40   1.398552 A    
C22   C23   1.406202 A    
Zn1   O7    1.983146 S    
C11   C12   1.548739 S    
C7    C11   1.548638 S    
C8    C14   1.186411 T    
O18   H25   0.990719 S    
C19   C30   1.418209 A    
O4    C2    1.301357 A    
O7    C4    1.302090 A    
N4    O15   1.300152 A    
C5    C10   1.543249 S    
C37   C41   1.405436 A    
C17   C29   1.399503 A    
C31   H19   1.084768 S    
H13   C26   1.080102 S    
O5    C3    1.310632 A    
Zn1   N1    2.055395 S    
N3    O12   1.300295 A    
C6    C7    1.552328 S    
C35   C37   1.420740 A    
C32   N2    1.355992 A    
S2    O17   1.502570 D    
C18   C29   1.396762 A    
C17   C25   1.421387 A    
C6    H3    1.113586 S    
N1    C41   1.352216 A    
H12   C29   1.081847 S    
C6    C9    1.565668 S    
C40   H23   1.066295 S    
C39   C40   1.378675 A    
H1    C10   1.113361 S    
O3    Zn1   1.958917 S    
C5    H9    1.113811 S    
O21   H26   0.990615 S    
C22   C24   1.416445 A    
C12   H8    1.113428 S    
C37   C38   1.421759 A    
C13   H6    1.113629 S    
O3    C2    1.300419 A    
S1    O9    1.502661 D    
C38   C39   1.388191 A    
C24   C28   1.389751 A    
C17   S1    1.774573 S    
S3    O21   1.681372 S    
C10   C11   1.546321 S    
C36   N2    1.358600 A    
C7    H4    1.113569 S    
O1    C1    1.305511 A    
C4    C8    1.400728 S    
C5    H2    1.113594 S    
C20   C21   1.386357 A    
C32   C33   1.389628 A    
O4    Zn2   1.983148 S    
C24   C25   1.426000 A    
Zn2   O8    1.958917 S    
C33   S2    1.761245 S    
C34   H22   1.076265 S    
S2    O18   1.682492 S    
S3    O20   1.502940 D    
H18   C39   1.084572 S    
N1    C42   1.362076 A    
C31   C38   1.391672 A    
C25   C26   1.399001 A    
N3    O13   1.301232 A    
O8    C4    1.299811 A    
C13   H7    1.109972 S    
C35   C36   1.416660 A    
C32   H21   1.081831 S    
C19   C20   1.391167 A    
C21   C22   1.417112 A    
N4    O14   1.300359 A    
Zn1   O5    1.914549 S    
C5    C9    1.552635 S    
O1    Zn1   1.959339 S    
C27   H17   1.082271 S    
O2    Zn2   1.914548 S    
C19   N3    1.432979 S    
C9    C13   1.549341 S    
O6    C3    1.302780 A    
C41   H20   1.076239 S    
C42   N4    1.426350 S    
C23   C27   1.411189 A    
C6    S3    1.808518 S    
C7    H5    1.113151 S    
C28   H14   1.078129 S    
C34   C35   1.415235 A    
O2    C1    1.315498 A    
C1    C30   1.472457 S    
S1    O11   1.681974 S    
C31   C42   1.383840 A    
C15   C16   1.186521 T    
C12   H11   1.113327 S    
C23   C30   1.414227 A    
Zn2   N2    2.043078 S    
C2    C16   1.400556 S    
S1    O10   1.503814 D    
S3    O19   1.503076 D    
C9    C15   1.441627 S    
C10   H10   1.113404 S    
C33   C34   1.396848 A    
C20   H16   1.083618 S    
C11   C14   1.440761 S    
Zn2   O6    1.959341 S    
C26   C27   1.385889 A    
C12   C13   1.542854 S    
S2    O16   1.502468 D    
C18   C28   1.380144 A    
