data_mof_unit_22177.cif
_audit_creation_date              2012-12-10T17:43:18-0500
_audit_creation_method            fapswitch 2.2
_symmetry_space_group_name_H-M    P1
_symmetry_Int_Tables_number       1
_space_group_crystal_system       triclinic
_cell_length_a                    15.065029
_cell_length_b                    13.959498
_cell_length_c                    10.612588
_cell_angle_alpha                 89.534118
_cell_angle_beta                  87.667743
_cell_angle_gamma                 89.571586
_cell_volume                      2229.85031758

loop_
_atom_site_label
_atom_site_type_symbol
_atom_type_description
_atom_site_fract_x
_atom_site_fract_y
_atom_site_fract_z
_atom_type_partial_charge
C1    C     C_R   0.329219 0.500701 0.497079 0.816542
C2    C     C_R   0.670713 0.499388 0.503567 0.818149
C3    C     C_R   0.953160 0.499943 0.502809 0.022322
C4    C     C_R   0.046613 0.501295 0.499461 0.023411
C5    C     C_R   0.906620 0.562715 0.423937 0.118422
C6    C     C_R   0.093136 0.438853 0.578767 0.122030
C7    C     C_R   0.954411 0.374346 0.663450 -0.191567
C8    C     C_R   0.045367 0.627208 0.339264 -0.190598
C9    C     C_R   0.046774 0.375908 0.660244 -0.219165
C10   C     C_R   0.952987 0.625901 0.342797 -0.217853
C11   C     C_R   0.450109 0.794299 0.589805 0.274103
C12   C     C_R   0.562254 0.205506 0.427464 0.273779
C13   C     C_R   0.550177 0.794701 0.410766 0.277995
C14   C     C_R   0.438592 0.205368 0.573504 0.276486
C15   C     C_R   0.556367 0.897031 0.414407 -0.065451
C16   C     C_R   0.442358 0.103105 0.583458 -0.065593
C17   C     C_R   0.444840 0.896887 0.587370 -0.066717
C18   C     C_R   0.559293 0.103219 0.418420 -0.064833
C19   C     C_R   0.500680 0.948480 0.500925 -0.052137
C20   C     C_R   0.500784 0.051552 0.500923 -0.052479
C21   C     C_R   0.615036 0.950142 0.331522 0.171871
C22   C     C_R   0.387438 0.050386 0.671403 0.173796
C23   C     C_R   0.387087 0.950094 0.671432 0.170213
C24   C     C_R   0.614992 0.050477 0.331576 0.172128
C25   C     C_R   0.499467 0.500360 0.259655 0.767535
C26   C     C_R   0.499962 0.499623 0.740302 0.768611
C27   C     C_3   0.483054 0.589663 0.039869 -0.142299
C28   C     C_3   0.515386 0.410123 0.959800 -0.135858
C29   C     C_3   0.563153 0.558641 0.953902 -0.163791
C30   C     C_3   0.435339 0.441201 0.045936 -0.160131
C31   C     C_3   0.419924 0.529882 0.961066 -0.190787
C32   C     C_3   0.578599 0.469888 0.038628 -0.185905
C33   C     C_3   0.499955 0.498927 0.877344 0.027737
C34   C     C_3   0.498619 0.500953 0.122502 0.032859
C35   C     C_R   0.814316 0.561370 0.426816 -0.295100
C36   C     C_R   0.185423 0.440303 0.576043 -0.310997
C37   C     C_R   0.767366 0.497879 0.506656 -0.122119
C38   C     C_R   0.232474 0.502753 0.494912 -0.121201
C39   C     C_R   0.813076 0.435179 0.587846 0.188689
C40   C     C_R   0.186718 0.565860 0.414251 0.195743
C41   C     C_R   0.906494 0.436112 0.585275 0.080368
C42   C     C_R   0.093290 0.565133 0.417033 0.078009
Cu1   Cu    Cu3+1 0.500000 0.597420 0.500000 0.913408
Cu2   Cu    Cu3+1 0.500000 0.402580 0.500000 0.913122
H1    H     H_    0.355046 0.554335 0.926015 0.126697
H2    H     H_    0.643500 0.445508 0.073672 0.123197
H3    H     H_    0.468476 0.663354 0.073432 0.125190
H4    H     H_    0.528730 0.336605 0.924278 0.137324
H5    H     H_    0.615363 0.606943 0.913565 0.131295
H6    H     H_    0.383029 0.393086 0.086423 0.132422
H7    H     H_    0.778634 0.609124 0.365205 0.145895
H8    H     H_    0.220927 0.393759 0.639211 0.149917
H9    H     H_    0.920942 0.324283 0.727343 0.182415
H10   H     H_    0.078841 0.677315 0.275436 0.182344
H11   H     H_    0.082032 0.327602 0.721494 0.145916
H12   H     H_    0.917729 0.674458 0.281880 0.145792
N1    N     N_R   0.500000 0.743810 0.500000 -0.201747
N2    N     N_R   0.500000 0.256190 0.500000 -0.201751
O1    O     O_R   0.370260 0.582280 0.500030 -0.601492
O2    O     O_R   0.629740 0.417720 0.499970 -0.602183
O3    O     O_R   0.629740 0.582280 0.499970 -0.586696
O4    O     O_R   0.370260 0.417720 0.500030 -0.589854
O5    O     O_R   0.499980 0.582260 0.316850 -0.594621
O6    O     O_R   0.500020 0.417740 0.683150 -0.594221
O7    O     O_R   0.500020 0.582260 0.683150 -0.592444
O8    O     O_R   0.499980 0.417740 0.316850 -0.590148
N3    N     N_2   0.766613 0.374549 0.676468 -0.448075
H13   H     H_    0.718325 0.331944 0.641007 0.274114
C43   C     C_3   0.740236 0.420396 0.793739 -0.689447
H14   H     H_    0.692130 0.479074 0.776346 0.218363
H15   H     H_    0.799162 0.450034 0.839081 0.233810
H16   H     H_    0.708593 0.367008 0.858956 0.225519
N4    N     N_2   0.233147 0.627713 0.327149 -0.446142
H17   H     H_    0.280256 0.671043 0.364316 0.280400
C44   C     C_3   0.261036 0.583221 0.209560 -0.692650
H18   H     H_    0.309481 0.524866 0.226813 0.218414
H19   H     H_    0.292742 0.637505 0.145736 0.225465
H20   H     H_    0.202836 0.553397 0.162662 0.233394
N5    N     N_3   0.407167 0.744974 0.693421 -0.634443
H21   H     H_    0.369220 0.687728 0.665674 0.265401
H22   H     H_    0.452989 0.728020 0.761472 0.240239
N6    N     N_3   0.636165 0.253741 0.367897 -0.631977
H23   H     H_    0.617473 0.312159 0.313792 0.265651
H24   H     H_    0.682966 0.269522 0.434283 0.232809
N7    N     N_3   0.591478 0.746405 0.305670 -0.634918
H25   H     H_    0.629211 0.687729 0.332175 0.262828
H26   H     H_    0.543949 0.730770 0.240401 0.232263
N8    N     N_3   0.364180 0.253457 0.632194 -0.639258
H27   H     H_    0.382491 0.312118 0.684453 0.262057
H28   H     H_    0.317692 0.269022 0.564622 0.241697
N9    N     N_3   0.680073 0.905457 0.247866 -0.559569
H29   H     H_    0.649078 0.873246 0.172954 0.242108
H30   H     H_    0.719152 0.857271 0.297763 0.233438
N10   N     N_3   0.333421 0.095519 0.769053 -0.559599
H31   H     H_    0.277787 0.127930 0.730766 0.244263
H32   H     H_    0.371260 0.143860 0.818645 0.230012
N11   N     N_3   0.322925 0.905779 0.756784 -0.558874
H33   H     H_    0.354788 0.871204 0.830215 0.240836
H34   H     H_    0.282228 0.859926 0.707807 0.236576
N12   N     N_3   0.670383 0.095668 0.235282 -0.558765
H35   H     H_    0.725073 0.127365 0.275230 0.246380
H36   H     H_    0.633160 0.144588 0.183738 0.231685

loop_
_geom_bond_atom_site_label_1
_geom_bond_atom_site_label_2
_ccdc_geom_bond_type
C27   C29   S    
C22   N10   S    
N4    H17   S    
Cu2   O8    S    
C19   C20   A    
Cu1   Cu2   S    
C1    O4    A    
C6    C9    A    
N11   H33   S    
Cu1   O5    S    
C39   C41   A    
C29   H5    S    
N7    H25   S    
Cu2   O6    S    
C15   C19   A    
C17   C23   A    
C18   C24   A    
C35   C37   A    
C8    C42   A    
C29   C32   S    
C1    O1    A    
C30   C31   S    
C2    O2    A    
C13   N1    A    
C29   C33   S    
C40   N4    S    
C25   O5    A    
C43   H15   S    
C26   O6    A    
C28   H4    S    
Cu2   N2    S    
C31   C33   S    
C9    H11   S    
C10   H12   S    
C36   H8    S    
C2    O3    A    
Cu1   O1    S    
C25   C34   S    
C12   N2    A    
C40   C42   A    
C30   H6    S    
N4    C44   S    
N10   H31   S    
C39   N3    S    
N11   H34   S    
N7    H26   S    
C27   C34   S    
C14   N2    A    
C30   C34   S    
C27   C31   S    
N3    H13   S    
Cu1   O7    S    
C28   C32   S    
C4    C6    A    
C8    H10   S    
N9    H29   S    
N5    H22   S    
Cu2   O4    S    
N3    C43   S    
C32   C34   S    
C43   H16   S    
C44   H18   S    
N9    H30   S    
C26   C33   S    
C16   C20   A    
N12   H36   S    
C12   N6    S    
N10   H32   S    
C44   H19   S    
C11   N5    S    
C1    C38   S    
C23   N11   S    
N8    H28   S    
C28   C33   S    
N6    H24   S    
C13   C15   A    
C35   H7    S    
C14   C16   A    
C7    H9    S    
C13   N7    S    
C3    C4    A    
Cu1   O3    S    
C21   N9    S    
C27   H3    S    
C7    C9    A    
C3    C41   A    
C16   C22   A    
C24   N12   S    
C26   O7    A    
C32   H2    S    
C25   O8    A    
C3    C5    A    
C11   C17   A    
C36   C38   A    
C14   N8    S    
C5    C10   A    
C37   C39   A    
C38   C40   A    
C2    C37   S    
C4    C42   A    
Cu2   O2    S    
C5    C35   A    
C28   C30   S    
N12   H35   S    
C17   C19   A    
C6    C36   A    
C18   C20   A    
C7    C41   A    
C43   H14   S    
C44   H20   S    
Cu1   N1    S    
N5    H21   S    
C15   C21   A    
N8    H27   S    
C8    C10   A    
N6    H23   S    
C31   H1    S    
C21   C24   A    
C12   C18   A    
C22   C23   A    
C11   N1    A    
