data_mof_unit_16729.cif
_audit_creation_date              2012-12-10T16:53:32-0500
_audit_creation_method            fapswitch 2.2
_symmetry_space_group_name_H-M    P1
_symmetry_Int_Tables_number       1
_space_group_crystal_system       triclinic
_cell_length_a                    7.82517
_cell_length_b                    8.702893
_cell_length_c                    13.591051
_cell_angle_alpha                 93.332527
_cell_angle_beta                  77.943007
_cell_angle_gamma                 93.522577
_cell_volume                      902.471248611

loop_
_atom_site_label
_atom_site_type_symbol
_atom_type_description
_atom_site_fract_x
_atom_site_fract_y
_atom_site_fract_z
_atom_type_partial_charge
C1    C     C_R   0.545182 0.794624 0.500821 0.848825
C2    C     C_1   0.569576 0.493283 0.118811 -0.009360
C3    C     C_2   0.568425 0.958441 0.510622 0.177028
C4    C     C_2   0.426360 0.045509 0.520241 0.202214
C5    C     C_3   0.866017 0.991021 0.443831 -0.161278
C6    C     C_3   0.161260 0.013825 0.626495 -0.251501
C7    C     C_3   0.988512 0.334698 0.323370 -0.190502
C8    C     C_3   0.992322 0.644968 0.681931 -0.150074
C9    C     C_R   0.453493 0.206822 0.508388 0.853297
C10   C     C_R   0.469504 0.503394 0.687364 0.864486
C11   C     C_R   0.530509 0.496658 0.312639 0.872049
C12   C     C_1   0.553722 0.494545 0.207561 -0.193081
C13   C     C_1   0.446322 0.505447 0.792423 -0.194153
C14   C     C_2   0.574739 0.493209 0.014612 -0.163604
C15   C     C_2   0.425398 0.506706 0.985349 -0.162850
C16   C     C_1   0.430528 0.506663 0.881161 -0.011377
H1    H     H_    0.301501 0.517473 0.038621 0.151574
H2    H     H_    0.859111 0.271628 0.336273 0.179222
H3    H     H_    0.079683 0.262649 0.268910 0.131264
H4    H     H_    0.119688 0.706933 0.682634 0.171302
H5    H     H_    0.990087 0.525163 0.707102 0.143682
H6    H     H_    0.891657 0.706736 0.737136 0.128411
H7    H     H_    0.698640 0.482453 0.961339 0.150130
H8    H     H_    0.824758 0.990143 0.370112 0.085441
H9    H     H_    0.926991 0.882267 0.452218 0.223019
H10   H     H_    0.971525 0.081098 0.443839 0.242547
H11   H     H_    0.142781 0.138670 0.643811 0.170965
H12   H     H_    0.225170 0.966696 0.683369 0.118165
H13   H     H_    0.028547 0.957799 0.633612 0.225904
H14   H     H_    0.986599 0.446946 0.288508 0.160531
N1    N     N_2   0.954190 0.457600 0.473930 0.197741
N2    N     N_2   0.045810 0.542400 0.526070 0.199640
O1    O     O_R   0.388300 0.738660 0.506400 -0.577129
O2    O     O_3   0.256349 0.983718 0.527485 -0.599422
O3    O     O_3   0.051457 0.354390 0.412642 -0.528335
O4    O     O_3   0.951055 0.647860 0.586572 -0.520499
O5    O     O_R   0.611700 0.261340 0.493600 -0.597234
O6    O     O_R   0.679920 0.711490 0.489690 -0.591249
O7    O     O_R   0.320080 0.288510 0.510310 -0.574100
O8    O     O_R   0.333200 0.515510 0.649910 -0.667229
O9    O     O_R   0.666800 0.484490 0.350090 -0.664314
O10   O     O_R   0.624820 0.488340 0.633200 -0.571722
O11   O     O_R   0.375180 0.511660 0.366800 -0.569510
O12   O     O_3   0.728767 0.022768 0.527004 -0.610460
Zn1   Zn    Zn3+2 0.305280 0.518140 0.511160 1.035982
Zn2   Zn    Zn3+2 0.694720 0.481860 0.488840 1.025560

loop_
_geom_bond_atom_site_label_1
_geom_bond_atom_site_label_2
_ccdc_geom_bond_type
C14   H7    S    
C8    H6    S    
C11   C12   S    
C11   O11   A    
C10   O10   A    
O1    Zn1   S    
N2    Zn1   S    
C6    H11   S    
O7    Zn1   S    
O9    Zn2   S    
C7    H2    S    
C2    C12   T    
C9    O5    A    
C8    H5    S    
C4    C9    S    
C1    O1    A    
C7    H14   S    
O11   Zn1   S    
C8    H4    S    
C5    H8    S    
C1    O6    A    
C5    H9    S    
N2    O4    S    
N1    O3    S    
C5    O12   S    
C11   O9    A    
C7    H3    S    
O10   Zn2   S    
O8    Zn1   S    
C2    C14   S    
C4    O2    S    
C3    O12   S    
O6    Zn2   S    
C15   C16   S    
C5    H10   S    
C6    O2    S    
C9    O7    A    
C6    H13   S    
C10   O8    A    
C8    O4    S    
C13   C16   T    
C15   H1    S    
C14   C15   D    
O5    Zn2   S    
C7    O3    S    
C10   C13   S    
C6    H12   S    
C3    C4    D    
N1    N2    D    
C1    C3    S    
N1    Zn2   S    
