data_mof_unit_27995.cif
_audit_creation_date              2012-12-10T19:46:51-0500
_audit_creation_method            fapswitch 2.2
_symmetry_space_group_name_H-M    P1
_symmetry_Int_Tables_number       1
_space_group_crystal_system       triclinic
_cell_length_a                    10.936797
_cell_length_b                    10.922015
_cell_length_c                    13.097815
_cell_angle_alpha                 91.549841
_cell_angle_beta                  90.834163
_cell_angle_gamma                 90.780407
_cell_volume                      1563.6665588

loop_
_atom_site_label
_atom_site_type_symbol
_atom_type_description
_atom_site_fract_x
_atom_site_fract_y
_atom_site_fract_z
_atom_type_partial_charge
C1    C     C_R   0.494180 0.259419 0.498509 0.826198
C2    C     C_R   0.497905 0.740619 0.501436 0.821160
C3    C     C_R   0.873358 0.502905 0.503177 -0.102533
C4    C     C_R   0.127448 0.513322 0.497106 -0.103340
C5    C     C_R   0.942221 0.497045 0.595106 0.009307
C6    C     C_R   0.058750 0.525785 0.405489 0.014925
C7    C     C_R   0.310162 0.213869 0.195043 -0.189531
C8    C     C_R   0.556842 0.806295 0.852230 -0.187363
C9    C     C_R   0.343201 0.171410 0.290554 -0.099400
C10   C     C_R   0.574496 0.849872 0.754133 -0.119500
C11   C     C_R   0.452947 0.108786 0.303793 0.106108
C12   C     C_R   0.474327 0.889802 0.696667 0.101083
C13   C     C_R   0.527490 0.086142 0.219000 -0.241856
C14   C     C_R   0.356933 0.886906 0.738457 -0.197148
C15   C     C_R   0.493854 0.126788 0.121605 0.212777
C16   C     C_R   0.338953 0.844110 0.837268 0.221677
C17   C     C_R   0.384319 0.192213 0.110760 -0.108458
C18   C     C_R   0.439855 0.803234 0.893730 -0.123117
C19   C     C_R   0.490017 0.930439 0.409123 -0.248259
C20   C     C_R   0.492828 0.069321 0.590698 -0.247733
C21   C     C_R   0.494898 0.873024 0.503329 -0.097141
C22   C     C_R   0.489902 0.126832 0.496550 -0.104593
C23   C     C_R   0.259792 0.507800 0.499024 0.814573
C24   C     C_R   0.740744 0.499235 0.501103 0.829384
C25   C     C_R   0.491416 0.942999 0.595311 0.006884
C26   C     C_R   0.482438 0.056655 0.404405 0.016317
C27   C     C_1   0.500095 0.499763 0.173511 0.156274
C28   C     C_1   0.499701 0.499720 0.826473 0.156392
C29   C     C_1   0.499930 0.499542 0.050688 -0.107977
C30   C     C_1   0.499742 0.499606 0.949322 -0.131214
C31   C     C_R   0.236278 0.677761 0.195606 -0.191945
C32   C     C_R   0.784663 0.364579 0.823200 -0.202763
C33   C     C_R   0.187745 0.654065 0.291170 -0.087651
C34   C     C_R   0.829839 0.376548 0.724852 -0.100840
C35   C     C_R   0.113300 0.550147 0.304399 0.111626
C36   C     C_R   0.888117 0.485674 0.697549 0.112977
C37   C     C_R   0.083553 0.473855 0.219112 -0.258630
C38   C     C_R   0.903433 0.581356 0.770686 -0.235743
C39   C     C_R   0.130604 0.497591 0.122138 0.212688
C40   C     C_R   0.858857 0.570195 0.870146 0.219926
C41   C     C_R   0.208759 0.599985 0.111695 -0.098890
C42   C     C_R   0.798367 0.460513 0.895423 -0.109928
C43   C     C_R   0.932176 0.518126 0.410088 -0.242315
C44   C     C_R   0.068512 0.501980 0.590465 -0.246583
Cu1   Cu    Cu3+1 0.499990 0.499990 0.592680 0.975559
Cu2   Cu    Cu3+1 0.500010 0.500010 0.407320 0.973914
H1    H     H_    0.248933 0.620937 0.039386 0.137384
H2    H     H_    0.763427 0.446832 0.971067 0.142207
H3    H     H_    0.611130 0.035307 0.228610 0.125243
H4    H     H_    0.279988 0.919373 0.694214 0.120676
H5    H     H_    0.485525 0.876297 0.338442 0.156382
H6    H     H_    0.492911 0.122910 0.661708 0.164010
H7    H     H_    0.295524 0.756810 0.186505 0.129664
H8    H     H_    0.739734 0.280210 0.843851 0.141389
H9    H     H_    0.208921 0.716151 0.355088 0.111389
H10   H     H_    0.819766 0.300894 0.670042 0.116735
H11   H     H_    0.023516 0.395242 0.228279 0.122399
H12   H     H_    0.951422 0.664510 0.750301 0.119509
H13   H     H_    0.878926 0.527285 0.340238 0.159571
H14   H     H_    0.121203 0.494610 0.660852 0.163273
H15   H     H_    0.354667 0.226373 0.037920 0.145598
H16   H     H_    0.427996 0.769159 0.969875 0.128905
H17   H     H_    0.225818 0.262461 0.186810 0.140221
H18   H     H_    0.633815 0.775131 0.896474 0.148710
H19   H     H_    0.282815 0.186865 0.354340 0.114600
H20   H     H_    0.665756 0.853036 0.723210 0.120307
N1    N     N_1   0.500030 0.500030 0.268070 -0.133496
N2    N     N_1   0.499970 0.499970 0.731930 -0.130604
O1    O     O_R   0.499980 0.319630 0.578260 -0.587060
O2    O     O_R   0.500020 0.680370 0.421740 -0.591378
O3    O     O_R   0.500000 0.319650 0.421740 -0.567975
O4    O     O_R   0.500000 0.680350 0.578260 -0.569930
O5    O     O_R   0.319630 0.500000 0.578260 -0.586282
O6    O     O_R   0.680370 0.500000 0.421740 -0.585066
O7    O     O_R   0.319650 0.500020 0.421740 -0.573420
O8    O     O_R   0.680350 0.499980 0.578260 -0.569377
C45   C     C_3   0.577134 0.096563 0.033063 -0.415465
C46   C     C_3   0.530095 0.133265 0.927826 -0.854615
H21   H     H_    0.439835 0.089430 0.910304 0.264988
H22   H     H_    0.522802 0.234285 0.924323 0.249473
H23   H     H_    0.595124 0.102049 0.868587 0.242391
H24   H     H_    0.667384 0.142133 0.047805 0.196444
H25   H     H_    0.591792 0.996018 0.030326 0.205401
C47   C     C_3   0.212642 0.841036 0.881740 -0.447478
C48   C     C_3   0.202164 0.930781 0.972535 -0.834477
H26   H     H_    0.268091 0.908361 0.034290 0.250514
H27   H     H_    0.220015 0.025860 0.948150 0.249641
H28   H     H_    0.108323 0.925358 0.003469 0.242129
H29   H     H_    0.142556 0.864406 0.823365 0.196017
H30   H     H_    0.191364 0.746912 0.906113 0.186893
C49   C     C_3   0.091796 0.412780 0.033299 -0.421888
C50   C     C_3   0.152182 0.437228 0.931170 -0.845941
H31   H     H_    0.130597 0.530164 0.904839 0.240503
H32   H     H_    0.252594 0.426624 0.938086 0.252378
H33   H     H_    0.116879 0.369863 0.872528 0.249227
H34   H     H_    0.111074 0.316714 0.052619 0.189002
H35   H     H_    0.991439 0.418751 0.023019 0.212386
C51   C     C_3   0.882706 0.675616 0.946072 -0.429271
C52   C     C_3   0.821798 0.663832 0.049810 -0.858189
H36   H     H_    0.721163 0.653952 0.040085 0.250366
H37   H     H_    0.858407 0.584429 0.091007 0.250315
H38   H     H_    0.841508 0.747772 0.097253 0.245318
H39   H     H_    0.982864 0.685645 0.959244 0.213463
H40   H     H_    0.850922 0.761674 0.911695 0.191593

loop_
_geom_bond_atom_site_label_1
_geom_bond_atom_site_label_2
_ccdc_geom_bond_type
C33   H9    S    
C34   H10   S    
C27   C29   S    
C39   C41   A    
C15   C45   S    
C45   C46   S    
C3    C43   A    
C1    O3    A    
Cu1   O8    S    
C35   C37   A    
C23   O5    A    
C40   C51   S    
C46   H22   S    
C20   C25   A    
C45   H25   S    
C51   H39   S    
C5    C36   S    
C16   C47   S    
C6    C35   S    
Cu1   O5    S    
C32   H8    S    
C19   C26   A    
C17   H15   S    
C49   H34   S    
C38   H12   S    
C7    C17   A    
C31   C33   A    
C43   H13   S    
C40   C42   A    
C1    C22   S    
C1    O1    A    
Cu1   O4    S    
C3    C24   S    
C47   H30   S    
C2    C21   S    
C2    O4    A    
C39   C49   S    
Cu2   O7    S    
C9    H19   S    
C10   H20   S    
Cu2   O3    S    
C48   H27   S    
Cu1   O1    S    
C47   C48   S    
C4    C6    A    
C23   O7    A    
C49   C50   S    
C4    C23   S    
C46   H21   S    
C24   O8    A    
C4    C44   A    
C11   C26   S    
Cu1   Cu2   S    
C50   H33   S    
C49   H35   S    
C32   C34   A    
C29   C30   T    
C19   H5    S    
C52   H36   S    
Cu1   N2    S    
C50   H32   S    
C41   H1    S    
C42   H2    S    
C31   H7    S    
C9    C11   A    
C7    H17   S    
C48   H26   S    
C10   C12   A    
C8    H18   S    
C13   H3    S    
C16   C18   A    
C52   H37   S    
C5    C44   A    
C20   C22   A    
C6    C43   A    
C13   C15   A    
C14   C16   A    
C47   H29   S    
Cu2   O6    S    
C48   H28   S    
C15   C17   A    
C21   C25   A    
C31   C41   A    
C28   N2    T    
C18   H16   S    
C12   C14   A    
C3    C5    A    
C12   C25   S    
C20   H6    S    
C36   C38   A    
Cu2   N1    S    
C37   C39   A    
C38   C40   A    
C11   C13   A    
C46   H23   S    
C24   O6    A    
C14   H4    S    
C45   H24   S    
C44   H14   S    
C51   H40   S    
C28   C30   S    
C50   H31   S    
C33   C35   A    
C34   C36   A    
C8    C18   A    
Cu2   O2    S    
C27   N1    T    
C7    C9    A    
C52   H38   S    
C8    C10   A    
C51   C52   S    
C22   C26   A    
C32   C42   A    
C2    O2    A    
C37   H11   S    
C19   C21   A    
