data_mof_unit_46410.cif
_audit_creation_date              2012-12-10T17:15:54-0500
_audit_creation_method            fapswitch 2.2
_symmetry_space_group_name_H-M    P1
_symmetry_Int_Tables_number       1
_space_group_crystal_system       triclinic
_cell_length_a                    10.150017
_cell_length_b                    10.629468
_cell_length_c                    10.605675
_cell_angle_alpha                 89.95279
_cell_angle_beta                  94.741324
_cell_angle_gamma                 81.747953
_cell_volume                      1128.42310589

loop_
_atom_site_label
_atom_site_type_symbol
_atom_type_description
_atom_site_fract_x
_atom_site_fract_y
_atom_site_fract_z
_atom_type_partial_charge
C1    C     C_R   0.445169 0.516148 0.266558 0.960314
C2    C     C_2   0.486138 0.583119 0.930485 -0.179448
C3    C     C_2   0.072700 0.489487 0.489337 -0.116005
C4    C     C_R   0.500179 0.260502 0.503587 0.866614
C5    C     C_2   0.927157 0.510888 0.510401 -0.105837
C6    C     C_R   0.555213 0.497864 0.733925 0.894968
C7    C     C_R   0.501360 0.739308 0.502556 0.871657
C8    C     C_R   0.664797 0.108292 0.700679 -0.177974
C9    C     C_R   0.745002 0.031494 0.792048 -0.129100
C10   C     C_R   0.746621 0.900356 0.790832 -0.115789
C11   C     C_R   0.668134 0.845541 0.698183 -0.183197
C12   C     C_R   0.585402 0.054088 0.605383 0.096774
C13   C     C_R   0.587152 0.921987 0.604083 0.090430
C14   C     C_R   0.500887 0.128164 0.512560 -0.093820
C15   C     C_R   0.416411 0.075790 0.424044 -0.207305
C16   C     C_R   0.418217 0.946998 0.422690 -0.179690
C17   C     C_R   0.504254 0.871143 0.510035 -0.087095
C18   C     C_2   0.416405 0.540302 0.132455 -0.425412
C19   C     C_2   0.502370 0.592357 0.066032 0.217938
C20   C     C_2   0.584073 0.521221 0.867328 -0.362383
H1    H     H_    0.351398 0.134672 0.354127 0.147459
H2    H     H_    0.670377 0.743652 0.702243 0.144949
H3    H     H_    0.354017 0.905905 0.352139 0.157520
H4    H     H_    0.386741 0.613847 0.884857 0.174663
H5    H     H_    0.682828 0.489151 0.913479 0.174746
H6    H     H_    0.329583 0.505645 0.085274 0.137200
H7    H     H_    0.891050 0.580440 0.579055 0.159414
H8    H     H_    0.108679 0.420171 0.420443 0.162736
H9    H     H_    0.880285 0.383306 0.384423 0.172064
H10   H     H_    0.119820 0.616480 0.615827 0.164418
H11   H     H_    0.664144 0.209907 0.706745 0.145023
H12   H     H_    0.805127 0.073985 0.864680 0.141900
H13   H     H_    0.807968 0.840995 0.862516 0.154472
I1    I     I_    0.663877 0.685488 0.143332 -0.375592
N1    N     N_2   0.157290 0.551390 0.551110 -0.191818
N2    N     N_2   0.842740 0.448550 0.448960 -0.180212
O1    O     O_R   0.568950 0.489660 0.307530 -0.566793
O2    O     O_R   0.348880 0.522640 0.340350 -0.610642
O3    O     O_R   0.610060 0.300270 0.483590 -0.609862
O4    O     O_R   0.389990 0.333260 0.516410 -0.610388
O5    O     O_R   0.651120 0.477360 0.659650 -0.624749
O6    O     O_R   0.431050 0.510340 0.692470 -0.601876
O7    O     O_R   0.610010 0.666740 0.483590 -0.598455
O8    O     O_R   0.389940 0.699730 0.516410 -0.612553
Zn1   Zn    Zn3+2 0.646940 0.477980 0.478090 0.964861
Zn2   Zn    Zn3+2 0.353060 0.522020 0.521910 0.945879

loop_
_geom_bond_atom_site_label_1
_geom_bond_atom_site_label_2
_ccdc_geom_bond_type
C8    C9    A    
C7    O7    A    
C8    C12   A    
C16   H3    S    
O7    Zn1   S    
C9    C10   A    
N1    Zn2   S    
C11   H2    S    
C18   H6    S    
C4    O3    A    
C13   C17   A    
O3    Zn1   S    
N2    Zn1   S    
C4    C14   S    
C7    O8    A    
O4    Zn2   S    
C11   C13   A    
H9    N2    S    
C1    C18   S    
C1    O2    A    
H10   N1    S    
C3    H8    S    
O8    Zn2   S    
C10   H13   S    
C10   C11   A    
C2    H4    S    
O2    Zn2   S    
C20   H5    S    
C3    N1    D    
C15   C16   A    
C5    N2    D    
C15   H1    S    
C6    C20   S    
C12   C13   A    
C18   C19   D    
O6    Zn2   S    
C2    C20   D    
O5    Zn1   S    
C14   C15   A    
C16   C17   A    
C9    H12   S    
C7    C17   S    
C2    C19   S    
C5    H7    S    
C8    H11   S    
O1    Zn1   S    
C6    O5    A    
C4    O4    A    
C12   C14   A    
C1    O1    A    
C3    C5    S    
C19   I1    S    
C6    O6    A    
