data_mof_unit_29908.cif
_audit_creation_date              2013-03-05T15:45:58-0500
_audit_creation_method            fapswitch 2.2
_symmetry_space_group_name_H-M    P1
_symmetry_Int_Tables_number       1
_space_group_crystal_system       triclinic
_cell_length_a                    18.853477
_cell_length_b                    11.035868
_cell_length_c                    18.789621
_cell_angle_alpha                 90.4208
_cell_angle_beta                  89.730732
_cell_angle_gamma                 90.607187
_cell_volume                      3909.08607652

loop_
_atom_site_label
_atom_site_type_symbol
_atom_site_description
_atom_site_fract_x
_atom_site_fract_y
_atom_site_fract_z
_atom_type_partial_charge
O1    O     O_R   0.787510 0.042610 0.670410 -0.447011
O2    O     O_R   0.212490 0.042610 0.329590 -0.428507
O3    O     O_R   0.287510 0.542610 0.670410 -0.431977
O4    O     O_R   0.712490 0.542610 0.329590 -0.459367
O5    O     O_R   0.765670 0.292090 0.675090 -0.500218
O6    O     O_R   0.234330 0.292090 0.324910 -0.500801
O7    O     O_R   0.265670 0.792090 0.675090 -0.505231
O8    O     O_R   0.734330 0.792090 0.324910 -0.493661
C1    C     C_R   0.727324 0.369476 0.643013 0.537747
C2    C     C_R   0.267805 0.383168 0.351388 0.537130
C3    C     C_R   0.232184 0.882290 0.648421 0.517253
C4    C     C_R   0.788454 0.830192 0.361544 0.546054
O9    O     O_R   0.670220 0.409020 0.668560 -0.514268
O10   O     O_R   0.329780 0.409020 0.331440 -0.512016
O11   O     O_R   0.170220 0.909020 0.668560 -0.520175
O12   O     O_R   0.829780 0.909020 0.331440 -0.478461
O13   O     O_R   0.556580 0.251590 0.674980 -0.498233
O14   O     O_R   0.443420 0.251590 0.325020 -0.457458
O15   O     O_R   0.056580 0.751590 0.674980 -0.459652
O16   O     O_R   0.943420 0.751590 0.325020 -0.507136
C5    C     C_R   0.533491 0.153825 0.646127 0.529744
C6    C     C_R   0.467902 0.155785 0.353159 0.566339
C7    C     C_R   0.032277 0.654495 0.646786 0.550342
C8    C     C_R   0.966760 0.654948 0.353764 0.539013
O17   O     O_R   0.545890 0.049670 0.670030 -0.512115
O18   O     O_R   0.454110 0.049670 0.329970 -0.524598
O19   O     O_R   0.045890 0.549670 0.670030 -0.533252
O20   O     O_R   0.954110 0.549670 0.329970 -0.505434
O21   O     O_R   0.681340 0.957860 0.676500 -0.514137
O22   O     O_R   0.318660 0.957860 0.323500 -0.491470
O23   O     O_R   0.181340 0.457860 0.676500 -0.498192
O24   O     O_R   0.818660 0.457860 0.323500 -0.511710
C9    C     C_R   0.742922 0.964787 0.648917 0.574997
C10   C     C_R   0.271198 0.018069 0.360606 0.543919
C11   C     C_R   0.228670 0.518761 0.639445 0.548380
C12   C     C_R   0.757670 0.466754 0.351357 0.580507
O25   O     O_R   0.787380 0.044010 0.830940 -0.501434
O26   O     O_R   0.212620 0.044010 0.169060 -0.470877
O27   O     O_R   0.287380 0.544010 0.830940 -0.507316
O28   O     O_R   0.712620 0.544010 0.169060 -0.467288
O29   O     O_R   0.765540 0.293390 0.823910 -0.536142
O30   O     O_R   0.234460 0.293390 0.176090 -0.522164
O31   O     O_R   0.265540 0.793390 0.823910 -0.537392
O32   O     O_R   0.734460 0.793390 0.176090 -0.515865
C13   C     C_R   0.731694 0.380850 0.851026 0.542349
C14   C     C_R   0.272201 0.376014 0.146437 0.550990
C15   C     C_R   0.231693 0.880851 0.851025 0.537773
C16   C     C_R   0.772206 0.876001 0.146432 0.563130
O33   O     O_R   0.670090 0.410410 0.829090 -0.453394
O34   O     O_R   0.329910 0.410410 0.170910 -0.506290
O35   O     O_R   0.170090 0.910410 0.829090 -0.454865
O36   O     O_R   0.829910 0.910410 0.170910 -0.501023
O37   O     O_R   0.556450 0.252890 0.823790 -0.450069
O38   O     O_R   0.443550 0.252890 0.176210 -0.478950
O39   O     O_R   0.056450 0.752890 0.823790 -0.444031
O40   O     O_R   0.943550 0.752890 0.176210 -0.483362
C17   C     C_R   0.530850 0.158675 0.852807 0.545378
C18   C     C_R   0.465278 0.156082 0.145168 0.582528
C19   C     C_R   0.030838 0.658675 0.852798 0.550991
C20   C     C_R   0.965272 0.656081 0.145161 0.580076
O41   O     O_R   0.545750 0.051070 0.830560 -0.472869
O42   O     O_R   0.454250 0.051070 0.169440 -0.489115
O43   O     O_R   0.045750 0.551070 0.830560 -0.473853
O44   O     O_R   0.954250 0.551070 0.169440 -0.488269
O45   O     O_R   0.681210 0.959150 0.825320 -0.439704
O46   O     O_R   0.318790 0.959150 0.174680 -0.462510
O47   O     O_R   0.181210 0.459150 0.825320 -0.435422
O48   O     O_R   0.818790 0.459150 0.174680 -0.464066
C21   C     C_R   0.726553 0.020686 0.861801 0.548625
C22   C     C_R   0.260893 0.979290 0.142707 0.609552
C23   C     C_R   0.226548 0.520700 0.861801 0.549717
C24   C     C_R   0.760887 0.479272 0.142713 0.610034
Cr1   Cr    Cr6+3 0.771950 0.169480 0.750100 1.082893
Cr2   Cr    Cr6+3 0.228050 0.169480 0.249900 1.104707
Cr3   Cr    Cr6+3 0.271950 0.669480 0.750100 1.075204
Cr4   Cr    Cr6+3 0.728050 0.669480 0.249900 1.103708
Cr5   Cr    Cr6+3 0.614930 0.323340 0.749170 1.107264
Cr6   Cr    Cr6+3 0.385070 0.323340 0.250830 1.111518
Cr7   Cr    Cr6+3 0.114930 0.823340 0.749170 1.130195
Cr8   Cr    Cr6+3 0.885070 0.823340 0.250830 1.092739
Cr9   Cr    Cr6+3 0.616590 0.010620 0.750610 1.094568
Cr10  Cr    Cr6+3 0.383410 0.010620 0.249390 1.103068
Cr11  Cr    Cr6+3 0.116590 0.510620 0.750610 1.093837
Cr12  Cr    Cr6+3 0.883410 0.510620 0.249390 1.098536
O49   O     O_3   0.667820 0.167810 0.749960 -0.310047
O50   O     O_3   0.332180 0.167810 0.250040 -0.330146
O51   O     O_3   0.167820 0.667810 0.749960 -0.329666
O52   O     O_3   0.832180 0.667810 0.250040 -0.330187
C25   C     C_R   0.487889 0.163524 0.426728 0.074067
C26   C     C_R   0.516579 0.156104 0.571859 0.045949
C27   C     C_R   0.983687 0.658363 0.428041 0.040092
C28   C     C_R   0.012563 0.660028 0.573179 0.074437
C29   C     C_R   0.433094 0.163522 0.477101 -0.005542
C30   C     C_R   0.446820 0.155305 0.548897 -0.007058
C31   C     C_R   0.053442 0.656441 0.450833 -0.001122
C32   C     C_R   0.067308 0.661969 0.522762 -0.003630
C33   C     C_R   0.571802 0.140012 0.521888 -0.136194
C34   C     C_R   0.557182 0.141281 0.448991 -0.105318
C35   C     C_R   0.943106 0.637694 0.550625 -0.116143
C36   C     C_R   0.928571 0.638176 0.477713 -0.149044
C37   C     C_3   0.375806 0.253657 0.489371 -0.245595
C38   C     C_3   0.388838 0.239588 0.568491 -0.257475
C39   C     C_3   0.112476 0.741362 0.433059 -0.253547
C40   C     C_3   0.125695 0.752360 0.512410 -0.251360
H1    H     H_    0.626061 0.128867 0.539348 0.114111
H2    H     H_    0.599642 0.129064 0.410648 0.151189
H3    H     H_    0.900502 0.624347 0.588748 0.132789
H4    H     H_    0.874321 0.626064 0.460041 0.101388
H5    H     H_    0.092931 0.824720 0.407913 0.216734
H6    H     H_    0.178231 0.718041 0.528572 0.128556
H7    H     H_    0.322845 0.219969 0.472429 0.126580
H8    H     H_    0.409498 0.321816 0.595563 0.213878
H9    H     H_    0.391167 0.344578 0.469164 0.198990
H10   H     H_    0.344636 0.192536 0.596754 0.147266
H11   H     H_    0.156076 0.695392 0.403763 0.157516
H12   H     H_    0.111275 0.842351 0.534547 0.198428
C41   C     C_R   0.700483 0.860488 0.540534 -0.176115
C42   C     C_R   0.319794 0.932742 0.472264 -0.147408
C43   C     C_R   0.179202 0.435186 0.526765 -0.147038
C44   C     C_R   0.807413 0.384808 0.461193 -0.169032
H13   H     H_    0.647048 0.858028 0.561970 0.164465
H14   H     H_    0.366131 0.902580 0.443148 0.186836
H15   H     H_    0.132093 0.405972 0.555308 0.187355
H16   H     H_    0.859845 0.382610 0.437422 0.169780
C45   C     C_R   0.710193 0.833391 0.468926 -0.138739
C46   C     C_R   0.314978 0.907024 0.544855 -0.123439
C47   C     C_R   0.184239 0.409391 0.454025 -0.118399
C48   C     C_R   0.802184 0.372766 0.534379 -0.150936
H17   H     H_    0.664575 0.806672 0.437470 0.173578
H18   H     H_    0.356059 0.857317 0.571173 0.207827
H19   H     H_    0.142571 0.359731 0.427046 0.206995
H20   H     H_    0.849392 0.356292 0.565356 0.158276
C49   C     C_R   0.777217 0.848973 0.437683 -0.032234
C50   C     C_R   0.255633 0.943108 0.583141 -0.050831
C51   C     C_R   0.244711 0.444436 0.416708 -0.047316
C52   C     C_R   0.736498 0.387135 0.567186 -0.018779
C53   C     C_R   0.835589 0.879667 0.480044 -0.122334
C54   C     C_R   0.208116 0.023052 0.552091 -0.121425
C55   C     C_R   0.293370 0.523505 0.448770 -0.120574
C56   C     C_R   0.675090 0.401670 0.525869 -0.117212
H21   H     H_    0.888020 0.885221 0.456328 0.176167
H22   H     H_    0.164356 0.058638 0.583072 0.202408
H23   H     H_    0.338115 0.558169 0.418515 0.203701
H24   H     H_    0.623084 0.402532 0.550641 0.187723
C57   C     C_R   0.827371 0.900249 0.552906 0.198039
C58   C     C_R   0.207182 0.040434 0.479222 0.177254
C59   C     C_R   0.293983 0.540580 0.521722 0.176929
C60   C     C_R   0.679222 0.410118 0.452380 0.184069
C61   C     C_R   0.757998 0.900300 0.582165 0.005007
C62   C     C_R   0.264339 0.993319 0.437405 -0.026087
C63   C     C_R   0.235530 0.494340 0.562570 -0.026928
C64   C     C_R   0.746825 0.410852 0.420438 0.013268
C65   C     C_R   0.458402 0.082078 0.952067 -0.127312
C66   C     C_R   0.448558 0.077473 0.024877 -0.132219
C67   C     C_R   0.958383 0.582066 0.952053 -0.126205
C68   C     C_R   0.948540 0.577463 0.024866 -0.132361
H25   H     H_    0.438055 0.008910 0.918947 0.174042
H26   H     H_    0.416372 0.004585 0.046261 0.186882
H27   H     H_    0.938044 0.508888 0.918936 0.174852
H28   H     H_    0.916362 0.504567 0.046254 0.187145
C69   C     C_R   0.482702 0.161644 0.069968 -0.016529
C70   C     C_R   0.498148 0.176341 0.923010 -0.017875
C71   C     C_R   0.982684 0.661641 0.069954 -0.016119
C72   C     C_R   0.998119 0.676340 0.922992 -0.016429
C73   C     C_R   0.520202 0.260161 0.041489 0.158461
C74   C     C_R   0.520444 0.274885 0.967134 0.167210
C75   C     C_R   0.020179 0.760155 0.041464 0.160679
C76   C     C_R   0.020406 0.774891 0.967110 0.165914
C77   C     C_R   0.795522 0.014567 0.968179 -0.133514
C78   C     C_R   0.232119 0.046945 0.022838 -0.100287
C79   C     C_R   0.295507 0.514628 0.968192 -0.134800
C80   C     C_R   0.732142 0.546951 0.022844 -0.100584
H29   H     H_    0.837801 0.058926 0.938813 0.175778
H30   H     H_    0.211677 0.130005 0.045845 0.148895
H31   H     H_    0.337783 0.558995 0.938826 0.175069
H32   H     H_    0.711715 0.630023 0.045850 0.148251
C81   C     C_R   0.811434 0.974957 0.034551 -0.011655
C82   C     C_R   0.234278 0.034681 0.949033 -0.009039
C83   C     C_R   0.311423 0.475012 0.034565 -0.010657
C84   C     C_R   0.734306 0.534688 0.949039 -0.008816
C85   C     C_R   0.756609 0.922484 0.076646 0.008488
C86   C     C_R   0.256984 0.924702 0.919880 0.007359
C87   C     C_R   0.256600 0.422522 0.076657 0.009853
C88   C     C_R   0.756985 0.424689 0.919887 0.007593
C89   C     C_R   0.689165 0.904862 0.048751 -0.121148
C90   C     C_R   0.293079 0.842346 0.962826 -0.135725
C91   C     C_R   0.189157 0.404901 0.048763 -0.121684
C92   C     C_R   0.793057 0.342309 0.962836 -0.136108
H33   H     H_    0.648533 0.862174 0.081274 0.188390
H34   H     H_    0.316723 0.762280 0.940016 0.153263
H35   H     H_    0.148527 0.362207 0.081286 0.187752
H36   H     H_    0.816683 0.262222 0.940031 0.152944
C93   C     C_R   0.674870 0.932650 0.977983 0.170508
C94   C     C_R   0.293566 0.856240 0.036191 0.185048
C95   C     C_R   0.174862 0.432684 0.977993 0.170358
C96   C     C_R   0.793544 0.356210 0.036201 0.184765
C97   C     C_R   0.730346 0.988414 0.936761 -0.028154
C98   C     C_R   0.258049 0.954796 0.066807 0.029122
C99   C     C_R   0.230335 0.488454 0.936769 -0.028836
C100  C     C_R   0.758045 0.454784 0.066814 0.029094
C101  C     C_3   0.889300 0.978847 0.053806 -0.246580
H37   H     H_    0.899395 0.038771 0.100255 0.251968
H38   H     H_    0.906038 0.885616 0.065337 0.132129
H39   H     H_    0.923988 0.012538 0.010180 0.195835
C102  C     C_3   0.210280 0.137164 0.903408 -0.304260
H40   H     H_    0.225868 0.124493 0.846830 0.138520
H41   H     H_    0.151909 0.143170 0.907073 0.252606
H42   H     H_    0.235370 0.222939 0.922000 0.122639
C103  C     C_3   0.389291 0.478913 0.053819 -0.246089
H43   H     H_    0.399382 0.538823 0.100276 0.251999
H44   H     H_    0.406042 0.385680 0.065337 0.132051
H45   H     H_    0.423975 0.512628 0.010196 0.195531
C104  C     C_3   0.710328 0.637187 0.903416 -0.303521
H46   H     H_    0.725913 0.624509 0.846838 0.142193
H47   H     H_    0.651959 0.643220 0.907085 0.251785
H48   H     H_    0.735436 0.722947 0.922008 0.123469
N1    N     N_R   0.605095 0.900766 0.951905 0.079901
O53   O     O_R   0.597302 0.838220 0.893634 -0.308152
O54   O     O_R   0.552897 0.896504 0.997289 -0.319046
N2    N     N_R   0.331655 0.771690 0.078319 0.064204
O55   O     O_R   0.301006 0.717427 0.131675 -0.309910
O56   O     O_R   0.398903 0.755786 0.066210 -0.332481
N3    N     N_R   0.105089 0.400784 0.951914 0.079403
O57   O     O_R   0.097302 0.338235 0.893645 -0.307276
O58   O     O_R   0.052890 0.396514 0.997298 -0.319682
N4    N     N_R   0.831618 0.271648 0.078333 0.063877
O59   O     O_R   0.800959 0.217414 0.131691 -0.304485
O60   O     O_R   0.898865 0.255721 0.066229 -0.332710
N5    N     N_R   0.889323 0.920522 0.596097 0.085189
O61   O     O_R   0.892084 0.875976 0.659965 -0.324540
O62   O     O_R   0.946817 0.966700 0.568306 -0.311557
N6    N     N_R   0.144858 0.097857 0.450941 0.082452
O63   O     O_R   0.105727 0.040427 0.404718 -0.305285
O64   O     O_R   0.113242 0.179134 0.489840 -0.374257
N7    N     N_R   0.357375 0.596011 0.551072 0.084045
O65   O     O_R   0.395055 0.536726 0.596596 -0.310823
O66   O     O_R   0.390955 0.676989 0.513447 -0.373524
N8    N     N_R   0.615091 0.418312 0.411321 0.079859
O67   O     O_R   0.611306 0.368280 0.348475 -0.301818
O68   O     O_R   0.557614 0.461776 0.439919 -0.317823
N9    N     N_R   0.557829 0.342338 0.088022 0.104267
O69   O     O_R   0.603095 0.299837 0.133286 -0.288744
O70   O     O_R   0.541191 0.456265 0.091741 -0.286693
N10   N     N_R   0.539228 0.389776 0.936778 0.100925
O71   O     O_R   0.592707 0.451866 0.960983 -0.292247
O72   O     O_R   0.496955 0.439929 0.891301 -0.327406
N11   N     N_R   0.057842 0.842299 0.087981 0.103479
O73   O     O_R   0.103182 0.799768 0.133163 -0.305692
O74   O     O_R   0.041187 0.956219 0.091761 -0.289432
N12   N     N_R   0.039175 0.889785 0.936750 0.099948
O75   O     O_R   0.092631 0.951923 0.960968 -0.292392
O76   O     O_R   0.996906 0.939891 0.891252 -0.317708

loop_
_geom_bond_atom_site_label_1
_geom_bond_atom_site_label_2
_geom_bond_distance
_ccdc_geom_bond_type
C18   O42   1.263346 A    
Cr6   O50   1.975878 S    
O17   Cr9   2.072577 S    
O4    C12   1.271639 A    
O47   Cr11  1.954472 S    
C29   C30   1.378631 A    
O39   C19   1.267490 A    
O20   Cr12  2.062053 S    
O5    Cr1   1.965790 S    
C37   H9    1.110516 S    
C101  H37   1.107109 S    
C66   C69   1.405705 A    
C38   H8    1.105238 S    
C31   C32   1.378565 A    
C28   C32   1.397790 A    
C41   C61   1.404846 A    
C96   C100  1.401733 A    
C43   H15   1.082774 S    
C56   C60   1.386430 A    
N2    O56   1.300556 A    
C33   C34   1.398632 A    
C10   C62   1.475428 S    
Cr10  O50   1.994345 S    
C58   N6    1.446118 S    
C102  H40   1.109886 S    
C49   C53   1.398482 A    
C80   H32   1.084315 S    
C55   C59   1.382354 A    
C73   C74   1.407698 A    
C5    O17   1.261684 A    
C78   C82   1.392817 A    
C60   N8    1.441298 S    
O24   C12   1.265620 A    
C53   C57   1.394291 A    
C84   C104  1.499152 S    
C47   C51   1.388592 A    
C66   H26   1.081116 S    
C65   C70   1.389146 A    
O25   C21   1.306659 A    
C48   C52   1.390793 A    
C96   N4    1.429423 S    
O30   C14   1.279911 A    
C16   C85   1.444206 S    
C81   C85   1.419758 A    
C102  H42   1.108621 S    
O47   C23   1.283851 A    
O46   Cr10  1.940927 S    
C40   H6    1.108702 S    
C46   H18   1.077917 S    
N12   O76   1.301694 A    
C82   C102  1.499170 S    
C48   H20   1.083448 S    
O8    Cr4   1.949746 S    
C20   C71   1.450841 S    
O23   Cr11  1.937914 S    
N10   O71   1.295393 A    
O32   Cr4   1.957217 S    
N9    O69   1.301096 A    
C42   H14   1.082718 S    
C77   C81   1.360393 A    
C42   C62   1.413061 A    
C1    O9    1.257770 A    
O44   Cr12  2.053800 S    
C92   C96   1.385945 A    
C79   C99   1.392324 A    
C19   C72   1.466015 S    
C103  H44   1.102731 S    
C58   C62   1.430681 A    
C3    O11   1.263528 A    
O11   Cr7   2.064003 S    
C17   C70   1.466031 S    
C4    O12   1.293264 A    
C68   C71   1.405714 A    
O28   Cr4   2.067337 S    
N7    O65   1.299312 A    
O6    Cr2   1.949746 S    
O27   Cr3   2.086324 S    
C27   C36   1.410509 A    
C15   O35   1.280508 A    
O3    Cr3   2.064514 S    
Cr4   O52   1.963511 S    
C26   C33   1.410469 A    
C83   C87   1.419775 A    
O2    Cr2   2.075187 S    
C52   C56   1.408218 A    
C33   H1    1.084270 S    
C23   C99   1.457675 S    
O2    C10   1.285635 A    
C44   C48   1.385454 A    
C102  H41   1.104977 S    
O42   Cr10  2.053800 S    
Cr5   O49   1.994340 S    
O18   Cr10  2.062053 S    
C70   C74   1.423762 A    
C21   C97   1.457595 S    
N7    O66   1.300896 A    
C7    O19   1.268725 A    
C79   C83   1.360430 A    
C11   C63   1.472766 S    
C101  H38   1.102699 S    
C15   C86   1.458454 S    
O8    C4    1.298130 A    
O34   Cr6   2.077711 S    
Cr7   O51   1.994340 S    
N2    O55   1.301389 A    
C31   C39   1.485791 S    
C14   O34   1.238016 A    
C26   C30   1.385992 A    
C67   C68   1.381014 A    
C95   C99   1.434706 A    
C5    C26   1.433357 S    
N11   O74   1.300404 A    
O31   Cr3   1.944734 S    
O24   Cr12  1.936286 S    
N8    O68   1.301869 A    
C60   C64   1.406206 A    
C44   C64   1.411489 A    
C36   H4    1.083462 S    
O22   C10   1.314627 A    
C67   H27   1.083856 S    
O48   Cr12  1.940927 S    
C37   C38   1.517297 S    
Cr12  O52   1.994345 S    
C72   C76   1.423707 A    
C2    C51   1.463607 S    
N3    O57   1.298086 A    
C103  H43   1.107120 S    
C2    O10   1.255998 A    
C3    C50   1.466677 S    
C29   C37   1.492069 S    
C75   C76   1.407678 A    
O16   Cr8   1.956920 S    
C74   N10   1.434425 S    
C12   C64   1.453893 S    
O7    Cr3   1.965790 S    
O26   Cr2   2.067337 S    
N1    O53   1.298089 A    
C104  H46   1.109872 S    
C79   H31   1.082140 S    
C25   C29   1.397803 A    
O13   C5    1.277158 A    
O40   C20   1.283488 A    
C44   H16   1.083270 S    
O48   C24   1.270870 A    
N9    O70   1.300348 A    
Cr9   O49   1.976616 S    
C14   C87   1.444204 S    
O22   Cr10  1.936286 S    
C93   N1    1.445065 S    
C71   C75   1.398919 A    
O5    C1    1.280631 A    
N5    O61   1.301666 A    
C38   H10   1.112143 S    
C45   H17   1.082969 S    
C24   C100  1.450677 S    
O39   Cr7   1.941451 S    
O7    C3    1.290034 A    
C35   C36   1.398439 A    
O3    C11   1.279076 A    
O40   Cr8   1.942565 S    
O14   Cr6   1.956920 S    
Cr1   O49   1.963118 S    
O13   Cr5   1.939121 S    
C13   O33   1.280528 A    
C53   H21   1.083736 S    
C55   H23   1.083043 S    
Cr2   O50   1.963511 S    
O15   Cr7   1.939121 S    
C46   C50   1.387665 A    
C68   H28   1.081128 S    
C82   C86   1.398376 A    
O30   Cr2   1.957217 S    
C89   H33   1.083697 S    
Cr3   O51   1.963118 S    
O26   C22   1.260143 A    
O21   Cr9   1.937914 S    
N4    O60   1.300560 A    
C4    C49   1.458855 S    
C32   C40   1.490715 S    
O9    Cr5   2.064003 S    
C54   H22   1.082935 S    
O37   Cr5   1.941451 S    
N5    O62   1.301630 A    
C101  H39   1.110034 S    
C81   C101  1.513705 S    
C19   O43   1.289378 A    
C73   N9    1.438999 S    
C8    C27   1.433251 S    
C78   C98   1.407960 A    
C93   C97   1.434690 A    
C35   H3    1.083347 S    
O15   C7    1.273694 A    
C77   C97   1.392308 A    
O38   C18   1.283460 A    
C104  H48   1.108624 S    
C45   C49   1.400324 A    
C7    C28   1.435688 S    
O45   C21   1.283825 A    
N10   O72   1.301696 A    
C57   N5    1.440006 S    
N8    O67   1.301830 A    
C85   C89   1.388844 A    
O28   C24   1.260141 A    
C91   C95   1.394970 A    
N6    O64   1.300641 A    
O14   C6    1.277220 A    
C91   H35   1.083697 S    
C90   C94   1.385949 A    
O21   C9    1.271030 A    
C8    O20   1.262590 A    
C89   C93   1.394948 A    
O37   C17   1.267483 A    
Cr11  O51   1.976616 S    
C50   C54   1.396614 A    
C94   N2    1.429457 S    
N11   O73   1.301121 A    
N3    O58   1.299844 A    
C28   C35   1.397151 A    
C17   O41   1.289387 A    
C78   H30   1.084316 S    
C41   H13   1.083354 S    
C67   C72   1.389177 A    
C37   H7    1.109012 S    
C76   N12   1.434420 S    
C92   H36   1.078965 S    
C83   C103  1.513747 S    
O25   Cr1   2.086324 S    
C39   H11   1.112017 S    
C34   H2    1.083284 S    
C20   O44   1.263364 A    
C25   C34   1.398369 A    
C39   H5    1.104761 S    
C51   C55   1.395151 A    
O1    Cr1   2.064514 S    
C40   H12   1.109878 S    
C47   H19   1.079352 S    
C56   H24   1.083489 S    
N12   O75   1.295423 A    
C104  H47   1.104981 S    
Cr8   O52   1.975878 S    
O32   C16   1.279887 A    
C9    C61   1.465677 S    
C95   N3    1.445064 S    
C77   H29   1.082147 S    
C80   C84   1.392814 A    
C94   C98   1.401761 A    
O31   C15   1.265375 A    
C54   C58   1.384181 A    
C75   N11   1.438931 S    
C59   C63   1.431749 A    
O19   Cr11  2.072577 S    
N6    O63   1.299353 A    
C86   C90   1.403326 A    
C6    C25   1.436187 S    
O33   Cr5   2.057214 S    
C80   C100  1.407947 A    
O23   C11   1.311896 A    
O10   Cr6   2.063929 S    
C65   H25   1.083857 S    
N1    O54   1.299849 A    
O35   Cr7   2.057214 S    
O4    Cr4   2.075187 S    
C43   C63   1.411430 A    
O6    C2    1.279952 A    
O1    C9    1.261018 A    
O29   Cr1   1.944734 S    
C1    C52   1.448755 S    
C88   C92   1.403333 A    
C16   O36   1.238022 A    
C57   C61   1.416391 A    
O46   C22   1.270864 A    
C30   C38   1.486089 S    
C27   C31   1.385445 A    
C22   C98   1.450709 S    
N4    O59   1.301362 A    
C6    O18   1.271212 A    
O43   Cr11  2.055157 S    
C39   C40   1.516597 S    
O29   C13   1.265376 A    
O45   Cr9   1.954472 S    
O41   Cr9   2.055157 S    
C90   H34   1.078954 S    
C42   C46   1.397552 A    
O12   Cr8   2.063929 S    
C65   C66   1.380974 A    
O36   Cr8   2.077711 S    
C18   C69   1.450747 S    
C41   C45   1.387865 A    
C103  H45   1.110037 S    
O16   C8    1.281973 A    
C69   C73   1.398897 A    
C87   C91   1.388839 A    
C84   C88   1.398402 A    
C13   C88   1.458502 S    
C59   N7    1.446531 S    
O38   Cr6   1.942565 S    
O27   C23   1.306697 A    
C43   C47   1.397046 A    
