data_mof_unit_38171.cif
_audit_creation_date              2012-12-10T18:43:08-0500
_audit_creation_method            fapswitch 2.2
_symmetry_space_group_name_H-M    P1
_symmetry_Int_Tables_number       1
_space_group_crystal_system       triclinic
_cell_length_a                    10.62074
_cell_length_b                    9.889642
_cell_length_c                    10.738749
_cell_angle_alpha                 90.562397
_cell_angle_beta                  91.384181
_cell_angle_gamma                 90.217308
_cell_volume                      1127.55527731

loop_
_atom_site_label
_atom_site_type_symbol
_atom_type_description
_atom_site_fract_x
_atom_site_fract_y
_atom_site_fract_z
_atom_type_partial_charge
C1    C     C_R   0.260567 0.499638 0.498420 1.042594
C2    C     C_R   0.739555 0.500063 0.500741 1.035430
C3    C     C_R   0.492423 0.499014 0.262940 0.893302
C4    C     C_R   0.507334 0.500619 0.737400 0.889958
C5    C     C_2   0.504033 0.392060 0.933503 -0.203026
C6    C     C_2   0.516762 0.394164 0.066587 -0.180351
C7    C     C_2   0.533620 0.501598 0.868364 0.336748
C8    C     C_2   0.465929 0.494273 0.132622 0.330841
C9    C     C_R   0.061760 0.464167 0.388936 0.333144
C10   C     C_R   0.931616 0.466145 0.389156 0.321635
C11   C     C_R   0.872077 0.499806 0.500078 -0.362234
C12   C     C_R   0.128284 0.498821 0.498861 -0.355741
C13   C     C_R   0.938872 0.529973 0.610909 0.327423
C14   C     C_R   0.068857 0.531335 0.609934 0.306231
C15   C     C_R   0.580919 0.073585 0.576025 -0.109734
C16   C     C_R   0.418974 0.071284 0.423996 -0.104083
C17   C     C_R   0.581242 0.930366 0.576217 0.400044
C18   C     C_R   0.418575 0.927980 0.423815 0.398879
H1    H     H_    0.465980 0.300759 0.889543 0.188195
H2    H     H_    0.573633 0.315707 0.110101 0.199293
H3    H     H_    0.645594 0.129385 0.636830 0.189875
H4    H     H_    0.354227 0.125286 0.363282 0.200697
N1    N     N_R   0.500000 0.857200 0.500000 -0.166322
N2    N     N_R   0.500000 0.142810 0.500000 -0.134009
O1    O     O_R   0.316770 0.614620 0.499990 -0.560264
O2    O     O_R   0.683230 0.614620 0.500010 -0.564970
O3    O     O_R   0.316800 0.385290 0.500000 -0.608660
O4    O     O_R   0.683200 0.385290 0.500000 -0.606993
O5    O     O_R   0.500000 0.614630 0.319080 -0.552748
O6    O     O_R   0.500000 0.614630 0.680920 -0.536576
O7    O     O_R   0.500030 0.385300 0.319080 -0.638596
O8    O     O_R   0.499970 0.385300 0.680920 -0.657042
Zn1   Zn    Zn3+2 0.500000 0.653120 0.500000 1.138328
Zn2   Zn    Zn3+2 0.500000 0.346880 0.500000 1.020820
Cl1   Cl    Cl    0.615803 0.643368 0.933582 -0.357764
Cl2   Cl    Cl    0.353442 0.609575 0.071167 -0.346349
Cl3   Cl    Cl    0.141065 0.419646 0.251523 -0.421826
Cl4   Cl    Cl    0.843470 0.428010 0.251005 -0.452837
Cl5   Cl    Cl    0.860613 0.559865 0.751681 -0.377131
Cl6   Cl    Cl    0.157121 0.569516 0.748097 -0.408976
Cl7   Cl    Cl    0.688319 0.849401 0.676563 -0.416361
Cl8   Cl    Cl    0.310919 0.843719 0.323812 -0.430847

loop_
_geom_bond_atom_site_label_1
_geom_bond_atom_site_label_2
_ccdc_geom_bond_type
C1    O1    A    
C15   C17   A    
C5    H1    S    
C6    H2    S    
C9    C10   A    
O2    Zn1   S    
C10   Cl4   S    
C9    Cl3   S    
O7    Zn2   S    
O4    Zn2   S    
C16   N2    A    
C17   N1    A    
C13   C14   A    
C3    O7    A    
C11   C13   A    
C3    O5    A    
C4    O8    A    
C1    C12   S    
C4    C7    S    
C2    C11   S    
C16   C18   A    
C15   N2    A    
C12   C14   A    
C5    C7    D    
C18   Cl8   S    
O3    Zn2   S    
C5    C6    S    
C9    C12   A    
C17   Cl7   S    
C13   Cl5   S    
C2    O4    A    
C10   C11   A    
C14   Cl6   S    
C18   N1    A    
O5    Zn1   S    
C15   H3    S    
C2    O2    A    
C3    C8    S    
C8    Cl2   S    
O1    Zn1   S    
C1    O3    A    
C6    C8    D    
O6    Zn1   S    
O8    Zn2   S    
C7    Cl1   S    
C4    O6    A    
C16   H4    S    
N1    Zn1   S    
N2    Zn2   S    
