data_mof_unit_37998.cif
_audit_creation_date              2012-12-11T15:59:33-0500
_audit_creation_method            fapswitch 2.2
_symmetry_space_group_name_H-M    P1
_symmetry_Int_Tables_number       1
_space_group_crystal_system       triclinic
_cell_length_a                    10.933558
_cell_length_b                    10.905412
_cell_length_c                    16.989949
_cell_angle_alpha                 99.864676
_cell_angle_beta                  99.502244
_cell_angle_gamma                 60.08461
_cell_volume                      1722.38357265

loop_
_atom_site_label
_atom_site_type_symbol
_atom_type_description
_atom_site_fract_x
_atom_site_fract_y
_atom_site_fract_z
_atom_type_partial_charge
C1    C     C_R   0.385629 0.704581 0.388659 0.560249
C2    C     C_R   0.944601 0.161204 0.213622 -0.084080
C3    C     C_R   0.909258 0.186543 0.293790 -0.118961
C4    C     C_R   0.921841 0.403930 0.315853 0.465526
C5    C     C_R   0.957282 0.383455 0.238472 0.416103
C6    C     C_R   0.961655 0.026855 0.171013 0.397341
C7    C     C_R   0.984455 0.916181 0.214048 0.263564
C8    C     C_R   0.965483 0.947798 0.296027 0.188572
C9    C     C_R   0.882958 0.089269 0.320358 0.147235
C10   C     C_R   0.875813 0.317844 0.339490 -0.036554
C11   C     C_R   0.342856 0.815597 0.154545 -0.021788
C12   C     C_R   0.406151 0.373895 0.356364 0.577228
C13   C     C_R   0.398425 0.870941 0.220513 -0.136646
C14   C     C_R   0.457503 0.797809 0.288399 -0.091297
C15   C     C_R   0.314093 0.684678 0.243582 0.304936
C16   C     C_R   0.309437 0.711838 0.165138 0.389616
C17   C     C_R   0.423258 0.981652 0.217618 0.110434
C18   C     C_R   0.567913 0.934020 0.223227 0.198287
C19   C     C_R   0.652388 0.837576 0.279567 0.485391
C20   C     C_R   0.587539 0.792786 0.323834 0.444455
C21   C     C_R   0.389031 0.727012 0.306926 -0.040805
C22   C     C_R   0.305683 0.295359 0.803459 -0.024020
C23   C     C_R   0.782137 0.373654 0.405774 0.555586
C24   C     C_R   0.419071 0.189997 0.760598 -0.050958
C25   C     C_R   0.482143 0.229400 0.713255 -0.095290
C26   C     C_R   0.273885 0.466629 0.718697 0.340529
C27   C     C_R   0.234045 0.434899 0.782727 -0.086552
C28   C     C_R   0.471219 0.045315 0.764549 0.385613
C29   C     C_R   0.607632 0.944037 0.746322 0.167379
C30   C     C_R   0.687296 0.987917 0.714925 0.185546
C31   C     C_R   0.623274 0.127844 0.695834 0.372520
C32   C     C_R   0.395148 0.362682 0.680972 -0.001283
C33   C     C_1   0.820003 0.342539 0.708676 0.077397
C34   C     C_R   0.381627 0.713518 0.630754 0.529804
C35   C     C_1   0.847869 0.313625 0.776453 0.043417
C36   C     C_1   0.360271 0.756189 0.714476 0.102746
C37   C     C_1   0.328252 0.801302 0.782374 0.126113
C38   C     C_R   0.964504 0.278313 0.098874 0.575098
C39   C     C_R   0.321525 0.302818 0.118690 0.606972
C40   C     C_R   0.296118 0.885889 0.081864 0.566788
C41   C     C_R   0.888821 0.296693 0.858926 0.542071
C42   C     C_R   0.283761 0.261122 0.877663 0.598598
C43   C     C_R   0.282559 0.877211 0.859330 0.583248
C44   C     C_R   0.411284 0.377763 0.599751 0.564839
C45   C     C_R   0.773020 0.381114 0.629359 0.556029
C46   C     C_1   0.375739 0.361179 0.271489 0.151184
C47   C     C_1   0.349618 0.343611 0.200429 0.158704
C48   C     C_R   0.951623 0.274038 0.183331 -0.057458
Cr1   Cr    Cr6+3 0.608100 0.610860 0.522250 1.169025
Cr2   Cr    Cr6+3 0.288890 0.599990 0.488420 1.218380
Cr3   Cr    Cr6+3 0.603040 0.289190 0.489390 1.139196
Cr4   Cr    Cr6+3 0.053960 0.052250 0.967380 1.170747
Cr5   Cr    Cr6+3 0.059890 0.373160 0.992710 1.177466
Cr6   Cr    Cr6+3 0.373370 0.061690 0.991710 1.144789
H1    H     H_    0.145873 0.517941 0.814434 0.194714
O1    O     O_R   0.749810 0.499790 0.438040 -0.373351
O2    O     O_R   0.298970 0.468800 0.557390 -0.421116
O3    O     O_R   0.489400 0.255930 0.561910 -0.439049
O4    O     O_R   0.723890 0.306050 0.584610 -0.437995
O5    O     O_3   0.500010 0.500010 0.500020 -0.429893
O6    O     O_R   0.171100 0.914680 0.053100 -0.425380
O7    O     O_R   0.941680 0.184840 0.050710 -0.422131
O8    O     O_R   0.922080 0.403420 0.072610 -0.420593
O9    O     O_R   0.196880 0.369150 0.083850 -0.427595
O10   O     O_R   0.411730 0.181020 0.091530 -0.482509
O11   O     O_R   0.365010 0.944360 0.063320 -0.498953
O12   O     O_R   0.477660 0.726260 0.439290 -0.428780
O13   O     O_R   0.159380 0.906670 0.876210 -0.477775
O14   O     O_R   0.930820 0.177420 0.886730 -0.472740
O15   O     O_R   0.910360 0.395420 0.895720 -0.500531
O16   O     O_R   0.186010 0.361730 0.919870 -0.502695
O17   O     O_R   0.400000 0.173010 0.914630 -0.460245
O18   O     O_R   0.354140 0.936940 0.899340 -0.436410
O19   O     O_3   0.162410 0.162370 0.983930 -0.365137
O20   O     O_R   0.260150 0.743000 0.412270 -0.438564
O21   O     O_R   0.297740 0.466550 0.394720 -0.402142
O22   O     O_R   0.488080 0.253500 0.386430 -0.437752
O23   O     O_R   0.722670 0.303800 0.421940 -0.505323
O24   O     O_R   0.751130 0.502220 0.613520 -0.474936
O25   O     O_R   0.478890 0.728510 0.601960 -0.463379
O26   O     O_R   0.261470 0.745430 0.587750 -0.433476
F1    F     F_    0.928269 0.511643 0.366533 -0.462724
Br1   Br    Br    0.647780 0.907051 0.125517 -0.259964
F2    F     F_    0.790013 0.749232 0.269201 -0.478613
F3    F     F_    0.668326 0.719484 0.385201 -0.520111
F4    F     F_    0.192910 0.597505 0.693057 -0.590357
F5    F     F_    0.380475 0.005422 0.777394 -0.649921
Br2   Br    Br    0.684329 0.751800 0.769672 -0.393012
Br3   Br    Br    0.879690 0.858398 0.692533 -0.220402
F6    F     F_    0.704292 0.163359 0.665375 -0.609833
F7    F     F_    0.922308 0.008403 0.092177 -0.540806
F8    F     F_    0.995478 0.473258 0.217180 -0.491468
Br4   Br    Br    0.989067 0.746195 0.155710 -0.034450
Br5   Br    Br    0.976139 0.819270 0.363932 -0.112583
Br6   Br    Br    0.696127 0.133181 0.279748 -0.476989
F9    F     F_    0.236734 0.628911 0.259341 -0.596523
Br7   Br    Br    0.306885 0.129273 0.293342 -0.519262
F10   F     F_    0.261562 0.648533 0.101419 -0.572276

loop_
_geom_bond_atom_site_label_1
_geom_bond_atom_site_label_2
_ccdc_geom_bond_type
C25   C31   A    
C1    C21   S    
C33   C45   S    
Cr5   O19   S    
C7    C8    A    
Cr6   O10   S    
C26   C32   A    
C39   O9    A    
C26   C27   A    
Cr1   O5    S    
C14   C21   A    
C39   C47   S    
C36   C37   T    
Cr4   O19   S    
Cr4   O6    S    
C30   C31   A    
C33   C35   T    
Cr5   O9    S    
C27   H1    S    
C6    F7    S    
C18   C19   A    
Cr5   O8    S    
C29   Br2   S    
Cr4   O14   S    
C34   O25   A    
Cr6   O19   S    
C43   O18   A    
C45   O4    A    
C19   C20   A    
C44   O3    A    
C8    C9    A    
C34   O26   A    
C9    Br6   S    
C38   C48   S    
Cr4   O13   S    
C25   C32   A    
C40   O11   A    
C13   C14   A    
C20   F3    S    
C39   O10   A    
C2    C6    A    
C30   Br3   S    
Cr5   O15   S    
C17   C18   A    
C7    Br4   S    
C5    C48   A    
C1    O20   A    
C14   C20   A    
C23   O1    A    
C8    Br5   S    
C24   C25   A    
C12   C46   S    
C15   F9    S    
C43   O13   A    
C2    C48   A    
C40   O6    A    
Cr1   O24   S    
C37   C43   S    
Cr3   O22   S    
C29   C30   A    
C3    C9    A    
Cr2   O21   S    
Cr6   O18   S    
C11   C16   A    
C44   O2    A    
C26   F4    S    
C31   F6    S    
C12   O22   A    
C28   F5    S    
C42   O17   A    
C18   Br1   S    
C32   C44   S    
Cr6   O17   S    
C45   O24   A    
Cr3   O3    S    
C22   C27   A    
C12   O21   A    
C22   C24   A    
Cr3   O4    S    
C4    C10   A    
C19   F2    S    
Cr5   O16   S    
C41   O14   A    
C38   O8    A    
C46   C47   T    
C28   C29   A    
Cr1   O12   S    
Cr2   O2    S    
C24   C28   A    
C4    C5    A    
C6    C7    A    
Cr6   O11   S    
C10   C23   S    
Cr1   O1    S    
Cr1   O25   S    
C13   C17   A    
Cr2   O5    S    
C2    C3    A    
Cr3   O23   S    
C3    C10   A    
Cr4   O7    S    
Cr2   O20   S    
C11   C13   A    
C16   F10   S    
C22   C42   S    
C42   O16   A    
C1    O12   A    
C34   C36   S    
C23   O23   A    
C11   C40   S    
C35   C41   S    
C5    F8    S    
C15   C21   A    
C4    F1    S    
Cr3   O5    S    
C17   Br7   S    
C15   C16   A    
Cr2   O26   S    
C41   O15   A    
C38   O7    A    
