data_mof_unit_66061.cif
_audit_creation_date              2013-03-05T16:29:08-0500
_audit_creation_method            fapswitch 2.2
_symmetry_space_group_name_H-M    P1
_symmetry_Int_Tables_number       1
_space_group_crystal_system       triclinic
_cell_length_a                    19.398079
_cell_length_b                    18.372648
_cell_length_c                    27.80022
_cell_angle_alpha                 89.740322
_cell_angle_beta                  92.048411
_cell_angle_gamma                 90.003977
_cell_volume                      9901.40074223

loop_
_atom_site_label
_atom_site_type_symbol
_atom_site_description
_atom_site_fract_x
_atom_site_fract_y
_atom_site_fract_z
_atom_type_partial_charge
O1    O     O_R   0.400190 0.561980 0.499990 -0.562556
O2    O     O_R   0.599810 0.438020 0.500010 -0.557438
O3    O     O_R   0.599810 0.561980 0.500010 -0.562691
O4    O     O_R   0.400190 0.438020 0.499990 -0.557241
C1    C     C_R   0.367680 0.500026 0.500011 0.820013
C2    C     C_R   0.632326 0.500036 0.499986 0.819859
O5    O     O_R   0.500010 0.561950 0.430270 -0.557416
O6    O     O_R   0.499990 0.438050 0.569730 -0.562838
O7    O     O_R   0.499990 0.561950 0.569730 -0.557041
O8    O     O_R   0.500010 0.438050 0.430270 -0.562203
C3    C     C_R   0.500173 0.500142 0.407503 0.831269
C4    C     C_R   0.499927 0.499771 0.592501 0.830584
Cu1   Cu    Cu3+1 0.500000 0.573360 0.500000 1.029502
Cu2   Cu    Cu3+1 0.500000 0.426640 0.500000 1.029361
C5    C     C_R   0.441762 0.481963 0.176398 0.572422
C6    C     C_R   0.559420 0.516771 0.823250 0.573244
O9    O     O_2   0.385184 0.461732 0.199985 -0.507277
O10   O     O_2   0.615130 0.539164 0.799497 -0.503292
N1    N     N_R   0.500180 0.502721 0.201806 -0.468029
N2    N     N_R   0.501370 0.494775 0.798001 -0.470528
C7    C     C_R   0.557219 0.526611 0.178811 0.549162
C8    C     C_R   0.445041 0.469123 0.820943 0.550236
C9    C     C_R   0.494474 0.435905 0.278456 -0.087300
C10   C     C_R   0.505704 0.431158 0.720830 -0.086355
C11   C     C_R   0.494375 0.435204 0.328637 -0.177544
C12   C     C_R   0.505456 0.432369 0.670699 -0.175646
C13   C     C_R   0.507374 0.566503 0.329246 -0.170852
C14   C     C_R   0.494211 0.563883 0.671477 -0.168357
C15   C     C_R   0.507120 0.567105 0.279120 -0.082542
C16   C     C_R   0.494807 0.562530 0.721669 -0.089917
C17   C     C_R   0.500726 0.501861 0.253478 0.326127
C18   C     C_R   0.500519 0.496186 0.746444 0.333740
C19   C     C_R   0.499176 0.503633 0.101521 -0.046885
C20   C     C_R   0.502847 0.493103 0.898177 -0.046513
C21   C     C_R   0.440061 0.482643 0.125835 -0.079256
C22   C     C_R   0.561532 0.515296 0.873799 -0.080325
C23   C     C_R   0.379147 0.468243 0.099392 -0.132031
C24   C     C_R   0.622439 0.530098 0.900129 -0.132259
C25   C     C_R   0.557370 0.528466 0.128346 -0.013467
C26   C     C_R   0.444928 0.467351 0.871412 -0.014961
C27   C     C_R   0.500636 0.500585 0.354510 -0.053288
C28   C     C_R   0.499865 0.498796 0.645508 -0.052964
H1    H     H_    0.513036 0.617662 0.348121 0.192305
H2    H     H_    0.489066 0.615762 0.653111 0.191617
H3    H     H_    0.511756 0.618362 0.260125 0.160906
H4    H     H_    0.490555 0.612956 0.741357 0.155207
H5    H     H_    0.331506 0.459328 0.117747 0.222094
H6    H     H_    0.669853 0.539769 0.881652 0.221585
C29   C     C_R   0.442491 0.472537 0.973085 0.069541
C30   C     C_R   0.559858 0.523686 0.026635 0.069573
C31   C     C_R   0.563169 0.516294 0.975874 -0.023327
C32   C     C_R   0.439017 0.480411 0.023781 -0.023679
C33   C     C_R   0.502602 0.494967 0.949252 0.042624
C34   C     C_R   0.499592 0.501565 0.050443 0.042348
C35   C     C_R   0.390197 0.437042 0.945529 -0.133020
C36   C     C_R   0.612435 0.558519 0.054310 -0.133604
C37   C     C_R   0.389883 0.437113 0.895569 -0.125009
C38   C     C_R   0.612811 0.558009 0.104264 -0.125460
O11   O     O_2   0.389264 0.445805 0.794994 -0.520317
O12   O     O_2   0.613783 0.547993 0.204684 -0.524218
C39   C     C_R   0.376848 0.471957 0.049296 0.224386
C40   C     C_R   0.625128 0.525480 0.950200 0.224500
H7    H     H_    0.509877 0.381306 0.651750 0.194753
H8    H     H_    0.489200 0.383563 0.347094 0.194657
H9    H     H_    0.510277 0.379727 0.739856 0.158080
H10   H     H_    0.489719 0.385187 0.258927 0.162457
H11   H     H_    0.347109 0.411600 0.876016 0.199243
H12   H     H_    0.655843 0.582945 0.123880 0.199178
H13   H     H_    0.350462 0.405731 0.962050 0.194397
H14   H     H_    0.652356 0.589714 0.037943 0.194702
C41   C     C_R   0.744751 0.565558 0.506856 -0.145061
C42   C     C_R   0.255181 0.565388 0.492519 -0.147365
C43   C     C_R   0.255663 0.435177 0.507807 -0.142870
C44   C     C_R   0.744456 0.435220 0.492904 -0.145065
H15   H     H_    0.718074 0.616474 0.512290 0.192238
H16   H     H_    0.281794 0.616255 0.486494 0.192414
H17   H     H_    0.282663 0.384292 0.514223 0.182723
H18   H     H_    0.717540 0.384254 0.486956 0.183136
C45   C     C_R   0.816556 0.565700 0.507073 -0.152208
C46   C     C_R   0.183375 0.565453 0.492360 -0.147153
C47   C     C_R   0.183860 0.435406 0.507712 -0.128996
C48   C     C_R   0.816266 0.435506 0.493119 -0.122667
H19   H     H_    0.844282 0.616376 0.512413 0.151945
H20   H     H_    0.155536 0.615998 0.486410 0.152486
H21   H     H_    0.156401 0.385020 0.513738 0.149094
H22   H     H_    0.843777 0.385070 0.487654 0.149191
C49   C     C_R   0.852368 0.500655 0.500421 0.142026
C50   C     C_R   0.147709 0.500461 0.499817 0.141980
C51   C     C_R   0.708075 0.500232 0.499938 -0.045307
C52   C     C_R   0.291944 0.500166 0.500089 -0.045030
C53   C     C_R   0.966700 0.504150 0.544290 0.063369
C54   C     C_R   0.033491 0.496989 0.456012 0.063570
C55   C     C_R   0.038987 0.503975 0.543845 0.159756
C56   C     C_R   0.961207 0.497021 0.456439 0.158737
C57   C     C_R   0.072211 0.500608 0.499825 -0.043071
C58   C     C_R   0.927926 0.500835 0.500450 -0.041867
C59   C     C_R   0.468449 0.722456 0.462923 0.392219
C60   C     C_R   0.553337 0.277606 0.521756 0.392391
C61   C     C_R   0.531605 0.722039 0.537022 0.392890
C62   C     C_R   0.446663 0.277850 0.478271 0.393141
C63   C     C_R   0.475463 0.798369 0.460058 -0.219610
C64   C     C_R   0.557399 0.201758 0.516780 -0.221031
C65   C     C_R   0.524533 0.797903 0.539837 -0.220343
C66   C     C_R   0.442700 0.201926 0.483210 -0.221004
H23   H     H_    0.459112 0.825210 0.426992 0.214776
H24   H     H_    0.604892 0.175057 0.527935 0.213887
H25   H     H_    0.540926 0.824362 0.572870 0.214889
H26   H     H_    0.395227 0.175316 0.472067 0.213928
C67   C     C_R   0.499999 0.838600 0.499932 0.091707
C68   C     C_R   0.500077 0.161379 0.499971 0.092497
N3    N     N_R   0.500000 0.683620 0.500000 -0.225805
N4    N     N_R   0.500000 0.316380 0.500000 -0.226520
C69   C     C_R   0.549421 0.962031 0.527703 0.207091
C70   C     C_R   0.459855 0.037995 0.465712 0.206952
C71   C     C_R   0.450748 0.962459 0.472084 0.207205
C72   C     C_R   0.540365 0.037475 0.534116 0.207117
C73   C     C_R   0.500107 0.078545 0.499932 -0.085456
C74   C     C_R   0.500056 0.921435 0.499900 -0.084661
N5    N     N_3   0.933571 0.506690 0.589585 -0.573597
H27   H     H_    0.901347 0.461319 0.592137 0.246835
H28   H     H_    0.903224 0.553627 0.590397 0.241529
N6    N     N_3   0.066734 0.492740 0.410821 -0.573034
H29   H     H_    0.098622 0.446846 0.411422 0.246174
H30   H     H_    0.097525 0.538948 0.406996 0.242694
N7    N     N_3   0.079289 0.507408 0.588065 -0.556011
H31   H     H_    0.066011 0.554955 0.606073 0.252718
H32   H     H_    0.066263 0.462856 0.609440 0.251675
N8    N     N_3   0.920974 0.493604 0.412187 -0.557266
H33   H     H_    0.934259 0.537975 0.390732 0.254367
H34   H     H_    0.934055 0.445891 0.394294 0.250129
Br1   Br    Br    0.406615 0.679667 0.415809 -0.467386
Br2   Br    Br    0.621119 0.320204 0.564829 -0.463715
Br3   Br    Br    0.593866 0.678868 0.583987 -0.461697
Br4   Br    Br    0.378615 0.320962 0.435367 -0.459260
Br5   Br    Br    0.636189 0.921332 0.551280 -0.385473
Br6   Br    Br    0.425314 0.078972 0.405365 -0.382130
Br7   Br    Br    0.364005 0.922138 0.448410 -0.386324
Br8   Br    Br    0.574971 0.077520 0.594477 -0.382701
Br9   Br    Br    0.284953 0.485663 0.021761 -0.450887
Br10  Br    Br    0.717272 0.511501 0.977230 -0.450934

loop_
_geom_bond_atom_site_label_1
_geom_bond_atom_site_label_2
_geom_bond_distance
_ccdc_geom_bond_type
C61   C65   1.403370 A    
C13   C15   1.393365 A    
C42   H16   1.082891 S    
O3    C2    1.301228 A    
N1    C17   1.436186 S    
N8    H33   1.045595 S    
C45   C49   1.398638 A    
C70   C71   1.410158 A    
C48   H22   1.083363 S    
Cu2   N4    2.025768 S    
C30   C34   1.422221 A    
O1    C1    1.301258 A    
C47   C50   1.398306 A    
C44   C51   1.405381 A    
N1    C7    1.368761 A    
C44   C48   1.392781 A    
C43   C52   1.405471 A    
C32   C39   1.428898 A    
C59   N3    1.376385 A    
C63   C67   1.404036 A    
C48   C49   1.398686 A    
C62   C66   1.403422 A    
C72   C73   1.422261 A    
C61   Br3   1.915851 S    
C43   C47   1.392765 A    
O7    Cu1   1.948870 S    
C4    C28   1.473661 S    
C53   C58   1.410667 A    
C5    N1    1.368818 A    
C71   Br7   1.933479 S    
C32   C34   1.421790 A    
C45   H19   1.083355 S    
C41   C51   1.405645 A    
C64   H24   1.078813 S    
O6    C4    1.301249 A    
C23   H5    1.083603 S    
C24   H6    1.083632 S    
C1    C52   1.469215 S    
O3    Cu1   1.947383 S    
C46   H20   1.083348 S    
C69   C72   1.410110 A    
C29   C32   1.421384 A    
C50   C57   1.464519 S    
C61   N3    1.376523 A    
C55   C57   1.404929 A    
C70   Br6   1.933530 S    
Cu1   Cu2   2.695633 S    
C46   C50   1.398334 A    
O2    C2    1.302301 A    
C31   C40   1.429216 A    
C37   H11   1.083375 S    
C68   C73   1.521891 S    
C5    C21   1.404875 A    
C62   Br4   1.916096 S    
C67   C74   1.521888 S    
C72   Br8   1.933487 S    
N5    H28   1.044936 S    
C63   H23   1.078825 S    
C60   N4    1.376665 A    
C16   C18   1.399787 A    
C59   Br1   1.915496 S    
C7    O12   1.349694 S    
O8    Cu2   1.948873 S    
C11   C27   1.405940 A    
C8    O11   1.349631 S    
C39   Br9   1.930740 S    
C29   C35   1.410685 A    
C25   C38   1.395527 A    
C14   H2    1.082187 S    
C54   C57   1.409767 A    
C30   C36   1.410638 A    
C41   C45   1.392677 A    
C15   H3    1.082901 S    
C31   C33   1.421986 A    
C11   H8    1.082943 S    
C9    C17   1.401308 A    
O5    C3    1.302612 A    
C12   H7    1.082933 S    
C10   C18   1.399079 A    
C54   N6    1.434934 S    
C53   C55   1.402726 A    
C42   C52   1.405657 A    
C13   C27   1.405669 A    
C9    H10   1.082854 S    
C7    C25   1.403308 A    
C59   C63   1.403518 A    
C6    N2    1.367502 A    
C71   C74   1.422278 A    
C8    C26   1.403368 A    
C49   C58   1.465654 S    
C54   C56   1.402650 A    
C30   C31   1.422041 A    
C19   C25   1.407652 A    
C56   C58   1.405663 A    
C35   H13   1.076480 S    
C10   H9    1.082884 S    
C6    O10   1.349689 S    
N2    C8    1.367425 A    
C62   N4    1.376804 A    
C36   H14   1.076100 S    
C35   C37   1.388673 A    
C44   H18   1.082551 S    
N7    H31   1.045609 S    
C53   N5    1.434993 S    
C66   C68   1.403840 A    
C64   C68   1.403928 A    
O1    Cu1   1.947355 S    
N6    H30   1.045205 S    
C22   C24   1.394846 A    
C66   H26   1.078849 S    
C12   C28   1.406606 A    
N2    C18   1.432910 S    
C38   H12   1.083395 S    
C19   C34   1.420963 A    
C5    O9    1.349748 S    
O6    Cu2   1.950760 S    
C26   C37   1.395551 A    
C21   C23   1.395080 A    
C16   H4    1.082829 S    
C10   C12   1.393558 A    
O4    C1    1.302164 A    
N8    H34   1.045601 S    
C23   C39   1.393154 A    
N5    H27   1.045542 S    
C56   N8    1.434751 S    
C2    C51   1.469429 S    
C65   C67   1.403948 A    
C14   C16   1.395098 A    
C15   C17   1.400652 A    
C60   C64   1.403503 A    
C6    C22   1.404528 A    
C41   H15   1.082896 S    
C29   C33   1.421679 A    
Cu1   N3    2.025768 S    
C14   C28   1.405960 A    
C19   C21   1.404826 A    
C36   C38   1.388477 A    
C3    C27   1.473560 S    
C20   C22   1.405010 A    
C9    C11   1.395100 A    
O4    Cu2   1.947383 S    
O2    Cu2   1.947355 S    
O7    C4    1.303570 A    
C55   N7    1.434723 S    
C70   C73   1.422314 A    
O8    C3    1.302153 A    
C69   C74   1.422302 A    
C13   H1    1.082211 S    
O5    Cu1   1.950762 S    
C20   C33   1.420651 A    
C42   C46   1.392751 A    
C69   Br5   1.933528 S    
C60   Br2   1.915978 S    
N7    H32   1.045593 S    
C43   H17   1.082609 S    
C20   C26   1.408231 A    
C65   H25   1.078838 S    
C40   Br10  1.930746 S    
N6    H29   1.045517 S    
C47   H21   1.083346 S    
C24   C40   1.393299 A    
