data_mof_unit_24692.cif
_audit_creation_date              2013-03-05T16:25:53-0500
_audit_creation_method            fapswitch 2.2
_symmetry_space_group_name_H-M    P1
_symmetry_Int_Tables_number       1
_space_group_crystal_system       triclinic
_cell_length_a                    8.780286
_cell_length_b                    19.381739
_cell_length_c                    18.164349
_cell_angle_alpha                 89.290815
_cell_angle_beta                  97.615469
_cell_angle_gamma                 89.983545
_cell_volume                      3063.65312651

loop_
_atom_site_label
_atom_site_type_symbol
_atom_site_description
_atom_site_fract_x
_atom_site_fract_y
_atom_site_fract_z
_atom_type_partial_charge
O1    O     O_R   0.499930 0.400180 0.561970 -0.566674
O2    O     O_R   0.500070 0.599820 0.438030 -0.566745
O3    O     O_R   0.500010 0.400190 0.438070 -0.579614
O4    O     O_R   0.499990 0.599810 0.561930 -0.593160
C1    C     C_R   0.498310 0.367696 0.500149 0.802927
C2    C     C_R   0.497763 0.632623 0.499507 0.804755
O5    O     O_R   0.274810 0.500000 0.547650 -0.536466
O6    O     O_R   0.725190 0.500000 0.452350 -0.480776
O7    O     O_R   0.274880 0.500000 0.423750 -0.617112
O8    O     O_R   0.725120 0.500000 0.576250 -0.556464
C3    C     C_R   0.204076 0.498237 0.481341 0.795274
C4    C     C_R   0.795832 0.501631 0.518613 0.826702
Cu1   Cu    Cu3+1 0.499960 0.500000 0.573360 0.987435
Cu2   Cu    Cu3+1 0.500040 0.500000 0.426640 0.993098
C5    C     C_2   0.039087 0.490154 0.472145 0.190803
C6    C     C_2   0.960616 0.509729 0.527654 0.176644
C7    C     C_R   0.497381 0.745710 0.432555 -0.196063
C8    C     C_R   0.591048 0.253186 0.549263 -0.192903
H1    H     H_    0.508121 0.719564 0.381310 0.155299
H2    H     H_    0.676443 0.277841 0.588384 0.138645
C9    C     C_R   0.492680 0.817437 0.432107 -0.261375
C10   C     C_R   0.585425 0.181483 0.547168 -0.239087
H3    H     H_    0.501765 0.845412 0.380858 0.155317
H4    H     H_    0.664521 0.151688 0.586048 0.158549
C11   C     C_R   0.475192 0.852988 0.497080 0.003190
C12   C     C_R   0.478197 0.148349 0.495400 -0.007268
C13   C     C_R   0.460283 0.816459 0.563148 0.522358
C14   C     C_R   0.378002 0.187555 0.444192 0.520495
C15   C     C_R   0.472158 0.744112 0.563828 -0.280677
C16   C     C_R   0.384201 0.259717 0.446852 -0.270940
H5    H     H_    0.468991 0.715872 0.615373 0.159220
H6    H     H_    0.305479 0.290058 0.408304 0.143140
C17   C     C_R   0.489630 0.708449 0.498576 -0.090052
C18   C     C_R   0.490470 0.292515 0.499362 -0.077178
C19   C     C_R   0.343432 0.964995 0.509846 -0.139121
C20   C     C_R   0.605623 0.036352 0.479550 -0.201059
H7    H     H_    0.241682 0.937677 0.521713 0.129397
H8    H     H_    0.707695 0.063626 0.468011 0.142261
C21   C     C_R   0.343691 0.036931 0.508746 -0.118725
C22   C     C_R   0.604568 0.964508 0.479562 -0.179838
H9    H     H_    0.242563 0.064655 0.520342 0.143102
H10   H     H_    0.706055 0.936830 0.468343 0.135811
C23   C     C_R   0.475209 0.072783 0.494083 0.131148
C24   C     C_R   0.474047 0.928607 0.495392 0.146035
C25   C     C_R   0.612281 0.467715 0.731451 0.562284
C26   C     C_R   0.610429 0.534176 0.283772 0.598693
C27   C     C_R   0.613651 0.473074 0.809465 0.214379
C28   C     C_R   0.611692 0.530519 0.205716 0.212255
C29   C     C_R   0.489757 0.504497 0.838108 -0.074014
C30   C     C_R   0.489376 0.498495 0.160740 -0.074534
C31   C     C_R   0.374492 0.536961 0.788158 0.403586
C32   C     C_R   0.374325 0.465117 0.195206 0.405029
C33   C     C_R   0.383867 0.534200 0.710764 -0.173107
C34   C     C_R   0.383766 0.466568 0.273916 -0.198632
H11   H     H_    0.296864 0.558788 0.671803 0.220224
H12   H     H_    0.296237 0.442184 0.301611 0.165144
N1    N     N_R   0.499980 0.500020 0.683620 -0.252710
N2    N     N_R   0.500020 0.499980 0.316380 -0.243951
C35   C     C_R   0.487087 0.565660 0.961135 0.519921
C36   C     C_R   0.489781 0.437684 0.037532 0.523471
C37   C     C_R   0.482656 0.562693 0.038829 -0.323032
C38   C     C_R   0.484945 0.440609 0.959304 -0.320348
H13   H     H_    0.477664 0.610016 0.069445 0.177045
H14   H     H_    0.481954 0.393213 0.928246 0.177894
C39   C     C_R   0.484612 0.499343 0.077602 0.074537
C40   C     C_R   0.484186 0.503943 0.920575 0.072805
O9    O     O_3   0.964805 0.458956 0.408919 -0.726803
H15   H     H_    0.041357 0.443281 0.377256 0.313910
O10   O     O_3   0.034667 0.541100 0.590728 -0.767764
H16   H     H_    0.958144 0.556770 0.622406 0.332134
O11   O     O_3   0.249017 0.565496 0.816248 -0.553812
C41   C     C_3   0.207410 0.630099 0.782727 -0.269438
H17   H     H_    0.130922 0.623167 0.729583 0.153489
H18   H     H_    0.309183 0.662134 0.774186 0.162588
H19   H     H_    0.141178 0.659057 0.820188 0.186996
O12   O     O_3   0.249410 0.437358 0.149896 -0.556073
C42   C     C_3   0.195231 0.376033 0.180072 -0.277559
H20   H     H_    0.115840 0.388117 0.220964 0.129029
H21   H     H_    0.290569 0.341704 0.205152 0.166305
H22   H     H_    0.128194 0.347052 0.134476 0.190158
O13   O     O_3   0.486716 0.628215 0.923143 -0.564405
C43   C     C_3   0.611053 0.669527 0.953763 -0.338535
H23   H     H_    0.719745 0.639477 0.966856 0.157766
H24   H     H_    0.583060 0.696425 0.003923 0.174131
H25   H     H_    0.631289 0.709786 0.912235 0.187523
O14   O     O_3   0.491945 0.375088 0.075526 -0.559137
C44   C     C_3   0.619992 0.335397 0.062054 -0.336876
H26   H     H_    0.726940 0.366704 0.064315 0.155924
H27   H     H_    0.596381 0.308724 0.007995 0.174373
H28   H     H_    0.640778 0.294973 0.106008 0.184755
O15   O     O_3   0.449961 0.852724 0.627694 -0.577280
C45   C     C_3   0.318117 0.832047 0.659017 -0.346843
H29   H     H_    0.338991 0.782634 0.690350 0.159913
H30   H     H_    0.214669 0.828045 0.616506 0.148861
H31   H     H_    0.292910 0.871709 0.699237 0.198270
O16   O     O_3   0.270342 0.155294 0.393669 -0.587878
C46   C     C_3   0.323079 0.156605 0.323651 -0.330110
H32   H     H_    0.437065 0.130830 0.325912 0.162970
H33   H     H_    0.328514 0.210287 0.301705 0.154552
H34   H     H_    0.240519 0.127679 0.283991 0.192275
O17   O     O_3   0.731290 0.434854 0.703287 -0.541317
C47   C     C_3   0.722014 0.363145 0.716068 -0.266351
H35   H     H_    0.808066 0.337348 0.686295 0.166926
H36   H     H_    0.606360 0.342481 0.694911 0.148494
H37   H     H_    0.752024 0.349351 0.775667 0.195347
O18   O     O_3   0.725351 0.568362 0.328645 -0.525981
C48   C     C_3   0.728247 0.639022 0.308860 -0.252542
H38   H     H_    0.766832 0.668760 0.359713 0.163316
H39   H     H_    0.613932 0.659898 0.284552 0.114249
H40   H     H_    0.813601 0.648086 0.269898 0.201527
O19   O     O_3   0.734893 0.446383 0.857838 -0.588886
C49   C     C_3   0.853199 0.495957 0.866810 -0.225059
H41   H     H_    0.813281 0.544904 0.889400 0.142983
H42   H     H_    0.899995 0.506192 0.813715 0.201075
H43   H     H_    0.948586 0.475512 0.907381 0.196450
O20   O     O_3   0.730454 0.559637 0.173093 -0.589499
C50   C     C_3   0.853200 0.512079 0.178993 -0.258603
H44   H     H_    0.817741 0.462701 0.151171 0.154148
H45   H     H_    0.901127 0.502206 0.238012 0.193340
H46   H     H_    0.946543 0.534346 0.150609 0.199729

loop_
_geom_bond_atom_site_label_1
_geom_bond_atom_site_label_2
_geom_bond_distance
_ccdc_geom_bond_type
C44   H26   1.114616 S    
O17   C47   1.410419 S    
C13   C15   1.405832 A    
C33   H11   1.076873 S    
O19   C49   1.410084 S    
C49   H42   1.112942 S    
C46   H32   1.114105 S    
C27   C29   1.407985 A    
C42   H20   1.110816 S    
O5    C3    1.280774 A    
C25   N1    1.370497 A    
C7    C17   1.401622 A    
O1    C1    1.292605 A    
C19   H7    1.083252 S    
C50   H45   1.112788 S    
C35   C40   1.411102 A    
Cu1   N1    2.002781 S    
O18   C48   1.412652 S    
C5    C6    1.352313 D    
C15   C17   1.405195 A    
O20   C50   1.410326 S    
C47   H37   1.109084 S    
C36   C38   1.416389 A    
C25   C27   1.420635 A    
O4    Cu1   1.943046 S    
C37   H13   1.082357 S    
C38   H14   1.082463 S    
C47   H35   1.108205 S    
C3    C5    1.444873 S    
C4    C6    1.443178 S    
C29   C31   1.409082 A    
C30   C32   1.410277 A    
C48   H38   1.109324 S    
C13   O15   1.387584 S    
C28   O20   1.383056 S    
C28   C30   1.409416 A    
Cu1   Cu2   2.665166 S    
O16   C46   1.409923 S    
C48   H39   1.115353 S    
O2    C2    1.294296 A    
C31   O11   1.391254 S    
C41   H19   1.109221 S    
C11   C24   1.465569 S    
C49   H41   1.113003 S    
C46   H33   1.112879 S    
C32   C34   1.421740 A    
C12   C23   1.465268 S    
O13   C43   1.411695 S    
C26   C28   1.421989 A    
C42   H21   1.114475 S    
Cu2   N2    2.002784 S    
C34   H12   1.078811 S    
C35   C37   1.417385 A    
C29   C40   1.505133 S    
C16   C18   1.401410 A    
O9    H15   0.990711 S    
C20   C22   1.392495 A    
O12   C42   1.411667 S    
C41   H18   1.114791 S    
C50   H46   1.109268 S    
O15   C45   1.411962 S    
C38   C40   1.406817 A    
O14   C44   1.411670 S    
C25   O17   1.381520 S    
C21   C23   1.401670 A    
O6    Cu2   1.970141 S    
O3    C1    1.286581 A    
C45   H31   1.109204 S    
C7    C9    1.390678 A    
C31   C33   1.420724 A    
C19   C21   1.394159 A    
O7    Cu2   1.970700 S    
C8    C18   1.397441 A    
C22   C24   1.401088 A    
O6    C4    1.279650 A    
C5    O9    1.388839 S    
C1    C18   1.458947 S    
C45   H30   1.114853 S    
C47   H36   1.113505 S    
C19   C24   1.401947 A    
O7    C3    1.285877 A    
O3    Cu2   1.943048 S    
O8    C4    1.286097 A    
O4    C2    1.291037 A    
C36   C39   1.410762 A    
C43   H24   1.110570 S    
C9    H3    1.083575 S    
C48   H40   1.109472 S    
C10   H4    1.083620 S    
O1    Cu1   1.948259 S    
C20   H8    1.083464 S    
C46   H34   1.109321 S    
C34   N2    1.363932 A    
C42   H22   1.109238 S    
C9    C11   1.399760 A    
C36   O14   1.387199 S    
C8    C10   1.391435 A    
C6    O10   1.387485 S    
C35   O13   1.387412 S    
C41   H17   1.110122 S    
C32   O12   1.393489 S    
O8    Cu1   1.970699 S    
C33   N1    1.364659 A    
C11   C13   1.406856 A    
C43   H25   1.109266 S    
C12   C14   1.407777 A    
C2    C17   1.471123 S    
C14   O16   1.382510 S    
C14   C16   1.400872 A    
O11   C41   1.412053 S    
C15   H5    1.082221 S    
C50   H44   1.112958 S    
C16   H6    1.084048 S    
C27   O19   1.383251 S    
C26   O18   1.384677 S    
C22   H10   1.083468 S    
C45   H29   1.110633 S    
C7    H1    1.080306 S    
C8    H2    1.078374 S    
O10   H16   0.990672 S    
O2    Cu2   1.948257 S    
C30   C39   1.505068 S    
C37   C39   1.406868 A    
O5    Cu1   1.970142 S    
C21   H9    1.083335 S    
C43   H23   1.114739 S    
C10   C12   1.401317 A    
C44   H28   1.109238 S    
C44   H27   1.110466 S    
C20   C23   1.401323 A    
C49   H43   1.109307 S    
C26   N2    1.368473 A    
