data_mof_unit_61993.cif
_audit_creation_date              2013-03-05T16:45:41-0500
_audit_creation_method            fapswitch 2.2
_symmetry_space_group_name_H-M    P1
_symmetry_Int_Tables_number       1
_space_group_crystal_system       triclinic
_cell_length_a                    10.646158
_cell_length_b                    15.783698
_cell_length_c                    17.186323
_cell_angle_alpha                 97.195994
_cell_angle_beta                  90.595758
_cell_angle_gamma                 92.287112
_cell_volume                      2862.54204857

loop_
_atom_site_label
_atom_site_type_symbol
_atom_site_description
_atom_site_fract_x
_atom_site_fract_y
_atom_site_fract_z
_atom_type_partial_charge
O1    O     O_R   0.494270 0.420530 0.382500 -0.546390
O2    O     O_R   0.505730 0.579470 0.617500 -0.546390
O3    O     O_R   0.504620 0.563720 0.388950 -0.557698
O4    O     O_R   0.495380 0.436280 0.611050 -0.557704
C1    C     C_R   0.503389 0.488735 0.348286 0.894099
C2    C     C_R   0.496610 0.511265 0.651714 0.894115
O5    O     O_R   0.311680 0.428420 0.496760 -0.564898
O6    O     O_R   0.688320 0.571580 0.503240 -0.564902
O7    O     O_R   0.322030 0.571610 0.503210 -0.597997
O8    O     O_R   0.677970 0.428390 0.496790 -0.597995
C3    C     C_R   0.259118 0.500341 0.499924 0.858655
C4    C     C_R   0.740882 0.499659 0.500075 0.858643
Cu1   Cu    Cu3+1 0.493870 0.415220 0.496180 1.049634
Cu2   Cu    Cu3+1 0.506130 0.584780 0.503820 1.049634
C5    C     C_3   0.037802 0.459427 0.432350 0.292167
C6    C     C_3   0.962199 0.540573 0.567648 0.292167
C7    C     C_3   0.958789 0.539710 0.440207 -0.195513
C8    C     C_3   0.041210 0.460289 0.559791 -0.195506
H1    H     H_    0.922708 0.571549 0.390954 0.220321
H2    H     H_    0.077291 0.428450 0.609044 0.220337
C9    C     C_3   0.877394 0.499087 0.500015 -0.114113
C10   C     C_3   0.122606 0.500912 0.499983 -0.114112
C11   C     C_3   0.954575 0.418311 0.491446 -0.185364
C12   C     C_3   0.045425 0.581689 0.508552 -0.185360
H3    H     H_    0.915422 0.351485 0.483945 0.200530
H4    H     H_    0.084578 0.648514 0.516054 0.200529
C13   C     C_R   0.509445 0.480823 0.261524 -0.309403
C14   C     C_R   0.490561 0.519177 0.738476 -0.309392
C15   C     C_R   0.548457 0.552327 0.224225 0.262991
C16   C     C_R   0.451534 0.447675 0.775775 0.262987
C17   C     C_R   0.538166 0.548032 0.143059 -0.205189
C18   C     C_R   0.461845 0.451964 0.856939 -0.205200
C19   C     C_R   0.494671 0.472550 0.096738 0.185345
C20   C     C_R   0.505372 0.527436 0.903260 0.185349
C21   C     C_R   0.462950 0.399647 0.132475 0.234062
C22   C     C_R   0.537109 0.600338 0.867522 0.234079
C23   C     C_R   0.470918 0.403148 0.214602 0.203305
C24   C     C_R   0.529117 0.596844 0.785397 0.203291
N1    N     N_2   0.488350 0.465857 0.013657 -0.143541
N2    N     N_2   0.511702 0.534127 0.986340 -0.143554
H5    H     H_    0.431407 0.396325 0.883862 0.246215
H6    H     H_    0.568587 0.603675 0.116137 0.246206
N3    N     N_R   0.515330 0.712130 0.509560 -0.210783
N4    N     N_R   0.484670 0.287870 0.490440 -0.210781
C25   C     C_R   0.438665 0.748571 0.460238 0.031586
C26   C     C_R   0.561336 0.251429 0.539761 0.031572
C27   C     C_R   0.446707 0.837238 0.455179 0.222358
C28   C     C_R   0.553293 0.162762 0.544821 0.222357
C29   C     C_R   0.532911 0.890043 0.505286 0.274481
C30   C     C_R   0.467089 0.109957 0.494714 0.274485
C31   C     C_R   0.610578 0.850232 0.555184 -0.246145
C32   C     C_R   0.389422 0.149768 0.444815 -0.246145
C33   C     C_R   0.600692 0.761379 0.556496 0.124882
C34   C     C_R   0.399308 0.238621 0.443504 0.124888
N5    N     N_2   0.549279 0.980995 0.505404 -0.130596
N6    N     N_2   0.450721 0.019004 0.494595 -0.130598
H7    H     H_    0.625471 0.292281 0.578365 0.178389
H8    H     H_    0.374530 0.707719 0.421634 0.178393
H9    H     H_    0.679205 0.888146 0.593031 0.219377
H10   H     H_    0.320794 0.111854 0.406969 0.219376
H11   H     H_    0.662555 0.731696 0.594399 0.195432
H12   H     H_    0.337444 0.268305 0.405601 0.195430
Br1   Br    Br    0.094294 0.401449 0.333852 -0.380048
Br2   Br    Br    0.905709 0.598550 0.666147 -0.380038
N7    N     N_R   0.395281 0.371389 0.732835 0.161049
O9    O     O_R   0.297672 0.376390 0.687664 -0.335763
O10   O     O_R   0.426559 0.296750 0.749424 -0.270607
N8    N     N_R   0.604673 0.628625 0.267165 0.161045
O11   O     O_R   0.702295 0.623644 0.312332 -0.335737
O12   O     O_R   0.573351 0.703255 0.250580 -0.270615
N9    N     N_R   0.423976 0.321197 0.084928 0.182857
O13   O     O_R   0.341205 0.321286 0.028686 -0.261661
O14   O     O_R   0.473370 0.249593 0.096353 -0.204846
N10   N     N_R   0.576119 0.678778 0.915070 0.182850
O15   O     O_R   0.658918 0.678671 0.971291 -0.261659
O16   O     O_R   0.526731 0.750391 0.903664 -0.204848
N11   N     N_R   0.437648 0.327623 0.249462 0.167116
O17   O     O_R   0.323470 0.294889 0.241629 -0.256977
O18   O     O_R   0.526088 0.282450 0.273998 -0.283255
N12   N     N_R   0.562385 0.672372 0.750538 0.167116
O19   O     O_R   0.676562 0.705106 0.758369 -0.256964
O20   O     O_R   0.473943 0.717547 0.726009 -0.283259
N13   N     N_R   0.625634 0.129696 0.604376 0.150679
O21   O     O_R   0.572011 0.078836 0.649276 -0.252227
O22   O     O_R   0.737887 0.161976 0.623062 -0.302534
N14   N     N_R   0.374367 0.870304 0.395624 0.150684
O23   O     O_R   0.427990 0.921164 0.350724 -0.252220
O24   O     O_R   0.262114 0.838023 0.376937 -0.302531

loop_
_geom_bond_atom_site_label_1
_geom_bond_atom_site_label_2
_geom_bond_distance
_ccdc_geom_bond_type
N5    N6    1.252788 D    
C6    C9    1.528159 S    
C17   H6    1.082821 S    
C13   C15   1.416517 A    
C27   C29   1.421687 A    
N11   O17   1.300649 A    
O5    C3    1.280851 A    
C19   N1    1.419186 S    
N10   O16   1.301274 A    
C20   N2    1.419182 S    
C21   C23   1.407141 A    
C12   H4    1.110229 S    
N14   O24   1.301279 A    
C25   C27   1.412285 A    
O4    Cu1   1.960280 S    
C32   H10   1.082906 S    
C19   C21   1.402035 A    
C1    C13   1.482958 S    
C33   H11   1.081575 S    
N3    C33   1.360915 A    
C5    C10   1.528160 S    
C2    C14   1.482956 S    
C32   C34   1.405193 A    
N8    O11   1.301518 A    
N7    O10   1.301345 A    
C30   C32   1.405596 A    
C18   H5    1.082830 S    
C17   C19   1.406503 A    
C20   C22   1.402066 A    
C5    C11   1.541336 S    
C21   N9    1.439305 S    
C6    C12   1.541334 S    
Cu1   Cu2   2.660922 S    
O2    C2    1.290553 A    
N4    C26   1.364090 A    
N11   O18   1.301287 A    
C26   C28   1.412286 A    
C25   H8    1.081857 S    
C7    C12   1.550194 S    
N10   O15   1.301337 A    
C8    C11   1.550192 S    
C27   N14   1.436193 S    
N12   O20   1.301277 A    
N1    N2    1.245447 D    
N9    O14   1.301254 A    
N14   O23   1.301380 A    
C34   H12   1.081576 S    
C29   C31   1.405595 A    
C29   N5    1.438923 S    
C23   N11   1.433543 S    
C4    C9    1.453731 S    
C30   N6    1.438923 S    
C31   C33   1.405194 A    
C18   C20   1.406477 A    
O7    Cu2   1.962463 S    
C15   N8    1.436565 S    
N3    C25   1.364090 A    
N13   O21   1.301380 A    
C14   C24   1.423679 A    
O6    C4    1.280853 A    
O7    C3    1.280755 A    
O3    Cu2   1.960279 S    
O8    C4    1.280754 A    
O4    C2    1.296421 A    
N13   O22   1.301279 A    
C9    C11   1.536694 S    
C26   H7    1.081857 S    
C10   C12   1.536694 S    
O1    Cu1   1.966041 S    
C22   C24   1.407132 A    
O1    C1    1.290552 A    
C5    C7    1.541459 S    
C22   N10   1.439273 S    
O6    Cu2   1.959027 S    
C8    C10   1.535528 S    
N12   O19   1.300644 A    
O3    C1    1.296426 A    
O8    Cu1   1.962464 S    
C3    C10   1.453730 S    
C28   N13   1.436192 S    
C14   C16   1.416527 A    
N9    O13   1.301359 A    
C15   C17   1.391047 A    
C16   C18   1.391043 A    
C24   N12   1.433563 S    
C13   C23   1.423699 A    
C28   C30   1.421686 A    
C7    H1    1.109885 S    
C8    H2    1.109884 S    
C11   H3    1.110227 S    
O2    Cu2   1.966040 S    
C7    C9    1.535530 S    
C16   N7    1.436567 S    
N4    C34   1.360915 A    
O5    Cu1   1.959026 S    
C31   H9    1.082907 S    
C6    C8    1.541458 S    
N7    O9    1.301499 A    
N8    O12   1.301323 A    
C5    Br1   1.934363 S    
C6    Br2   1.934360 S    
Cu1   N4    1.998512 S    
Cu2   N3    1.998512 S    
