data_mof_unit_44668.cif
_audit_creation_date              2012-12-10T18:16:20-0500
_audit_creation_method            fapswitch 2.2
_symmetry_space_group_name_H-M    P1
_symmetry_Int_Tables_number       1
_space_group_crystal_system       triclinic
_cell_length_a                    12.597999
_cell_length_b                    13.252191
_cell_length_c                    27.64961
_cell_angle_alpha                 91.288216
_cell_angle_beta                  103.018714
_cell_angle_gamma                 82.240019
_cell_volume                      4456.14519914

loop_
_atom_site_label
_atom_site_type_symbol
_atom_type_description
_atom_site_fract_x
_atom_site_fract_y
_atom_site_fract_z
_atom_type_partial_charge
C1    C     C_R   0.438871 0.690811 0.491588 0.862634
C2    C     C_R   0.414140 0.491559 0.714885 -0.108471
C3    C     C_R   0.515491 0.487998 0.748807 0.308856
C4    C     C_R   0.520479 0.485645 0.901078 -0.066048
C5    C     C_R   0.554911 0.567672 0.879947 0.006172
C6    C     C_R   0.589325 0.649066 0.909697 -0.140392
C7    C     C_R   0.489098 0.402289 0.871462 -0.109027
C8    C     C_R   0.506023 0.496673 0.647182 -0.036114
C9    C     C_R   0.496100 0.497118 0.354138 -0.102769
C10   C     C_R   0.561887 0.563262 0.033712 0.100797
C11   C     C_R   0.451671 0.421204 0.019655 -0.155130
C12   C     C_R   0.501506 0.499697 0.593952 0.862601
C13   C     C_R   0.504630 0.492677 0.051859 0.007648
C14   C     C_R   0.621373 0.627618 0.067652 -0.231669
C15   C     C_R   0.620494 0.625496 0.117656 -0.143209
C16   C     C_R   0.558692 0.560578 0.135258 0.026971
C17   C     C_R   0.499118 0.494701 0.102343 -0.125251
C18   C     C_R   0.434496 0.431024 0.119957 -0.211981
C19   C     C_R   0.431899 0.435094 0.170605 0.568110
C20   C     C_R   0.556052 0.559350 0.185424 0.508845
C21   C     C_R   0.450474 0.584720 0.275352 -0.082518
C22   C     C_R   0.452996 0.585149 0.325743 -0.327075
C23   C     C_R   0.561304 0.308831 0.506499 0.926882
C24   C     C_R   0.534220 0.406537 0.332542 0.454557
C25   C     C_R   0.535306 0.408202 0.281862 -0.230654
C26   C     C_R   0.492768 0.496724 0.253485 0.254416
C27   C     C_R   0.557397 0.567254 0.982245 0.078939
C28   C     C_R   0.516963 0.487238 0.951757 0.005774
C29   C     C_R   0.473380 0.408582 0.971616 -0.063918
C30   C     C_R   0.591594 0.648578 0.960125 -0.230748
C31   C     C_R   0.460921 0.318345 0.893118 -0.253528
C32   C     C_R   0.374970 0.368758 0.035992 0.446350
C33   C     C_R   0.372324 0.367827 0.086359 0.373104
C34   C     C_R   0.498699 0.499671 0.406503 0.919102
C35   C     C_R   0.457444 0.318846 0.943150 0.573179
C36   C     C_R   0.730975 0.050323 0.510236 -0.362763
C37   C     C_R   0.597880 0.199385 0.510466 -0.174838
C38   C     C_R   0.295922 0.836067 0.493669 -0.288172
C39   C     C_R   0.271048 0.936892 0.506078 -0.231993
C40   C     C_R   0.351272 0.002113 0.512898 0.530035
C41   C     C_R   0.453437 0.970219 0.498835 -0.031858
C42   C     C_R   0.475449 0.868841 0.483421 0.023098
C43   C     C_R   0.537283 0.033013 0.501977 0.072804
C44   C     C_R   0.644615 0.991150 0.498747 0.133078
C45   C     C_R   0.552611 0.566845 0.829149 0.497292
C46   C     C_R   0.661745 0.893656 0.480120 -0.217510
C47   C     C_R   0.574756 0.837197 0.468126 -0.176241
C48   C     C_R   0.514792 0.137381 0.503401 -0.295625
C49   C     C_R   0.709279 0.156001 0.518809 0.474530
C50   C     C_R   0.400710 0.799986 0.486252 -0.110994
C51   C     C_R   0.081414 0.364775 0.422789 -0.364759
C52   C     C_R   0.801447 0.627248 0.560073 0.028466
C53   C     C_R   0.907279 0.653009 0.573350 -0.263346
C54   C     C_R   0.988143 0.603915 0.550849 -0.168995
C55   C     C_R   0.963223 0.528338 0.514661 0.026982
C56   C     C_R   0.490036 0.403708 0.820970 0.541361
C57   C     C_R   0.854141 0.504493 0.502602 0.147829
C58   C     C_R   0.041256 0.477352 0.489407 -0.081770
C59   C     C_R   0.006944 0.409427 0.450227 0.004706
C60   C     C_R   0.899253 0.385737 0.439114 0.446293
C61   C     C_R   0.825459 0.430704 0.466516 -0.256778
C62   C     C_R   0.152407 0.492340 0.500787 -0.114477
C63   C     C_R   0.190209 0.383912 0.435071 0.633820
C64   C     C_R   0.612130 0.488493 0.731973 -0.100866
C65   C     C_R   0.607484 0.493254 0.681389 -0.218237
C66   C     C_R   0.409339 0.495470 0.664245 -0.224244
H1    H     H_    0.330107 0.498275 0.638576 0.157469
H2    H     H_    0.690678 0.485397 0.758163 0.144325
H3    H     H_    0.443905 0.250579 0.871697 0.213937
H4    H     H_    0.569535 0.341824 0.264219 0.134225
H5    H     H_    0.740477 0.863198 0.472422 0.154898
H6    H     H_    0.813247 0.013585 0.511038 0.125352
H7    H     H_    0.339159 0.491853 0.727866 0.142652
H8    H     H_    0.430240 0.171348 0.493873 0.256502
H9    H     H_    0.236327 0.784599 0.494275 0.182700
H10   H     H_    0.192376 0.962249 0.515047 0.160167
H11   H     H_    0.587814 0.766755 0.448474 0.176410
H12   H     H_    0.055979 0.314802 0.392373 0.184066
H13   H     H_    0.186257 0.541017 0.530310 0.142253
H14   H     H_    0.738182 0.664979 0.577445 0.141267
H15   H     H_    0.615061 0.713547 0.894166 0.188344
H16   H     H_    0.068386 0.627983 0.561920 0.130988
H17   H     H_    0.926543 0.711141 0.600861 0.150907
H18   H     H_    0.745501 0.407672 0.457986 0.239351
H19   H     H_    0.421862 0.654043 0.342720 0.154979
H20   H     H_    0.416903 0.652938 0.253319 0.154231
H21   H     H_    0.668035 0.675726 0.142448 0.184811
H22   H     H_    0.672401 0.678113 0.056777 0.140303
H23   H     H_    0.616702 0.714797 0.980643 0.141828
H24   H     H_    0.683281 0.493340 0.669121 0.163750
N1    N     N_R   0.519899 0.485895 0.800833 -0.354941
N2    N     N_R   0.493441 0.497243 0.201934 -0.346754
N3    N     N_R   0.222180 0.444690 0.474320 -0.131572
N4    N     N_R   0.776980 0.554780 0.525420 -0.118581
O1    O     O_R   0.366730 0.627160 0.487740 -0.624925
O2    O     O_2   0.616283 0.619090 0.217675 -0.564910
O3    O     O_2   0.461579 0.323717 0.792175 -0.565069
O4    O     O_2   0.368110 0.378431 0.188693 -0.551661
O5    O     O_R   0.544830 0.662520 0.504140 -0.626702
O6    O     O_R   0.410970 0.482310 0.563040 -0.625350
O7    O     O_R   0.589070 0.517670 0.579450 -0.625162
O8    O     O_R   0.455170 0.337480 0.495860 -0.583363
O9    O     O_R   0.633270 0.372840 0.512260 -0.585141
O10   O     O_R   0.410930 0.482330 0.420550 -0.598259
O11   O     O_R   0.589030 0.517690 0.436960 -0.633674
O12   O     O_2   0.581443 0.646767 0.808012 -0.567159
Zn1   Zn    Zn3+2 0.381080 0.476390 0.489050 0.982609
Zn2   Zn    Zn3+2 0.618920 0.523610 0.510950 0.954344
O13   O     O_3   0.296831 0.322410 0.002945 -0.545604
C67   C     C_3   0.209188 0.397567 0.981959 -0.234456
H25   H     H_    0.236375 0.453964 0.959725 0.144156
H26   H     H_    0.170670 0.436883 0.010998 0.162572
H27   H     H_    0.145272 0.359985 0.956462 0.190220
O14   O     O_3   0.575384 0.321158 0.362821 -0.661005
C68   C     C_3   0.544434 0.230505 0.339097 0.036772
H28   H     H_    0.603805 0.200930 0.316209 0.150744
H29   H     H_    0.459717 0.242526 0.315132 0.151796
C69   C     C_3   0.547091 0.151059 0.378689 -0.328989
H30   H     H_    0.629216 0.140564 0.404551 0.223101
H31   H     H_    0.484764 0.178573 0.400349 0.241588
C70   C     C_3   0.523010 0.048617 0.355595 -0.950828
H32   H     H_    0.442379 0.057058 0.328594 0.263051
H33   H     H_    0.520457 0.994305 0.385143 0.278727
H34   H     H_    0.588480 0.016999 0.336341 0.267541
O15   O     O_3   0.301308 0.310730 0.101492 -0.574986
C71   C     C_3   0.352920 0.209090 0.109284 0.157935
H35   H     H_    0.435555 0.205570 0.134998 0.121224
H36   H     H_    0.362205 0.173373 0.073346 0.163772
C72   C     C_3   0.281830 0.148675 0.132576 -0.300107
H37   H     H_    0.270383 0.184784 0.168061 0.249621
H38   H     H_    0.199710 0.149850 0.107054 0.229357
C73   C     C_3   0.334561 0.038415 0.142879 -0.984059
H39   H     H_    0.345502 0.000254 0.107814 0.271752
H40   H     H_    0.280748 0.996682 0.159594 0.271880
H41   H     H_    0.415778 0.035448 0.169246 0.268345
O16   O     O_3   0.443690 0.228762 0.963795 -0.555058
C74   C     C_3   0.547314 0.181237 0.989602 -0.326223
H42   H     H_    0.583542 0.227917 0.021469 0.150505
H43   H     H_    0.604951 0.164625 0.964381 0.163432
H44   H     H_    0.536452 0.107565 0.004856 0.192339
O17   O     O_3   0.790235 0.220671 0.530406 -0.646175
C75   C     C_3   0.896143 0.170310 0.551749 0.045993
H45   H     H_    0.931365 0.127306 0.522775 0.144984
H46   H     H_    0.893485 0.118376 0.582494 0.150356
C76   C     C_3   0.971260 0.249685 0.572782 -0.309227
H47   H     H_    0.972288 0.303670 0.542875 0.225446
H48   H     H_    0.939237 0.293199 0.602497 0.230404
C77   C     C_3   0.088730 0.200057 0.593802 -0.948247
H49   H     H_    0.090886 0.146603 0.624483 0.262117
H50   H     H_    0.141233 0.259741 0.608439 0.272356
H51   H     H_    0.122501 0.157908 0.564222 0.288437
O18   O     O_3   0.329249 0.094139 0.535562 -0.638088
C78   C     C_3   0.370197 0.081563 0.587205 -0.322120
H52   H     H_    0.460556 0.057044 0.596551 0.175253
H53   H     H_    0.326992 0.026566 0.602759 0.169570
H54   H     H_    0.354817 0.156024 0.605271 0.210062
O19   O     O_3   0.268964 0.335135 0.411467 -0.622974
C79   C     C_3   0.236604 0.346083 0.359069 0.078037
H55   H     H_    0.303834 0.376110 0.346299 0.183101
H56   H     H_    0.161285 0.401650 0.345529 0.123137
C80   C     C_3   0.222339 0.242015 0.335122 -0.390672
H57   H     H_    0.298650 0.188428 0.348145 0.237560
H58   H     H_    0.154390 0.210174 0.346355 0.215718
C81   C     C_3   0.197620 0.249609 0.278584 -0.918929
H59   H     H_    0.119321 0.300255 0.264627 0.275676
H60   H     H_    0.189664 0.172801 0.262411 0.261115
H61   H     H_    0.265136 0.280145 0.266233 0.279768
O20   O     O_3   0.861888 0.331410 0.396571 -0.627698
C82   C     C_3   0.843827 0.232807 0.408448 0.103729
H62   H     H_    0.778100 0.210145 0.377999 0.197752
H63   H     H_    0.813818 0.229787 0.443095 0.164069
C83   C     C_3   0.947125 0.155687 0.410526 -0.405829
H64   H     H_    0.979720 0.164809 0.376975 0.234757
H65   H     H_    0.010927 0.169565 0.444042 0.225975
C84   C     C_3   0.922564 0.046320 0.411852 -0.955050
H66   H     H_    0.888840 0.033848 0.444517 0.255357
H67   H     H_    0.999557 0.992938 0.414290 0.272375
H68   H     H_    0.862288 0.029547 0.377620 0.270084

loop_
_geom_bond_atom_site_label_1
_geom_bond_atom_site_label_2
_ccdc_geom_bond_type
C10   C27   A    
C58   C62   A    
C21   C26   A    
C24   O14   S    
C71   H35   S    
C82   H63   S    
C82   H62   S    
C77   H51   S    
C1    O5    A    
C76   H47   S    
C84   H67   S    
C53   C54   A    
C83   H64   S    
C8    C66   A    
O5    Zn2   S    
C74   H43   S    
N4    Zn2   S    
C60   O20   S    
O15   C71   S    
C64   H2    S    
C28   C29   A    
C77   H50   S    
C4    C7    A    
C5    C6    A    
C9    C22   A    
C23   O8    A    
C26   N2    S    
C15   C16   A    
C40   O18   S    
C3    N1    S    
C18   C19   A    
C41   C42   A    
C22   H19   S    
C69   H30   S    
C70   H34   S    
C19   N2    A    
C79   C80   S    
C4    C28   A    
C67   H25   S    
O20   C82   S    
C56   N1    A    
C23   O9    A    
C83   H65   S    
C73   H39   S    
C68   H29   S    
C49   O17   S    
C80   H58   S    
C52   N4    A    
O9    Zn2   S    
C8    C12   S    
C78   H53   S    
C70   H33   S    
C43   C48   A    
C83   C84   S    
C1    O1    A    
C72   C73   S    
O7    Zn2   S    
C66   H1    S    
C20   O2    S    
C59   C60   A    
C6    H15   S    
C21   C22   A    
C27   C30   A    
C79   H56   S    
C41   C43   A    
C75   C76   S    
C7    C56   A    
C30   H23   S    
C76   H48   S    
C19   O4    S    
C44   C46   A    
O14   C68   S    
C84   H68   S    
C69   H31   S    
C38   H9    S    
C65   H24   S    
O11   Zn2   S    
C7    C31   A    
C32   O13   S    
C48   H8    S    
C62   H13   S    
C51   C63   A    
C77   H49   S    
C10   C14   A    
C39   C40   A    
C16   C17   A    
C71   C72   S    
C58   C59   A    
C23   C37   S    
C5    C45   A    
C10   C13   A    
C34   O10   A    
O19   C79   S    
C60   C61   A    
C78   H54   S    
C69   C70   S    
C76   C77   S    
C43   C44   A    
C37   C49   A    
C8    C65   A    
C84   H66   S    
C16   C20   A    
C68   C69   S    
C62   N3    A    
C33   O15   S    
C17   C18   A    
C46   H5    S    
O8    Zn1   S    
C46   C47   A    
C39   H10   S    
C24   C25   A    
C37   C48   A    
C67   H27   S    
C70   H32   S    
C2    H7    S    
O1    Zn1   S    
C42   C50   A    
C40   C41   A    
C6    C30   A    
C11   C32   A    
C57   N4    A    
C55   C57   A    
C79   H55   S    
C82   C83   S    
C31   C35   A    
C20   N2    A    
C51   C59   A    
C63   O19   S    
C54   H16   S    
C80   C81   S    
C45   O12   S    
C15   H21   S    
C72   H37   S    
C1    C50   S    
C63   N3    A    
C54   C55   A    
C81   H59   S    
O6    Zn1   S    
C71   H36   S    
C14   C15   A    
C34   O11   A    
C52   H14   S    
C81   H61   S    
C4    C5    A    
C2    C66   A    
C61   H18   S    
C35   O16   S    
C21   H20   S    
C9    C24   A    
C57   C61   A    
C38   C50   A    
C74   H42   S    
C29   C35   A    
C13   C17   A    
C53   H17   S    
C64   C65   A    
C81   H60   S    
C2    C3    A    
C25   C26   A    
C51   H12   S    
C14   H22   S    
C12   O7    A    
C80   H57   S    
O17   C75   S    
C32   C33   A    
C11   C13   A    
C38   C39   A    
C56   O3    S    
C73   H41   S    
C74   H44   S    
C9    C34   S    
C75   H46   S    
C42   C47   A    
C3    C64   A    
C45   N1    A    
C18   C33   A    
C67   H26   S    
C12   O6    A    
C36   C44   A    
C36   H6    S    
C31   H3    S    
O18   C78   S    
C11   C29   A    
C73   H40   S    
C55   C58   A    
C27   C28   A    
C47   H11   S    
C75   H45   S    
O16   C74   S    
C25   H4    S    
C78   H52   S    
O13   C67   S    
O10   Zn1   S    
N3    Zn1   S    
C36   C49   A    
C68   H28   S    
C52   C53   A    
C72   H38   S    
