data_mof_unit_21383.cif
_audit_creation_date              2012-12-10T18:57:51-0500
_audit_creation_method            fapswitch 2.2
_symmetry_space_group_name_H-M    P1
_symmetry_Int_Tables_number       1
_space_group_crystal_system       triclinic
_cell_length_a                    10.621394
_cell_length_b                    9.930212
_cell_length_c                    8.917404
_cell_angle_alpha                 90.000093
_cell_angle_beta                  91.214515
_cell_angle_gamma                 90.000015
_cell_volume                      940.331328046

loop_
_atom_site_label
_atom_site_type_symbol
_atom_type_description
_atom_site_fract_x
_atom_site_fract_y
_atom_site_fract_z
_atom_type_partial_charge
C1    C     C_R   0.260834 0.500000 0.499501 0.896918
C2    C     C_R   0.068867 0.500001 0.638558 0.133742
C3    C     C_R   0.871852 0.500000 0.501044 -0.083158
C4    C     C_R   0.128148 0.500000 0.498956 -0.083158
C5    C     C_R   0.579261 0.071734 0.594074 0.328672
C6    C     C_R   0.420739 0.928266 0.405925 0.328673
C7    C     C_R   0.420739 0.071734 0.405925 0.328672
C8    C     C_R   0.579261 0.928266 0.594074 0.328672
C9    C     C_3   0.130890 0.499999 0.212118 -0.769933
C10   C     C_3   0.869110 0.500001 0.787882 -0.769932
C11   C     C_3   0.851642 0.499999 0.217219 -0.846773
C12   C     C_R   0.739166 0.500000 0.500499 0.896918
C13   C     C_3   0.148358 0.500001 0.782781 -0.846773
C14   C     C_R   0.500543 0.500000 0.218888 0.892953
C15   C     C_R   0.499457 0.500000 0.781112 0.892953
C16   C     C_1   0.500202 0.500000 0.065420 -0.118255
C17   C     C_1   0.499798 0.500000 0.934580 -0.118255
C18   C     C_R   0.062419 0.499999 0.360122 0.173347
C19   C     C_R   0.937581 0.500001 0.639878 0.173348
C20   C     C_R   0.931133 0.499999 0.361442 0.133742
Cl1   Cl    Cl    0.682595 0.158701 0.716769 -0.484254
Cl2   Cl    Cl    0.317405 0.841299 0.283231 -0.484254
Cl3   Cl    Cl    0.317405 0.158700 0.283231 -0.484254
Cl4   Cl    Cl    0.682595 0.841300 0.716769 -0.484254
H1    H     H_    0.234670 0.499998 0.223781 0.232299
H2    H     H_    0.209034 0.408960 0.786615 0.245016
H3    H     H_    0.209035 0.591040 0.786613 0.245016
H4    H     H_    0.093469 0.500003 0.886375 0.242068
H5    H     H_    0.105066 0.408320 0.147171 0.251844
H6    H     H_    0.105067 0.591677 0.147171 0.251843
H7    H     H_    0.765330 0.500001 0.776219 0.232299
H8    H     H_    0.894934 0.408323 0.852829 0.251843
H9    H     H_    0.894934 0.591679 0.852828 0.251843
H10   H     H_    0.790966 0.591040 0.213386 0.245016
H11   H     H_    0.906531 0.499999 0.113625 0.242068
H12   H     H_    0.790965 0.408959 0.213386 0.245016
N1    N     N_R   0.500000 0.857200 0.500000 -0.194286
N2    N     N_R   0.500000 0.142800 0.500000 -0.194285
O1    O     O_R   0.316770 0.614620 0.499990 -0.576513
O2    O     O_R   0.683230 0.385380 0.500010 -0.576513
O3    O     O_R   0.683230 0.614620 0.500010 -0.576513
O4    O     O_R   0.316770 0.385380 0.499990 -0.576513
O5    O     O_R   0.500010 0.614640 0.285340 -0.574687
O6    O     O_R   0.499990 0.385360 0.714660 -0.574688
O7    O     O_R   0.499990 0.614640 0.714660 -0.574688
O8    O     O_R   0.500010 0.385360 0.285340 -0.574688
Zn1   Zn    Zn3+2 0.500000 0.653120 0.500000 1.060923
Zn2   Zn    Zn3+2 0.500000 0.346880 0.500000 1.060923

loop_
_geom_bond_atom_site_label_1
_geom_bond_atom_site_label_2
_ccdc_geom_bond_type
C12   O2    A    
C5    C8    A    
C2    C4    A    
C13   H4    S    
C3    C19   A    
C6    C7    A    
N1    Zn1   S    
C1    O4    A    
N2    Zn2   S    
C9    H5    S    
C10   C19   S    
C1    C4    S    
C4    C18   A    
C14   O5    A    
C11   H11   S    
O3    Zn1   S    
C6    N1    A    
C9    H1    S    
C3    C20   A    
C14   O8    A    
O4    Zn2   S    
C5    N2    A    
C12   O3    A    
C9    H6    S    
C7    Cl3   S    
C11   H12   S    
C8    Cl4   S    
C7    N2    A    
C15   O6    A    
C10   H9    S    
C18   C20   A    
O7    Zn1   S    
C13   H2    S    
C14   C16   S    
C11   C20   S    
C8    N1    A    
C1    O1    A    
C6    Cl2   S    
O8    Zn2   S    
C10   H8    S    
C9    C18   S    
C5    Cl1   S    
O1    Zn1   S    
C15   C17   S    
C2    C13   S    
O2    Zn2   S    
C13   H3    S    
C3    C12   S    
C2    C19   A    
O5    Zn1   S    
C10   H7    S    
C11   H10   S    
O6    Zn2   S    
C16   C17   T    
C15   O7    A    
