data_mof_unit_32337.cif
_audit_creation_date              2012-12-10T17:33:58-0500
_audit_creation_method            fapswitch 2.2
_symmetry_space_group_name_H-M    P1
_symmetry_Int_Tables_number       1
_space_group_crystal_system       triclinic
_cell_length_a                    10.666783
_cell_length_b                    11.984455
_cell_length_c                    12.927068
_cell_angle_alpha                 93.476843
_cell_angle_beta                  89.901814
_cell_angle_gamma                 86.425688
_cell_volume                      1646.26389178

loop_
_atom_site_label
_atom_site_type_symbol
_atom_type_description
_atom_site_fract_x
_atom_site_fract_y
_atom_site_fract_z
_atom_type_partial_charge
C1    C     C_R   0.496647 0.521782 0.700593 0.867003
C2    C     C_R   0.498536 0.441623 0.973975 -0.054480
C3    C     C_R   0.526352 0.544373 0.025498 0.037028
C4    C     C_R   0.742135 0.500696 0.499072 0.982269
C5    C     C_R   0.533985 0.551809 0.132047 -0.292476
C6    C     C_R   0.471953 0.359674 0.137751 0.345259
C7    C     C_R   0.487701 0.345621 0.030083 0.330250
C8    C     C_R   0.348556 0.957549 0.439736 0.397020
C9    C     C_R   0.370908 0.839442 0.438320 -0.140449
C10   C     C_R   0.565944 0.856920 0.523035 0.002858
C11   C     C_R   0.551530 0.974463 0.522698 -0.042120
C12   C     C_3   0.121171 0.501385 0.500202 -0.076567
C13   C     C_R   0.443258 0.025527 0.478962 -0.010395
C14   C     C_R   0.432548 0.143857 0.477290 -0.068658
C15   C     C_R   0.622852 0.159439 0.570575 0.654498
C16   C     C_R   0.500173 0.477486 0.299583 0.950745
C17   C     C_R   0.641291 0.041689 0.568203 -0.411347
C18   C     C_R   0.257685 0.500304 0.502240 0.890949
C19   C     C_3   0.929952 0.436994 0.589906 -0.660324
C20   C     C_3   0.073517 0.436666 0.592378 0.181984
C21   C     C_3   0.931436 0.445241 0.392031 0.790356
C22   C     C_3   0.920633 0.625732 0.513691 0.251715
C23   C     C_3   0.077744 0.450684 0.392580 0.132703
C24   C     C_3   0.878273 0.502315 0.497083 -0.080481
C25   C     C_3   0.296056 0.265730 0.163377 0.019313
C26   C     C_3   0.239818 0.174674 0.221903 -0.714869
C27   C     C_3   0.300922 0.347824 0.823081 0.160735
C28   C     C_3   0.255737 0.233307 0.789686 -0.695697
C29   C     C_3   0.713321 0.204317 0.727226 0.100431
C30   C     C_3   0.776772 0.297783 0.787740 -0.785053
C31   C     C_3   0.131099 0.952016 0.424914 0.077902
C32   C     C_3   0.015788 0.033155 0.423200 -0.779890
C33   C     C_3   0.064253 0.624391 0.515815 -0.511151
C34   C     C_R   0.502294 0.461789 0.188320 -0.196218
C35   C     C_R   0.498154 0.532836 0.812344 -0.207682
C36   C     C_R   0.543478 0.639072 0.970223 -0.156449
C37   C     C_R   0.530903 0.632908 0.863484 -0.278785
C38   C     C_R   0.476048 0.438434 0.868035 0.453531
H1    H     H_    0.900042 0.349797 0.586153 0.282773
H2    H     H_    0.647355 0.816846 0.558606 0.156642
H3    H     H_    0.099716 0.482672 0.665747 0.142106
H4    H     H_    0.122253 0.364753 0.377953 0.074278
H5    H     H_    0.885535 0.660281 0.591088 0.127452
H6    H     H_    0.094576 0.662806 0.591627 0.143684
H7    H     H_    0.901498 0.458672 0.244077 0.369378
H8    H     H_    0.207166 0.499405 0.301298 0.320043
H9    H     H_    0.287016 0.241700 0.079404 0.167481
H10   H     H_    0.239358 0.345687 0.180895 0.148412
H11   H     H_    0.229258 0.202059 0.304770 0.252441
H12   H     H_    0.099471 0.677361 0.455605 0.231800
H13   H     H_    0.145281 0.158391 0.190777 0.203797
H14   H     H_    0.300828 0.096088 0.213366 0.276692
H15   H     H_    0.500953 0.182497 0.030300 0.354960
H16   H     H_    0.261948 0.410257 0.769751 0.135283
H17   H     H_    0.264478 0.370782 0.902980 0.097956
H18   H     H_    0.151452 0.237028 0.789106 0.211210
H19   H     H_    0.291835 0.206437 0.710834 0.271978
H20   H     H_    0.290151 0.170719 0.844644 0.240275
H21   H     H_    0.770164 0.124904 0.737621 0.123396
H22   H     H_    0.618044 0.198446 0.761257 0.209880
H23   H     H_    0.558513 0.630001 0.171326 0.201674
H24   H     H_    0.730354 0.380363 0.771846 0.255588
H25   H     H_    0.770212 0.286008 0.872091 0.223723
H26   H     H_    0.877496 0.296265 0.765640 0.239674
H27   H     H_    0.136137 0.918222 0.503472 0.137205
H28   H     H_    0.118628 0.882714 0.365392 0.159689
H29   H     H_    0.008158 0.070872 0.346899 0.263981
H30   H     H_    0.929918 0.988105 0.436781 0.231676
H31   H     H_    0.022732 0.100562 0.485303 0.241927
H32   H     H_    0.110150 0.284435 0.530382 0.331817
H33   H     H_    0.946960 0.285459 0.424197 0.299841
H34   H     H_    0.566728 0.717534 0.009496 0.153459
H35   H     H_    0.918837 0.688136 0.375435 0.395531
H36   H     H_    0.548133 0.705648 0.820964 0.180002
H37   H     H_    0.351834 0.185671 0.443259 0.187548
H38   H     H_    0.890906 0.477536 0.663877 0.165691
H39   H     H_    0.724375 0.003026 0.602590 0.152327
H40   H     H_    0.303085 0.784626 0.405050 0.142192
N1    N     N_R   0.523380 0.207800 0.519350 -0.139007
N2    N     N_R   0.476620 0.792180 0.480650 -0.117934
O1    O     O_R   0.506240 0.421700 0.658830 -0.552496
O2    O     O_3   0.115799 0.516430 0.312672 -0.767213
O3    O     O_3   0.423168 0.276081 0.192677 -0.593497
O4    O     O_3   0.489546 0.240580 0.979128 -0.751958
O5    O     O_3   0.433349 0.342322 0.818576 -0.564481
O6    O     O_3   0.706866 0.227241 0.621114 -0.604969
O7    O     O_3   0.239011 0.008779 0.401160 -0.643011
O8    O     O_3   0.128217 0.326961 0.595952 -0.766064
O9    O     O_3   0.896200 0.333333 0.378498 -0.785607
O10   O     O_3   0.869432 0.698720 0.440640 -0.727896
O11   O     O_R   0.491240 0.609310 0.646410 -0.643722
O12   O     O_R   0.692710 0.406190 0.506230 -0.557457
O13   O     O_R   0.677700 0.593810 0.493810 -0.589834
O14   O     O_R   0.508760 0.390690 0.353590 -0.562996
O15   O     O_R   0.493760 0.578300 0.341170 -0.625369
O16   O     O_R   0.322300 0.406190 0.506190 -0.608683
O17   O     O_R   0.307290 0.593810 0.493770 -0.644945
O18   O     O_3   0.878729 0.503389 0.309383 -0.721984
Zn1   Zn    Zn3+2 0.510020 0.374730 0.508290 1.043855
Zn2   Zn    Zn3+2 0.489980 0.625270 0.491710 0.956344

loop_
_geom_bond_atom_site_label_1
_geom_bond_atom_site_label_2
_ccdc_geom_bond_type
C31   H28   S    
C37   H36   S    
C8    C13   A    
C23   O2    S    
C30   H26   S    
C18   O16   A    
C19   C20   S    
H32   O8    S    
C20   H3    S    
C28   H18   S    
C27   H16   S    
C21   O9    S    
C28   H19   S    
C12   C23   S    
C23   H4    S    
H15   O4    S    
O14   Zn1   S    
N1    Zn1   S    
C19   H38   S    
C35   C37   A    
H35   O10   S    
H7    O18   S    
C30   H24   S    
C4    C24   S    
C27   H17   S    
C1    O1    A    
O16   Zn1   S    
C15   C17   A    
C27   O5    S    
C2    C7    A    
C16   C34   S    
H8    O2    S    
C11   C17   A    
C29   H21   S    
C8    C9    A    
C18   O17   A    
O11   Zn2   S    
C25   H9    S    
C32   H30   S    
C7    O4    S    
C1    O11   A    
C13   C14   A    
N2    Zn2   S    
C15   N1    A    
C31   O7    S    
C38   O5    S    
C35   C38   A    
C26   H11   S    
C10   N2    A    
O15   Zn2   S    
O1    Zn1   S    
C25   C26   S    
C6    C34   A    
C9    N2    A    
C29   C30   S    
C26   H14   S    
C2    C38   A    
C31   C32   S    
H33   O9    S    
C29   H22   S    
C5    C34   A    
C12   C20   S    
C17   H39   S    
C22   O10   S    
C5    H23   S    
C14   N1    A    
O13   Zn2   S    
C29   O6    S    
C6    C7    A    
C19   H1    S    
C15   O6    S    
C32   H29   S    
C22   C24   S    
O17   Zn2   S    
C1    C35   S    
C31   H27   S    
C22   C33   S    
C36   C37   A    
C16   O15   A    
C6    O3    S    
C33   H6    S    
C3    C5    A    
C32   H31   S    
C28   H20   S    
C16   O14   A    
C8    O7    S    
C14   H37   S    
C21   C23   S    
C2    C3    A    
C33   H12   S    
C26   H13   S    
C21   O18   S    
C11   C13   A    
C3    C36   A    
C20   O8    S    
C19   C24   S    
C9    H40   S    
C10   C11   A    
C4    O13   A    
C21   C24   S    
C12   C18   S    
C27   C28   S    
C25   O3    S    
C10   H2    S    
C12   C33   S    
C30   H25   S    
C25   H10   S    
C22   H5    S    
C36   H34   S    
O12   Zn1   S    
C4    O12   A    
