data_mof_unit_12870.cif
_audit_creation_date              2012-12-11T15:50:34-0500
_audit_creation_method            fapswitch 2.2
_symmetry_space_group_name_H-M    P1
_symmetry_Int_Tables_number       1
_space_group_crystal_system       monoclinic
_cell_length_a                    6.928165
_cell_length_b                    14.555646
_cell_length_c                    16.089648
_cell_angle_alpha                 90.0
_cell_angle_beta                  90.0
_cell_angle_gamma                 90.000062
_cell_volume                      1622.5431302

loop_
_atom_site_label
_atom_site_type_symbol
_atom_type_description
_atom_site_fract_x
_atom_site_fract_y
_atom_site_fract_z
_atom_type_partial_charge
O1    O     O_R   0.638140 0.833910 0.163320 -0.540440
O2    O     O_R   0.361860 0.166090 0.836680 -0.540440
O3    O     O_R   0.361860 0.166090 0.663320 -0.540440
O4    O     O_R   0.638140 0.833910 0.336680 -0.540440
O5    O     O_R   0.138140 0.666090 0.336680 -0.540440
O6    O     O_R   0.861860 0.333910 0.663320 -0.540440
O7    O     O_R   0.861860 0.333910 0.836680 -0.540440
O8    O     O_R   0.138140 0.666090 0.163320 -0.540440
O9    O     O_R   0.308390 0.844930 0.336080 -0.543469
O10   O     O_R   0.691610 0.155070 0.663920 -0.543469
O11   O     O_R   0.691610 0.155070 0.836080 -0.543469
O12   O     O_R   0.308390 0.844930 0.163920 -0.543469
O13   O     O_R   0.808390 0.655070 0.163920 -0.543469
O14   O     O_R   0.191610 0.344930 0.836080 -0.543469
O15   O     O_R   0.191610 0.344930 0.663920 -0.543469
O16   O     O_R   0.808390 0.655070 0.336080 -0.543469
C1    C     C_R   0.477480 0.867189 0.365044 0.687053
C2    C     C_R   0.522520 0.132810 0.634956 0.687053
C3    C     C_R   0.522520 0.132810 0.865044 0.687053
C4    C     C_R   0.477480 0.867189 0.134956 0.687053
C5    C     C_R   0.977479 0.632810 0.134956 0.687053
C6    C     C_R   0.022521 0.367190 0.865044 0.687053
C7    C     C_R   0.022521 0.367190 0.634956 0.687053
C8    C     C_R   0.977479 0.632810 0.365044 0.687053
O17   O     O_3   0.471620 0.691320 0.250000 -0.369491
O18   O     O_3   0.528380 0.308680 0.750000 -0.369491
O19   O     O_3   0.971620 0.808680 0.250000 -0.369490
O20   O     O_3   0.028380 0.191320 0.750000 -0.369490
V1    V     V_3+5 0.196770 0.760880 0.250000 1.399911
V2    V     V_3+5 0.803230 0.239120 0.750000 1.399911
V3    V     V_3+5 0.696770 0.739120 0.250000 1.399911
V4    V     V_3+5 0.303230 0.260880 0.750000 1.399911
C9    C     C_R   0.820523 0.524859 0.467207 -0.156076
C10   C     C_R   0.179477 0.475141 0.532793 -0.156076
C11   C     C_R   0.179477 0.475141 0.967207 -0.156076
C12   C     C_R   0.820523 0.524859 0.032793 -0.156076
C13   C     C_R   0.320528 0.975156 0.032806 -0.156079
C14   C     C_R   0.679472 0.024843 0.967194 -0.156079
C15   C     C_R   0.679472 0.024843 0.532806 -0.156079
C16   C     C_R   0.320528 0.975156 0.467194 -0.156079
C17   C     C_R   0.831672 0.461281 0.532386 -0.150686
C18   C     C_R   0.168328 0.538719 0.467614 -0.150686
C19   C     C_R   0.168328 0.538719 0.032386 -0.150686
C20   C     C_R   0.831672 0.461281 0.967614 -0.150686
C21   C     C_R   0.331677 0.038734 0.967626 -0.150687
C22   C     C_R   0.668323 0.961266 0.032374 -0.150687
C23   C     C_R   0.668323 0.961266 0.467626 -0.150687
C24   C     C_R   0.331677 0.038734 0.532374 -0.150687
C25   C     C_R   0.011305 0.435528 0.566135 -0.047064
C26   C     C_R   0.988695 0.564472 0.433865 -0.047065
C27   C     C_R   0.988695 0.564472 0.066135 -0.047064
C28   C     C_R   0.011305 0.435528 0.933865 -0.047065
C29   C     C_R   0.511304 0.064472 0.933865 -0.047066
C30   C     C_R   0.488696 0.935528 0.066135 -0.047066
C31   C     C_R   0.488696 0.935528 0.433865 -0.047066
C32   C     C_R   0.511304 0.064472 0.566135 -0.047066
H1    H     H_    0.679741 0.542945 0.443018 0.116758
H2    H     H_    0.320259 0.457054 0.556982 0.116758
H3    H     H_    0.320259 0.457054 0.943018 0.116758
H4    H     H_    0.679741 0.542945 0.056982 0.116758
H5    H     H_    0.179750 0.957082 0.057005 0.116764
H6    H     H_    0.820250 0.042918 0.942995 0.116764
H7    H     H_    0.820250 0.042918 0.557005 0.116764
H8    H     H_    0.179750 0.957082 0.442995 0.116764
H9    H     H_    0.698918 0.432193 0.556214 0.118713
H10   H     H_    0.301082 0.567807 0.443786 0.118713
H11   H     H_    0.301082 0.567807 0.056214 0.118713
H12   H     H_    0.698918 0.432193 0.943786 0.118713
H13   H     H_    0.198927 0.067835 0.943809 0.118714
H14   H     H_    0.801073 0.932165 0.056191 0.118714
H15   H     H_    0.801073 0.932165 0.443809 0.118714
H16   H     H_    0.198927 0.067835 0.556191 0.118714

loop_
_geom_bond_atom_site_label_1
_geom_bond_atom_site_label_2
_ccdc_geom_bond_type
O17   V3    S    
O18   V4    S    
O12   V1    S    
O19   V1    S    
C10   C18   A    
C19   C27   A    
O15   V4    S    
O16   V3    S    
O5    C8    A    
O11   C3    A    
O8    V1    S    
O2    V4    S    
C6    C28   S    
C7    C25   S    
O1    V3    S    
O3    C2    A    
C11   H3    S    
C16   C24   A    
O11   V2    S    
C10   C25   A    
C11   C19   A    
C1    C31   S    
O9    V1    S    
C3    C29   S    
O15   C7    A    
C21   C29   A    
O16   C8    A    
O7    V2    S    
O17   V1    S    
O12   C4    A    
C24   H16   S    
C17   C25   A    
O5    V1    S    
C8    C26   S    
C22   H14   S    
C21   H13   S    
O20   V4    S    
C4    C30   S    
C17   H9    S    
C9    C26   A    
C15   C23   A    
O19   V3    S    
O10   V2    S    
C15   C32   A    
C16   C31   A    
C22   C30   A    
O8    C5    A    
O13   C5    A    
C10   H2    S    
C23   H15   S    
C12   C27   A    
C18   C26   A    
C13   C30   A    
O9    C1    A    
O6    V2    S    
O18   V2    S    
C12   C20   A    
O4    C1    A    
C13   C21   A    
C5    C27   S    
C23   C31   A    
C24   C32   A    
O1    C4    A    
C9    H1    S    
O2    C3    A    
O13   V3    S    
O14   V4    S    
C12   H4    S    
C13   H5    S    
C2    C32   S    
O7    C6    A    
C15   H7    S    
C16   H8    S    
C9    C17   A    
O14   C6    A    
O20   V2    S    
C20   C28   A    
C14   C29   A    
O10   C2    A    
O6    C7    A    
O3    V4    S    
C14   C22   A    
O4    V3    S    
C20   H12   S    
C19   H11   S    
C11   C28   A    
C18   H10   S    
C14   H6    S    
