data_mof_unit_7583.cif
_audit_creation_date              2012-12-11T14:21:09-0500
_audit_creation_method            fapswitch 2.2
_symmetry_space_group_name_H-M    P1
_symmetry_Int_Tables_number       1
_space_group_crystal_system       triclinic
_cell_length_a                    22.031867
_cell_length_b                    7.201767
_cell_length_c                    14.925529
_cell_angle_alpha                 90.541698
_cell_angle_beta                  107.080508
_cell_angle_gamma                 90.187706
_cell_volume                      2263.60820624

loop_
_atom_site_label
_atom_site_type_symbol
_atom_type_description
_atom_site_fract_x
_atom_site_fract_y
_atom_site_fract_z
_atom_type_partial_charge
O1    O     O_R   0.584770 0.505770 0.002090 -0.529106
O2    O     O_R   0.415230 0.005770 0.997910 -0.529268
O3    O     O_R   0.467060 0.173340 0.861950 -0.529805
O4    O     O_R   0.532940 0.673340 0.138050 -0.537922
C1    C     C_R   0.455227 0.343200 0.825823 0.714958
C2    C     C_R   0.544623 0.845423 0.174051 0.712798
O5    O     O_R   0.587510 0.175890 0.993210 -0.551635
O6    O     O_R   0.412490 0.675890 0.006790 -0.554301
O7    O     O_R   0.536540 0.008150 0.130100 -0.545636
O8    O     O_R   0.463460 0.508150 0.869900 -0.544085
C3    C     C_R   0.612095 0.345670 0.994495 0.745239
C4    C     C_R   0.387933 0.845309 0.005479 0.748864
O9    O     O_3   0.483140 0.340040 0.044760 -0.380164
O10   O     O_3   0.516860 0.840040 0.955240 -0.375153
V1    V     V_3+5 0.503130 0.064190 0.991700 1.458566
V2    V     V_3+5 0.496870 0.564190 0.008300 1.447418
C5    C     C_2   0.215886 0.732169 0.005147 0.235273
C6    C     C_2   0.783248 0.232047 0.991322 0.229627
C7    C     C_2   0.177727 0.883258 0.986487 -0.293272
C8    C     C_2   0.822327 0.382215 0.013419 -0.295349
H1    H     H_    0.193589 0.006135 0.958357 0.096122
H2    H     H_    0.807284 0.503755 0.044297 0.091016
C9    C     C_2   0.279426 0.731653 0.988500 -0.247782
C10   C     C_2   0.719740 0.230567 0.008084 -0.248890
C11   C     C_2   0.324846 0.863148 0.020562 0.059058
C12   C     C_2   0.675327 0.364165 0.979775 0.052341
H3    H     H_    0.290883 0.608999 0.953851 0.119733
H4    H     H_    0.707446 0.105881 0.039510 0.120401
C13   C     C_R   0.927124 0.879825 0.724109 -0.023786
C14   C     C_R   0.072904 0.393359 0.276327 -0.036405
C15   C     C_R   0.572565 0.858531 0.275764 -0.038849
C16   C     C_R   0.427453 0.345863 0.723821 -0.044594
C17   C     C_R   0.936611 0.805785 0.571145 -0.140475
C18   C     C_R   0.064993 0.462981 0.430703 -0.158213
C19   C     C_R   0.964488 0.831926 0.666855 -0.196794
C20   C     C_R   0.036715 0.445338 0.334649 -0.164927
C21   C     C_R   0.861641 0.900418 0.685953 -0.192306
C22   C     C_R   0.137748 0.359537 0.314036 -0.187460
C23   C     C_R   0.831433 0.870200 0.589051 0.031967
C24   C     C_R   0.168571 0.382005 0.411364 0.050247
C25   C     C_R   0.870398 0.823615 0.531138 0.124695
C26   C     C_R   0.130762 0.434239 0.470197 0.077612
C27   C     C_R   0.764059 0.882317 0.548628 0.051713
C28   C     C_R   0.235622 0.357959 0.451331 0.052142
C29   C     C_R   0.736548 0.850571 0.450311 0.035037
C30   C     C_R   0.263979 0.385241 0.549851 0.008644
C31   C     C_R   0.777195 0.805843 0.395675 -0.227373
C32   C     C_R   0.224470 0.436024 0.605222 -0.168688
C33   C     C_R   0.842944 0.792521 0.434604 0.183939
C34   C     C_R   0.159426 0.459946 0.567110 0.171199
C35   C     C_R   0.723142 0.923437 0.603527 -0.168745
C36   C     C_R   0.275420 0.308785 0.395866 -0.168087
C37   C     C_R   0.657962 0.934500 0.564090 -0.189630
C38   C     C_R   0.340267 0.286398 0.434871 -0.182918
C39   C     C_R   0.630472 0.906596 0.468363 0.104268
C40   C     C_R   0.368477 0.310291 0.530724 0.107958
C41   C     C_R   0.669068 0.864344 0.409802 0.102409
C42   C     C_R   0.331068 0.360366 0.589880 0.100556
C43   C     C_R   0.564345 0.922572 0.430906 -0.199770
C44   C     C_R   0.434033 0.281173 0.567776 -0.198183
C45   C     C_R   0.535017 0.900385 0.334547 0.195080
C46   C     C_R   0.463813 0.296881 0.664299 0.202228
C47   C     C_R   0.638342 0.839963 0.312792 -0.274153
C48   C     C_R   0.362381 0.379512 0.687064 -0.273171
H5    H     H_    0.663852 0.810614 0.262917 0.104162
H6    H     H_    0.337555 0.413361 0.737279 0.105013
H7    H     H_    0.628720 0.966484 0.609274 0.128149
H8    H     H_    0.368621 0.247979 0.389300 0.124481
H9    H     H_    0.967293 0.768520 0.529011 0.141941
H10   H     H_    0.034899 0.503275 0.473148 0.126139
H11   H     H_    0.015220 0.813339 0.696446 0.113246
H12   H     H_    0.986559 0.474346 0.305556 0.120170
H13   H     H_    0.835961 0.936331 0.734795 0.102436
H14   H     H_    0.162729 0.322663 0.264445 0.098673
H15   H     H_    0.759347 0.779339 0.321593 0.120131
H16   H     H_    0.242522 0.460338 0.679569 0.144164
H17   H     H_    0.739566 0.947574 0.677983 0.120487
H18   H     H_    0.258304 0.285759 0.321371 0.119430
H19   H     H_    0.535591 0.955062 0.476729 0.112433
H20   H     H_    0.461888 0.242747 0.521517 0.110065
O11   O     O_R   0.036450 0.233070 0.130130 -0.541416
O12   O     O_R   0.963550 0.733070 0.869870 -0.539282
O13   O     O_R   0.912470 0.560570 0.006790 -0.552597
O14   O     O_R   0.087530 0.060570 0.993210 -0.552208
C49   C     C_R   0.887339 0.391071 0.003669 0.751045
C50   C     C_R   0.112647 0.891451 0.996195 0.750723
O15   O     O_R   0.032920 0.562940 0.138050 -0.538854
O16   O     O_R   0.967080 0.062940 0.861950 -0.538928
O17   O     O_R   0.084790 0.730500 0.002090 -0.507455
O18   O     O_R   0.915210 0.230500 0.997910 -0.509827
C51   C     C_R   0.044845 0.395573 0.174605 0.684027
C52   C     C_R   0.955281 0.893265 0.825524 0.689376
O19   O     O_3   0.016820 0.396170 0.955260 -0.374725
O20   O     O_3   0.983180 0.896170 0.044740 -0.378215
V3    V     V_3+5 0.996880 0.672090 0.008300 1.457623
V4    V     V_3+5 0.003120 0.172090 0.991700 1.455666
N1    N     N_3   0.194750 0.563472 0.037169 -0.628543
H21   H     H_    0.227955 0.528288 0.100526 0.219535
H22   H     H_    0.194811 0.458263 0.988440 0.219838
N2    N     N_3   0.803286 0.065417 0.955067 -0.633131
H23   H     H_    0.769846 0.033663 0.890880 0.218354
H24   H     H_    0.802544 0.957526 0.001126 0.216746
N3    N     N_3   0.315772 0.020464 0.075318 -0.665718
H25   H     H_    0.295258 0.977555 0.126642 0.242854
H26   H     H_    0.286913 0.117729 0.031632 0.225630
N4    N     N_3   0.685500 0.524358 0.928931 -0.666582
H27   H     H_    0.705938 0.484522 0.876779 0.242587
H28   H     H_    0.714748 0.619685 0.975062 0.225194
N5    N     N_3   0.882223 0.745941 0.375783 -0.689162
H29   H     H_    0.906316 0.866802 0.367380 0.225215
H30   H     H_    0.854635 0.704542 0.308831 0.224248
N6    N     N_3   0.123675 0.512708 0.629557 -0.680186
H31   H     H_    0.088728 0.411989 0.625945 0.231305
H32   H     H_    0.101944 0.640314 0.608367 0.225668
N7    N     N_3   0.467421 0.919665 0.295991 -0.671400
H33   H     H_    0.459123 0.040068 0.255707 0.234048
H34   H     H_    0.446273 0.940277 0.349499 0.225674
N8    N     N_3   0.530523 0.260421 0.702594 -0.668210
H35   H     H_    0.552841 0.385527 0.730064 0.224428
H36   H     H_    0.549980 0.219087 0.649601 0.221317

loop_
_geom_bond_atom_site_label_1
_geom_bond_atom_site_label_2
_ccdc_geom_bond_type
C47   H5    S    
O4    V2    S    
O15   C51   A    
C15   C45   A    
C18   C26   A    
C7    C50   S    
O2    C4    A    
C12   N4    S    
C2    O7    A    
N6    H32   S    
N1    H21   S    
C23   C25   A    
O5    C3    A    
C29   C41   A    
C5    C9    S    
C6    C10   S    
C7    H1    S    
O14   C50   A    
C39   C43   A    
N5    H30   S    
C38   H8    S    
N4    H27   S    
N7    H33   S    
O12   C52   A    
C14   C22   A    
C44   C46   A    
O14   V4    S    
C29   C31   A    
C32   H16   S    
N8    H35   S    
C5    C7    D    
O16   C52   A    
C36   C38   A    
N7    H34   S    
O15   V3    S    
C45   N7    S    
C9    H3    S    
C18   H10   S    
C18   C20   A    
C17   H9    S    
C1    C16   S    
C28   C36   A    
C32   C34   A    
C2    C15   S    
C19   H11   S    
O6    V2    S    
C30   C42   A    
C6    N2    S    
C36   H18   S    
C25   C33   A    
N6    H31   S    
N1    H22   S    
C28   C30   A    
C41   C47   A    
C30   C32   A    
C37   C39   A    
C42   C48   A    
C38   C40   A    
C43   C45   A    
C15   C47   A    
C16   C48   A    
C31   C33   A    
C43   H19   S    
O11   V4    S    
C11   N3    S    
C23   C27   A    
O5    V1    S    
C3    C12   S    
C40   C44   A    
O16   V4    S    
C35   C37   A    
C48   H6    S    
O17   V3    S    
C35   H17   S    
O6    C4    A    
O13   V3    S    
C8    C49   S    
N2    H24   S    
N3    H26   S    
O1    V2    S    
O2    V1    S    
C27   C29   A    
C26   C34   A    
O4    C2    A    
O13   C49   A    
C8    H2    S    
O19   V4    S    
C39   C41   A    
O3    V1    S    
C33   N5    S    
C22   H14   S    
C21   H13   S    
C44   H20   S    
O12   V3    S    
C10   H4    S    
C10   C12   D    
C14   C51   S    
O3    C1    A    
C50   O17   A    
C49   O18   A    
O18   V4    S    
C13   C19   A    
C14   C20   A    
C4    C11   S    
C17   C25   A    
C34   N6    S    
O7    V1    S    
C31   H15   S    
C1    O8    A    
C21   C23   A    
O8    V2    S    
N5    H29   S    
C22   C24   A    
C27   C35   A    
N4    H28   S    
C24   C26   A    
N2    H23   S    
C17   C19   A    
C40   C42   A    
C6    C8    D    
C9    C11   D    
O20   V3    S    
C37   H7    S    
N8    H36   S    
C46   N8    S    
C16   C46   A    
O11   C51   A    
C24   C28   A    
O9    V2    S    
C13   C21   A    
N3    H25   S    
O10   V1    S    
O1    C3    A    
C5    N1    S    
C13   C52   S    
C20   H12   S    
