data_mof_unit_63651.cif
_audit_creation_date              2012-12-10T19:50:16-0500
_audit_creation_method            fapswitch 2.2
_symmetry_space_group_name_H-M    P1
_symmetry_Int_Tables_number       1
_space_group_crystal_system       triclinic
_cell_length_a                    36.869498
_cell_length_b                    18.267291
_cell_length_c                    18.268848
_cell_angle_alpha                 89.761191
_cell_angle_beta                  120.040246
_cell_angle_gamma                 89.872501
_cell_volume                      10651.1803164

loop_
_atom_site_label
_atom_site_type_symbol
_atom_type_description
_atom_site_fract_x
_atom_site_fract_y
_atom_site_fract_z
_atom_type_partial_charge
C1    C     C_R   0.500094 0.000128 0.358869 0.934170
C2    C     C_R   0.499906 0.999872 0.641131 0.934176
C3    C     C_R   0.000094 0.500128 0.358869 0.934172
C4    C     C_R   0.999906 0.499872 0.641131 0.934175
C5    C     C_1   0.836949 0.000159 0.833935 -0.062258
C6    C     C_1   0.163051 0.999842 0.166064 -0.062259
C7    C     C_1   0.336949 0.500159 0.833935 -0.062258
C8    C     C_1   0.663051 0.499843 0.166065 -0.062259
C9    C     C_1   0.663052 0.999169 0.660455 -0.003004
C10   C     C_1   0.336947 0.000832 0.339541 -0.003002
C11   C     C_1   0.163052 0.499168 0.660458 -0.003001
C12   C     C_1   0.836947 0.500832 0.339542 -0.003003
C13   C     C_1   0.625590 0.999463 0.624440 -0.202902
C14   C     C_1   0.374410 0.000537 0.375558 -0.202901
C15   C     C_1   0.125590 0.499463 0.624441 -0.202901
C16   C     C_1   0.874410 0.500537 0.375559 -0.202900
C17   C     C_1   0.500248 0.000350 0.282613 -0.197447
C18   C     C_1   0.499752 0.999650 0.717386 -0.197445
C19   C     C_1   0.000248 0.500350 0.282614 -0.197447
C20   C     C_1   0.999752 0.499650 0.717386 -0.197445
C21   C     C_1   0.500287 0.000293 0.217907 -0.193910
C22   C     C_1   0.499713 0.999706 0.782093 -0.193909
C23   C     C_1   0.000287 0.500293 0.217907 -0.193910
C24   C     C_1   0.999713 0.499706 0.782093 -0.193909
C25   C     C_R   0.000124 0.141044 0.999994 0.935866
C26   C     C_R   0.999876 0.858956 0.000006 0.935868
C27   C     C_R   0.500124 0.641044 0.999994 0.935865
C28   C     C_R   0.499876 0.358956 0.000006 0.935867
C29   C     C_R   0.918815 0.000548 0.918512 0.911051
C30   C     C_R   0.081185 0.999452 0.081487 0.911048
C31   C     C_R   0.418815 0.500548 0.918512 0.911050
C32   C     C_R   0.581185 0.499452 0.081487 0.911048
C33   C     C_R   0.500093 0.858716 0.999984 0.935380
C34   C     C_R   0.499907 0.141284 0.000016 0.935381
C35   C     C_R   0.000093 0.358716 0.999984 0.935380
C36   C     C_R   0.999907 0.641284 0.000016 0.935382
C37   C     C_R   0.500104 0.000095 0.141311 0.935682
C38   C     C_R   0.499896 0.999904 0.858689 0.935682
C39   C     C_R   0.000104 0.500096 0.141311 0.935683
C40   C     C_R   0.999896 0.499904 0.858689 0.935682
C41   C     C_1   0.000262 0.217493 0.999900 -0.197636
C42   C     C_1   0.999738 0.782507 0.000100 -0.197636
C43   C     C_1   0.500262 0.717493 0.999900 -0.197636
C44   C     C_1   0.499738 0.282507 0.000100 -0.197636
C45   C     C_R   0.581191 0.999834 0.581211 0.903401
C46   C     C_R   0.418809 0.000166 0.418788 0.903401
C47   C     C_R   0.081191 0.499834 0.581211 0.903401
C48   C     C_R   0.918809 0.500166 0.418789 0.903402
C49   C     C_1   0.500273 0.782262 0.999961 -0.197061
C50   C     C_1   0.499727 0.217737 0.000038 -0.197064
C51   C     C_1   0.000273 0.282262 0.999961 -0.197062
C52   C     C_1   0.999727 0.717738 0.000038 -0.197066
C53   C     C_3   0.724894 0.027282 0.644882 0.328131
C54   C     C_3   0.275106 0.972796 0.355143 0.328133
C55   C     C_3   0.274497 0.080508 0.265468 0.315913
C56   C     C_3   0.725503 0.919481 0.734448 0.315916
C57   C     C_3   0.224894 0.527230 0.644866 0.328133
C58   C     C_3   0.775106 0.472819 0.355150 0.328133
C59   C     C_3   0.774497 0.580505 0.265446 0.315911
C60   C     C_3   0.225503 0.419489 0.734503 0.315916
C61   C     C_3   0.774225 0.917995 0.771461 -0.139554
C62   C     C_3   0.225774 0.082005 0.228456 -0.139554
C63   C     C_3   0.226013 0.963455 0.302650 -0.157107
C64   C     C_3   0.773987 0.036618 0.697383 -0.157104
C65   C     C_3   0.274225 0.417996 0.771516 -0.139554
C66   C     C_3   0.725774 0.582006 0.228433 -0.139556
C67   C     C_3   0.726013 0.463476 0.302661 -0.157109
C68   C     C_3   0.273987 0.536570 0.697361 -0.157108
C69   C     C_1   0.874420 0.000810 0.873075 -0.205993
C70   C     C_1   0.125580 0.999190 0.126925 -0.205991
C71   C     C_1   0.374420 0.500810 0.873075 -0.205991
C72   C     C_1   0.625580 0.499191 0.126925 -0.205991
C73   C     C_3   0.708787 0.998881 0.704434 0.130496
C74   C     C_3   0.291213 0.001121 0.295562 0.130498
C75   C     C_3   0.208787 0.498880 0.704437 0.130501
C76   C     C_3   0.791213 0.501122 0.295562 0.130498
C77   C     C_3   0.791124 0.999075 0.786517 0.154801
C78   C     C_3   0.208876 0.000927 0.213480 0.154800
C79   C     C_3   0.291124 0.499073 0.786519 0.154801
C80   C     C_3   0.708876 0.500929 0.213480 0.154801
C81   C     C_3   0.774007 0.041521 0.836505 -0.428128
C82   C     C_3   0.225993 0.958415 0.163534 -0.428131
C83   C     C_3   0.274007 0.541563 0.836479 -0.428135
C84   C     C_3   0.725993 0.458397 0.163546 -0.428133
C85   C     C_3   0.725926 0.049208 0.782929 -0.354620
C86   C     C_3   0.274074 0.950732 0.217118 -0.354621
C87   C     C_3   0.225925 0.549247 0.782897 -0.354624
C88   C     C_3   0.774075 0.450716 0.217133 -0.354617
H1    H     H_    0.787494 0.005750 0.664007 0.108306
H2    H     H_    0.212505 0.994367 0.335995 0.108308
H3    H     H_    0.221077 0.104932 0.279615 0.087772
H4    H     H_    0.778924 0.895122 0.720279 0.087774
H5    H     H_    0.287495 0.505673 0.664007 0.108309
H6    H     H_    0.712505 0.494402 0.335997 0.108307
H7    H     H_    0.721077 0.604949 0.279586 0.087773
H8    H     H_    0.278924 0.395087 0.720350 0.087775
H9    H     H_    0.718549 0.983200 0.597559 0.008154
H10   H     H_    0.281449 0.016920 0.402419 0.008153
H11   H     H_    0.288584 0.116748 0.322398 0.022423
H12   H     H_    0.711416 0.883284 0.677481 0.022417
H13   H     H_    0.218550 0.483120 0.597575 0.008154
H14   H     H_    0.781449 0.516954 0.402415 0.008155
H15   H     H_    0.788584 0.616758 0.322365 0.022424
H16   H     H_    0.211416 0.383264 0.677561 0.022421
H17   H     H_    0.717388 0.107202 0.762506 0.194027
H18   H     H_    0.282612 0.892751 0.237600 0.194024
H19   H     H_    0.288243 0.964696 0.177513 0.209380
H20   H     H_    0.711758 0.035190 0.822522 0.209378
H21   H     H_    0.217388 0.607232 0.762436 0.194025
H22   H     H_    0.782612 0.392738 0.237631 0.194023
H23   H     H_    0.788243 0.464664 0.177524 0.209380
H24   H     H_    0.211757 0.535266 0.822498 0.209381
H25   H     H_    0.788270 0.096836 0.854469 0.168261
H26   H     H_    0.211730 0.903097 0.145624 0.168258
H27   H     H_    0.217582 0.987627 0.103565 0.199813
H28   H     H_    0.782419 0.012259 0.896447 0.199807
H29   H     H_    0.288270 0.596880 0.854407 0.168260
H30   H     H_    0.711730 0.403078 0.145651 0.168258
H31   H     H_    0.717582 0.487595 0.103569 0.199815
H32   H     H_    0.282418 0.512334 0.896438 0.199813
O1    O     O_R   0.500010 0.060620 0.392670 -0.620770
O2    O     O_R   0.499990 0.939380 0.607330 -0.620764
O3    O     O_R   0.499990 0.060620 0.607330 -0.620181
O4    O     O_R   0.500010 0.939380 0.392670 -0.620181
O5    O     O_R   0.000010 0.560620 0.392670 -0.620769
O6    O     O_R   0.999990 0.439380 0.607330 -0.620765
O7    O     O_R   0.999990 0.560620 0.607330 -0.620182
O8    O     O_R   0.000010 0.439380 0.392670 -0.620182
O9    O     O_R   0.561430 0.060620 0.561430 -0.610239
O10   O     O_R   0.438570 0.939380 0.438570 -0.610235
O11   O     O_R   0.438570 0.060620 0.438570 -0.627420
O12   O     O_R   0.561430 0.939380 0.561430 -0.627416
O13   O     O_R   0.061430 0.560620 0.561430 -0.610236
O14   O     O_R   0.938570 0.439380 0.438570 -0.610234
O15   O     O_R   0.938570 0.560620 0.438570 -0.627422
O16   O     O_R   0.061430 0.439380 0.561430 -0.627419
O17   O     O_R   1.000000 0.107140 0.939380 -0.620447
O18   O     O_R   1.000000 0.892860 0.060620 -0.620448
O19   O     O_R   1.000000 0.107140 0.060620 -0.620409
O20   O     O_R   1.000000 0.892860 0.939380 -0.620408
O21   O     O_R   0.500000 0.607140 0.939380 -0.620446
O22   O     O_R   0.500000 0.392860 0.060620 -0.620449
O23   O     O_R   0.500000 0.607140 0.060620 -0.620409
O24   O     O_R   0.500000 0.392860 0.939380 -0.620407
O25   O     O_R   0.938580 1.000000 0.877970 -0.621818
O26   O     O_R   0.061420 0.000000 0.122030 -0.621816
O27   O     O_R   0.438580 0.500000 0.877970 -0.621818
O28   O     O_R   0.561420 0.500000 0.122030 -0.621816
O29   O     O_R   0.938570 1.000000 0.999140 -0.616923
O30   O     O_R   0.061430 1.000000 0.000860 -0.616922
O31   O     O_R   0.438570 0.500000 0.999140 -0.616923
O32   O     O_R   0.561430 0.500000 0.000860 -0.616922
O33   O     O_R   0.534690 0.892630 0.034650 -0.625135
O34   O     O_R   0.465310 0.107370 0.965350 -0.625137
O35   O     O_R   0.465310 0.892630 0.965350 -0.621401
O36   O     O_R   0.534690 0.107370 0.034650 -0.621401
O37   O     O_R   0.034690 0.392630 0.034650 -0.625136
O38   O     O_R   0.965310 0.607370 0.965350 -0.625139
O39   O     O_R   0.965310 0.392630 0.965350 -0.621401
O40   O     O_R   0.034690 0.607370 0.034650 -0.621401
O41   O     O_R   0.534680 0.000000 0.141990 -0.625536
O42   O     O_R   0.465320 1.000000 0.858010 -0.625536
O43   O     O_R   0.034680 0.500000 0.141990 -0.625536
O44   O     O_R   0.965320 0.500000 0.858010 -0.625536
O45   O     O_R   0.465320 1.000000 0.072630 -0.619354
O46   O     O_R   0.534680 1.000000 0.927370 -0.619355
O47   O     O_R   0.965320 0.500000 0.072630 -0.619353
O48   O     O_R   0.034680 0.500000 0.927370 -0.619355
Zn1   Zn    Zn3+2 0.500000 0.080950 0.500000 0.957095
Zn2   Zn    Zn3+2 0.500000 0.919050 0.500000 0.957101
Zn3   Zn    Zn3+2 0.000000 0.580950 0.500000 0.957096
Zn4   Zn    Zn3+2 0.000000 0.419050 0.500000 0.957101
Zn5   Zn    Zn3+2 0.000010 1.000000 0.919080 0.955224
Zn6   Zn    Zn3+2 0.999990 0.000000 0.080920 0.955225
Zn7   Zn    Zn3+2 0.500010 0.500000 0.919080 0.955225
Zn8   Zn    Zn3+2 0.499990 0.500000 0.080920 0.955224
Zn9   Zn    Zn3+2 0.546310 1.000000 0.046300 0.953038
Zn10  Zn    Zn3+2 0.453690 1.000000 0.953700 0.953038
Zn11  Zn    Zn3+2 0.046310 0.500000 0.046300 0.953038
Zn12  Zn    Zn3+2 0.953690 0.500000 0.953700 0.953038
O49   O     O_3   0.715096 0.897385 0.796572 -0.589775
C89   C     C_3   0.687143 0.837763 0.768075 -0.341707
H33   H     H_    0.701555 0.789168 0.755918 0.151220
H34   H     H_    0.657179 0.852607 0.710351 0.177021
H35   H     H_    0.679875 0.822663 0.818194 0.197559
O50   O     O_3   0.284903 0.102530 0.203322 -0.589776
C90   C     C_3   0.312856 0.162153 0.231757 -0.341715
H36   H     H_    0.342821 0.147336 0.289494 0.177017
H37   H     H_    0.298444 0.210774 0.243867 0.151228
H38   H     H_    0.320123 0.177194 0.181622 0.197562
O51   O     O_3   0.295536 0.905652 0.394166 -0.588333
C91   C     C_3   0.322349 0.914064 0.482131 -0.322974
H39   H     H_    0.304558 0.931484 0.513494 0.143790
H40   H     H_    0.347690 0.953872 0.495819 0.165130
H41   H     H_    0.337236 0.860447 0.509616 0.196904
O52   O     O_3   0.704465 0.094446 0.605927 -0.588332
C92   C     C_3   0.677651 0.086097 0.517953 -0.322962
H42   H     H_    0.652310 0.046278 0.504225 0.165134
H43   H     H_    0.695441 0.068726 0.486571 0.143791
H44   H     H_    0.662765 0.139728 0.490523 0.196902
O53   O     O_3   0.215097 0.397442 0.796642 -0.589777
C93   C     C_3   0.187143 0.337820 0.768186 -0.341721
H45   H     H_    0.201556 0.289209 0.756059 0.151228
H46   H     H_    0.157179 0.352646 0.710454 0.177020
H47   H     H_    0.179877 0.322757 0.818315 0.197563
O54   O     O_3   0.784902 0.602506 0.203292 -0.589775
C94   C     C_3   0.812856 0.662128 0.231709 -0.341708
H48   H     H_    0.842821 0.647319 0.289451 0.177014
H49   H     H_    0.798445 0.710758 0.243806 0.151228
H50   H     H_    0.820123 0.677153 0.181570 0.197563
O55   O     O_3   0.795536 0.405679 0.394193 -0.588332
C95   C     C_3   0.822350 0.414108 0.482155 -0.322984
H51   H     H_    0.804558 0.431540 0.513513 0.143791
H52   H     H_    0.847689 0.453914 0.495832 0.165130
H53   H     H_    0.837237 0.360495 0.509655 0.196902
O56   O     O_3   0.204464 0.594380 0.605865 -0.588334
C96   C     C_3   0.177650 0.585989 0.517898 -0.322974
H54   H     H_    0.152310 0.546176 0.504197 0.165130
H55   H     H_    0.195441 0.568587 0.486529 0.143793
H56   H     H_    0.162763 0.639609 0.490431 0.196906
C97   C     C_3   0.798083 0.865224 0.849138 -0.291693
C98   C     C_3   0.832980 0.821278 0.845958 -0.419794
C99   C     C_3   0.859984 0.779395 0.928361 -0.858853
H57   H     H_    0.875895 0.818158 0.981853 0.264305
H58   H     H_    0.840401 0.741161 0.941170 0.258414
H59   H     H_    0.884266 0.747258 0.923407 0.260040
H60   H     H_    0.818540 0.781502 0.793115 0.216068
H61   H     H_    0.853543 0.857519 0.834039 0.237660
H62   H     H_    0.811291 0.896361 0.909108 0.212654
H63   H     H_    0.776594 0.823866 0.851069 0.231436
C100  C     C_3   0.201917 0.134723 0.150728 -0.291699
C101  C     C_3   0.167020 0.178707 0.153867 -0.419781
C102  C     C_3   0.140014 0.220533 0.071422 -0.858853
H64   H     H_    0.159596 0.258733 0.058569 0.258415
H65   H     H_    0.124101 0.181730 0.017971 0.264313
H66   H     H_    0.115733 0.252701 0.076346 0.260034
H67   H     H_    0.146458 0.142499 0.165826 0.237654
H68   H     H_    0.181461 0.218523 0.206668 0.216071
H69   H     H_    0.223405 0.176057 0.148755 0.231436
H70   H     H_    0.188707 0.103540 0.090789 0.212659
C103  C     C_3   0.211326 0.882332 0.296579 -0.282947
C104  C     C_3   0.209988 0.857644 0.375787 -0.335239
C105  C     C_3   0.198972 0.776679 0.371401 -0.897660
H71   H     H_    0.167812 0.766103 0.315143 0.260780
H72   H     H_    0.223020 0.742561 0.367862 0.266555
H73   H     H_    0.197950 0.760715 0.429073 0.255007
H74   H     H_    0.240613 0.866508 0.433627 0.252410
H75   H     H_    0.186039 0.890375 0.381372 0.205590
H76   H     H_    0.179207 0.875546 0.241959 0.182421
H77   H     H_    0.231805 0.845070 0.285092 0.234862
C106  C     C_3   0.788675 0.117748 0.703533 -0.282947
C107  C     C_3   0.790014 0.142513 0.624348 -0.335236
C108  C     C_3   0.801036 0.223481 0.628817 -0.897634
H78   H     H_    0.776992 0.257579 0.632397 0.266551
H79   H     H_    0.832199 0.234025 0.685082 0.260783
H80   H     H_    0.802056 0.239502 0.571158 0.254994
H81   H     H_    0.813959 0.109804 0.618726 0.205590
H82   H     H_    0.759387 0.133682 0.566500 0.252408
H83   H     H_    0.768198 0.154981 0.715057 0.234861
H84   H     H_    0.820795 0.124510 0.758160 0.182421
C109  C     C_3   0.298083 0.365260 0.849227 -0.291702
C110  C     C_3   0.332980 0.321289 0.846075 -0.419800
C111  C     C_3   0.359984 0.279443 0.928505 -0.858875
H85   H     H_    0.375896 0.318231 0.981970 0.264315
H86   H     H_    0.340402 0.241231 0.941340 0.258420
H87   H     H_    0.384267 0.247287 0.923572 0.260039
H88   H     H_    0.318540 0.281488 0.793260 0.216077
H89   H     H_    0.353543 0.357507 0.834131 0.237662
H90   H     H_    0.311292 0.396428 0.909176 0.212660
H91   H     H_    0.276595 0.323919 0.851186 0.231439
C112  C     C_3   0.701917 0.634709 0.150691 -0.291697
C113  C     C_3   0.667020 0.678704 0.153817 -0.419785
C114  C     C_3   0.640014 0.720513 0.071361 -0.858858
H92   H     H_    0.659595 0.758704 0.058497 0.258420
H93   H     H_    0.624101 0.681700 0.017921 0.264317
H94   H     H_    0.615732 0.752689 0.076276 0.260033
H95   H     H_    0.646458 0.642505 0.165787 0.237655
H96   H     H_    0.681460 0.718530 0.206606 0.216074
H97   H     H_    0.723405 0.676036 0.148707 0.231436
H98   H     H_    0.688707 0.603512 0.090761 0.212661
C115  C     C_3   0.711326 0.382355 0.296613 -0.282947
C116  C     C_3   0.709988 0.357690 0.375827 -0.335224
C117  C     C_3   0.698971 0.276728 0.371464 -0.897684
H99   H     H_    0.667812 0.266145 0.315208 0.260781
H100  H     H_    0.723020 0.242601 0.367935 0.266554
H101  H     H_    0.697949 0.260780 0.429139 0.254998
H102  H     H_    0.740613 0.366562 0.433665 0.252407
H103  H     H_    0.686039 0.390430 0.381403 0.205588
H104  H     H_    0.679207 0.375564 0.241994 0.182421
H105  H     H_    0.731805 0.345085 0.285136 0.234862
C118  C     C_3   0.288674 0.617695 0.703459 -0.282952
C119  C     C_3   0.290012 0.642409 0.624260 -0.335251
C120  C     C_3   0.301029 0.723375 0.628673 -0.897654
H106  H     H_    0.276981 0.757485 0.632225 0.266556
H107  H     H_    0.332189 0.733941 0.684934 0.260783
H108  H     H_    0.302051 0.739358 0.571006 0.255008
H109  H     H_    0.313960 0.609687 0.618663 0.205594
H110  H     H_    0.259386 0.633554 0.566417 0.252413
H111  H     H_    0.268195 0.654946 0.714959 0.234865
H112  H     H_    0.320793 0.624473 0.758082 0.182423

loop_
_geom_bond_atom_site_label_1
_geom_bond_atom_site_label_2
_ccdc_geom_bond_type
C111  H87   S    
O1    Zn1   S    
O34   Zn10  S    
C116  H103  S    
C113  H95   S    
C65   C79   S    
C47   O16   A    
C2    C18   S    
C64   C77   S    
C48   O15   A    
C119  H110  S    
C118  C119  S    
C15   C47   S    
O39   Zn12  S    
C80   C84   S    
C68   H5    S    
C16   C48   S    
C99   H59   S    
C58   C76   S    
C111  H85   S    
C14   C46   S    
C60   H16   S    
C58   O55   S    
C96   H56   S    
C45   O9    A    
C26   C42   S    
C116  C117  S    
C120  H106  S    
O12   Zn2   S    
O23   Zn8   S    
O9    Zn1   S    
C119  C120  S    
C25   O19   A    
C114  H92   S    
C82   H27   S    
O29   Zn6   S    
C120  H108  S    
C26   O20   A    
C67   C115  S    
C59   C66   S    
O37   Zn11  S    
C108  H78   S    
C66   H7    S    
C53   C64   S    
O27   Zn7   S    
C95   H52   S    
C30   O30   A    
C117  H100  S    
C56   O49   S    
O7    Zn3   S    
C105  H71   S    
C63   C103  S    
C55   C62   S    
C114  H94   S    
O21   Zn7   S    
C81   H28   S    
C6    C78   S    
C100  H69   S    
C103  C104  S    
O53   C93   S    
C55   O50   S    
C92   H43   S    
C9    C13   T    
C89   H33   S    
C90   H38   S    
O38   Zn12  S    
C66   C112  S    
C24   C40   S    
C54   C74   S    
C88   H23   S    
C11   C15   T    
C65   H8    S    
C12   C16   T    
C61   C77   S    
C113  C114  S    
O2    Zn2   S    
C93   H47   S    
C97   H63   S    
O18   Zn6   S    
C94   H50   S    
C27   O23   A    
C57   O56   S    
C3    C19   S    
C28   O24   A    
C7    C71   T    
O15   Zn3   S    
C86   H19   S    
C118  H111  S    
C102  H64   S    
C76   C88   S    
C109  H90   S    
C36   C52   S    
O35   Zn10  S    
C36   O38   A    
C115  H105  S    
C31   O27   A    
C81   C85   S    
C68   C79   S    
C31   C71   S    
O47   Zn12  S    
C116  H102  S    
C59   C76   S    
O14   Zn4   S    
C47   O13   A    
C117  H101  S    
C106  H83   S    
O45   Zn10  S    
C55   C74   S    
C55   H11   S    
C119  H109  S    
C86   H18   S    
C9    C73   S    
C64   H1    S    
C85   H17   S    
C56   C73   S    
C102  H66   S    
C30   C70   S    
C107  H81   S    
C30   O26   A    
C29   C69   S    
C2    O2    A    
O33   Zn9   S    
C8    C72   T    
C114  H93   S    
C34   C50   S    
C54   O51   S    
C67   C80   S    
C107  H82   S    
C94   H48   S    
C6    C70   T    
C91   H41   S    
O16   Zn4   S    
C106  C107  S    
C103  H76   S    
O56   C96   S    
C82   H26   S    
C99   H57   S    
C32   C72   S    
C10   C14   T    
C25   C41   S    
C46   O11   A    
C108  H79   S    
C20   C24   T    
O54   C94   S    
C43   C49   T    
C37   O45   A    
C87   H24   S    
C53   H9    S    
C96   H54   S    
O49   C89   S    
C5    C69   T    
C28   C44   S    
C104  H75   S    
O51   C91   S    
C100  H70   S    
C89   H35   S    
C91   H40   S    
C83   H32   S    
C19   C23   T    
C92   H44   S    
C25   O17   A    
C17   C21   T    
C35   O37   A    
O40   Zn11  S    
O17   Zn5   S    
C97   C98   S    
C106  H84   S    
C67   H6    S    
C64   C106  S    
C31   O31   A    
O36   Zn9   S    
C78   C82   S    
C61   C97   S    
C1    O1    A    
O55   C95   S    
C32   O32   A    
C95   H53   S    
C77   C81   S    
C105  H73   S    
C62   H3    S    
C33   O35   A    
C104  C105  S    
C111  H86   S    
O4    Zn2   S    
O46   Zn9   S    
O28   Zn8   S    
C74   C86   S    
O32   Zn7   S    
C118  H112  S    
C102  H65   S    
C73   C85   S    
C109  H91   S    
O3    Zn1   S    
C93   H46   S    
C32   O28   A    
C59   O54   S    
C75   C87   S    
C112  H98   S    
C100  C101  S    
O25   Zn5   S    
C60   C65   S    
O8    Zn4   S    
C34   O34   A    
C60   O53   S    
C101  H68   S    
C84   H30   S    
C35   C51   S    
C101  H67   S    
C28   O22   A    
C56   H12   S    
C57   C68   S    
C5    C77   S    
C90   H37   S    
C85   H20   S    
C110  H88   S    
C57   H13   S    
C37   O41   A    
C13   C45   S    
C7    C79   S    
C44   C50   T    
C38   O46   A    
O11   Zn1   S    
O42   Zn10  S    
C113  H96   S    
O31   Zn8   S    
C4    O7    A    
C115  H104  S    
O20   Zn5   S    
C1    C17   S    
C62   C78   S    
C53   C73   S    
C103  H77   S    
C84   C88   S    
C94   H49   S    
O52   C92   S    
C26   O18   A    
O44   Zn12  S    
C83   C87   S    
C48   O14   A    
C108  H80   S    
O22   Zn8   S    
C99   H58   S    
C40   O44   A    
C110  C111  S    
C87   H21   S    
C18   C22   T    
C34   O36   A    
C96   H55   S    
O48   Zn11  S    
C66   C80   S    
O13   Zn3   S    
C60   C75   S    
C65   C109  S    
C104  H74   S    
C4    O6    A    
C3    O5    A    
C46   O10   A    
C59   H15   S    
C91   H39   S    
C83   H29   S    
C12   C76   S    
C3    O8    A    
C115  C116  S    
C1    O4    A    
C88   H22   S    
C90   H36   S    
C120  H107  S    
C82   C86   S    
C39   O43   A    
C110  H89   S    
C10   C74   S    
C57   C75   S    
C109  C110  S    
C98   H60   S    
O10   Zn2   S    
C84   H31   S    
C23   C39   S    
C58   H14   S    
O26   Zn6   S    
C63   H2    S    
C112  H97   S    
C101  C102  S    
C27   O21   A    
C61   H4    S    
C62   C100  S    
O24   Zn7   S    
C4    C20   S    
C39   O47   A    
C92   H42   S    
O5    Zn3   S    
O41   Zn9   S    
C89   H34   S    
C40   O48   A    
C35   O39   A    
O6    Zn4   S    
C36   O40   A    
C29   O29   A    
C79   C83   S    
C27   C43   S    
C58   C67   S    
C38   O42   A    
O30   Zn5   S    
C21   C37   S    
C95   H51   S    
C97   H62   S    
C45   O12   A    
C93   H45   S    
C98   H61   S    
C54   C63   S    
C68   C118  S    
C81   H25   S    
C117  H99   S    
C8    C80   S    
C53   O52   S    
C56   C61   S    
C54   H10   S    
O19   Zn6   S    
C11   C75   S    
C105  H72   S    
O50   C90   S    
C33   O33   A    
O43   Zn11  S    
C33   C49   S    
C98   C99   S    
C41   C51   T    
C2    O3    A    
C112  C113  S    
C29   O25   A    
C42   C52   T    
C107  C108  S    
C63   C78   S    
C22   C38   S    
