data_mof_unit_19622.cif
_audit_creation_date              2012-12-11T16:09:34-0500
_audit_creation_method            fapswitch 2.2
_symmetry_space_group_name_H-M    P1
_symmetry_Int_Tables_number       1
_space_group_crystal_system       triclinic
_cell_length_a                    6.987071
_cell_length_b                    21.319284
_cell_length_c                    23.618296
_cell_angle_alpha                 90.046301
_cell_angle_beta                  91.551836
_cell_angle_gamma                 90.403788
_cell_volume                      3516.78660659

loop_
_atom_site_label
_atom_site_type_symbol
_atom_type_description
_atom_site_fract_x
_atom_site_fract_y
_atom_site_fract_z
_atom_type_partial_charge
O1    O     O_R   0.494270 0.443530 0.442350 -0.538755
O2    O     O_R   0.824060 0.436290 0.557250 -0.537685
O3    O     O_R   0.994370 0.556470 0.557650 -0.530962
C1    C     C_R   0.656784 0.421279 0.576643 0.732057
O4    O     O_R   0.823990 0.436120 0.442760 -0.540338
O5    O     O_R   0.994300 0.556300 0.442340 -0.531441
C2    C     C_R   0.652381 0.420911 0.423526 0.722225
O6    O     O_R   0.494350 0.443700 0.557660 -0.539106
O7    O     O_3   0.660800 0.539430 0.500000 -0.361345
V1    V     V_3+5 0.935650 0.492690 0.500000 1.404784
O8    O     O_R   0.324020 0.563710 0.442750 -0.535329
C3    C     C_R   0.154034 0.578705 0.423353 0.725101
O9    O     O_R   0.324090 0.563880 0.557240 -0.534503
C4    C     C_R   0.157280 0.578965 0.576706 0.726001
V2    V     V_3+5 0.435660 0.507310 0.500000 1.417261
O10   O     O_3   0.160640 0.460570 0.500000 -0.375337
C5    C     C_3   0.061725 0.717897 0.797620 -0.269531
C6    C     C_3   0.243432 0.707943 0.762980 0.510691
H1    H     H_    0.025128 0.692410 0.836875 0.136135
H2    H     H_    0.418348 0.803749 0.766607 0.152922
C7    C     C_1   0.151052 0.624745 0.622238 -0.186130
C8    C     C_1   0.068606 0.873958 0.877361 -0.181115
C9    C     C_3   0.940204 0.718812 0.741360 -0.294818
C10   C     C_3   0.124384 0.708536 0.707467 0.063752
C11   C     C_3   0.976199 0.790207 0.736975 0.509544
C12   C     C_3   0.095243 0.789651 0.792499 0.062695
C13   C     C_3   0.157918 0.780269 0.702356 -0.270134
C14   C     C_3   0.279462 0.779341 0.758606 -0.294719
C15   C     C_1   0.140993 0.662621 0.660563 0.011978
C16   C     C_1   0.078664 0.835793 0.839250 0.011452
H3    H     H_    0.194478 0.805749 0.663095 0.135035
H4    H     H_    0.801384 0.694362 0.733367 0.153106
C17   C     C_3   0.263738 0.808414 0.250295 0.228894
C18   C     C_3   0.908935 0.788366 0.239015 -0.410426
C19   C     C_3   0.919593 0.740223 0.288843 0.251219
H5    H     H_    0.264181 0.782038 0.340791 0.222307
H6    H     H_    0.789143 0.774895 0.209320 0.095698
H7    H     H_    0.874640 0.835935 0.255141 0.220142
H8    H     H_    0.806610 0.703596 0.281598 0.103922
C20   C     C_1   0.141816 0.624127 0.377700 -0.183878
C21   C     C_3   0.100204 0.790475 0.206850 0.096232
C22   C     C_3   0.276709 0.758819 0.298843 -0.416153
C23   C     C_3   0.118801 0.707515 0.291351 0.139754
C24   C     C_3   0.150471 0.674197 0.233453 0.067257
C25   C     C_3   0.134817 0.722881 0.183746 0.142520
C26   C     C_1   0.131495 0.661727 0.339097 0.000541
C27   C     C_1   0.087762 0.836808 0.159559 0.053340
C28   C     C_1   0.077553 0.874756 0.121228 -0.166443
H9    H     H_    0.008581 0.710039 0.156225 0.180437
H10   H     H_    0.296537 0.653177 0.234427 0.114394
H11   H     H_    0.402465 0.809895 0.228091 0.066207
H12   H     H_    0.420396 0.736603 0.298863 0.085503
C29   C     C_3   0.373885 0.276021 0.717820 0.701471
C30   C     C_3   0.695080 0.229450 0.693446 0.160405
C31   C     C_3   0.663153 0.180669 0.741084 -0.362248
H13   H     H_    0.633057 0.209199 0.653425 0.118039
H14   H     H_    0.573002 0.141415 0.724284 0.121372
H15   H     H_    0.802509 0.159135 0.753964 0.232438
C32   C     C_1   0.566115 0.124466 0.877569 -0.195315
C33   C     C_3   0.597130 0.293359 0.708113 -0.096537
C34   C     C_3   0.365258 0.238508 0.776944 0.693077
C35   C     C_3   0.570856 0.211123 0.793547 -0.056902
C36   C     C_3   0.701497 0.267023 0.811588 -0.408083
C37   C     C_3   0.703966 0.317398 0.763787 0.192309
C38   C     C_1   0.567023 0.163324 0.839859 -0.023026
C39   C     C_1   0.631355 0.338753 0.660930 -0.076519
C40   C     C_1   0.649184 0.375956 0.622320 -0.237439
H16   H     H_    0.856981 0.325108 0.753949 0.238366
H17   H     H_    0.656212 0.287778 0.852239 0.175765
H18   H     H_    0.849406 0.249642 0.819562 0.196754
C41   C     C_3   0.455872 0.305901 0.247145 0.092545
C42   C     C_3   0.812842 0.297679 0.255813 0.338705
C43   C     C_3   0.817503 0.242269 0.211779 -0.498243
H19   H     H_    0.518346 0.291071 0.157884 0.098249
H20   H     H_    0.811983 0.341765 0.230173 0.095851
H21   H     H_    0.861230 0.260728 0.169971 0.155174
H22   H     H_    0.927091 0.207293 0.225223 0.220232
C44   C     C_1   0.586961 0.124378 0.120871 -0.176772
C45   C     C_3   0.623990 0.293463 0.289954 0.107934
C46   C     C_3   0.467959 0.262389 0.194290 0.143611
C47   C     C_3   0.616842 0.209520 0.205843 0.067418
C48   C     C_3   0.580839 0.177155 0.263883 0.250012
C49   C     C_3   0.600452 0.225731 0.313252 -0.498384
C50   C     C_1   0.606194 0.162580 0.158890 0.035169
C51   C     C_1   0.623737 0.338689 0.338404 0.038778
C52   C     C_1   0.634447 0.375728 0.377638 -0.216601
H23   H     H_    0.474188 0.223011 0.340911 0.163223
H24   H     H_    0.727425 0.213887 0.340552 0.188128
H25   H     H_    0.322635 0.294329 0.268919 0.184272
H26   H     H_    0.693461 0.141103 0.270971 0.134084
O11   O     O_R   0.724990 0.055630 0.941600 -0.533428
O12   O     O_R   0.395220 0.063160 0.056480 -0.533808
O13   O     O_R   0.225040 0.942970 0.056870 -0.531440
C53   C     C_R   0.566922 0.078373 0.075723 0.720261
O14   O     O_R   0.395270 0.063000 0.941990 -0.540831
O15   O     O_R   0.225080 0.942800 0.941570 -0.533721
C54   C     C_R   0.562317 0.078154 0.922634 0.717499
O16   O     O_R   0.724940 0.055790 0.056910 -0.536265
O17   O     O_3   0.558580 0.959880 0.999250 -0.366428
V3    V     V_3+5 0.283680 0.006590 0.999220 1.439391
O18   O     O_R   0.895380 0.935350 0.941950 -0.536734
C55   C     C_R   0.062259 0.920096 0.922631 0.724105
O19   O     O_R   0.895330 0.935520 0.056440 -0.536967
C56   C     C_R   0.065326 0.920461 0.075790 0.727746
V4    V     V_3+5 0.783690 0.991900 0.999180 1.442303
O20   O     O_3   0.058660 0.038680 0.999200 -0.371054
O21   O     O_3   0.382574 0.661536 0.773903 -0.552233
C57   C     C_3   0.484798 0.675902 0.824623 0.073547
H27   H     H_    0.386625 0.683499 0.860343 0.122812
H28   H     H_    0.575520 0.718436 0.819037 0.128486
C58   C     C_3   0.615102 0.621348 0.840160 -0.669750
H29   H     H_    0.715344 0.612188 0.805466 0.226449
H30   H     H_    0.699396 0.632665 0.879423 0.174211
H31   H     H_    0.528106 0.578452 0.847456 0.231435
O22   O     O_3   0.886739 0.770630 0.340498 -0.627562
H32   H     H_    0.748124 0.780555 0.340705 0.282405
O23   O     O_3   0.295121 0.720603 0.148867 -0.637926
H33   H     H_    0.412577 0.724493 0.173140 0.278993
O24   O     O_3   0.013736 0.626199 0.224193 -0.644936
H34   H     H_    0.061230 0.588378 0.244483 0.296490
O25   O     O_3   0.224548 0.190390 0.772232 -0.629795
H35   H     H_    0.277520 0.154083 0.751924 0.290406
O26   O     O_3   0.304621 0.232154 0.675720 -0.557951
C59   C     C_3   0.281135 0.255495 0.619852 0.106313
H36   H     H_    0.416513 0.272421 0.602323 0.100179
H37   H     H_    0.172591 0.292843 0.617031 0.139445
C60   C     C_3   0.214128 0.201950 0.581322 -0.725600
H38   H     H_    0.079364 0.180892 0.596614 0.241536
H39   H     H_    0.188738 0.219682 0.537572 0.173906
H40   H     H_    0.325345 0.165001 0.580540 0.218898
O27   O     O_3   0.891942 0.237635 0.686254 -0.587968
H41   H     H_    0.904072 0.256278 0.648185 0.303453
O28   O     O_3   0.638993 0.375970 0.782350 -0.655345
H42   H     H_    0.516060 0.369750 0.801395 0.338271
O29   O     O_3   0.236025 0.325685 0.722974 -0.530499
C61   C     C_3   0.270701 0.384310 0.697096 0.063916
H43   H     H_    0.279664 0.380414 0.650598 0.114420
H44   H     H_    0.399883 0.407669 0.715020 0.179848
C62   C     C_3   0.105037 0.427843 0.708863 -0.659671
H45   H     H_    0.087551 0.432855 0.755255 0.241438
H46   H     H_    0.133017 0.474834 0.690410 0.171418
H47   H     H_    0.970939 0.408737 0.689443 0.228389
O30   O     O_3   0.306997 0.282802 0.818699 -0.552905
C63   C     C_3   0.249381 0.256586 0.870705 0.127399
H48   H     H_    0.375704 0.242177 0.896759 0.112981
H49   H     H_    0.149313 0.216214 0.865127 0.161143
C64   C     C_3   0.148060 0.306908 0.904115 -0.739734
H50   H     H_    0.024165 0.325446 0.879120 0.238860
H51   H     H_    0.096242 0.286887 0.944349 0.173560
H52   H     H_    0.248649 0.346210 0.914090 0.227936
O31   O     O_3   0.455446 0.369312 0.230605 -0.664544
H53   H     H_    0.343153 0.375059 0.204511 0.295080
O32   O     O_3   0.975943 0.295688 0.292867 -0.554610
C65   C     C_3   0.037456 0.356944 0.309558 0.059694
H54   H     H_    0.923111 0.392714 0.309794 0.115468
H55   H     H_    0.140516 0.375863 0.279423 0.141264
C66   C     C_3   0.130402 0.353728 0.368446 -0.646666
H56   H     H_    0.249195 0.319565 0.369066 0.203492
H57   H     H_    0.024088 0.338050 0.399570 0.214791
H58   H     H_    0.186265 0.400714 0.380979 0.192471
O33   O     O_3   0.403789 0.145058 0.263886 -0.617030
H59   H     H_    0.300751 0.176017 0.269434 0.337883
O34   O     O_3   0.285055 0.237709 0.180599 -0.648496
H60   H     H_    0.277877 0.231153 0.138973 0.288197
O35   O     O_3   0.836899 0.836523 0.725888 -0.552622
C67   C     C_3   0.734529 0.821821 0.675261 0.080724
H61   H     H_    0.643781 0.779342 0.681102 0.128817
H62   H     H_    0.832589 0.813956 0.639559 0.120775
C68   C     C_3   0.604185 0.876257 0.659422 -0.689862
H63   H     H_    0.691155 0.919085 0.651825 0.226718
H64   H     H_    0.519764 0.864641 0.620252 0.174934
H65   H     H_    0.504061 0.885680 0.694087 0.225508
O36   O     O_3   0.230261 0.868252 0.272952 -0.618601
H66   H     H_    0.351920 0.882249 0.291835 0.297050

loop_
_geom_bond_atom_site_label_1
_geom_bond_atom_site_label_2
_ccdc_geom_bond_type
C49   H23   S    
O35   C67   S    
O15   C55   A    
C18   H6    S    
C68   H63   S    
O11   V4    S    
H5    C22   S    
O34   H60   S    
C29   O29   S    
C10   C13   S    
C1    O6    A    
C41   C45   S    
O33   H59   S    
O26   C59   S    
C58   H30   S    
C30   C33   S    
O36   H66   S    
C20   C26   T    
C30   O27   S    
C66   H56   S    
O16   V4    S    
C6    C10   S    
C5    C12   S    
C37   H16   S    
C4    C7    S    
C64   H51   S    
C42   C45   S    
C63   C64   S    
O5    C3    A    
C62   H47   S    
C2    C52   S    
C53   O16   A    
C25   O23   S    
V2    O10   S    
C28   C56   S    
C31   C35   S    
C57   H27   S    
C34   O25   S    
C18   C19   S    
C6    O21   S    
C64   H50   S    
O1    C2    A    
C10   C15   S    
C29   C34   S    
C34   O30   S    
C41   O31   S    
C36   H17   S    
O31   H53   S    
C19   O22   S    
O1    V2    S    
C17   O36   S    
O7    V1    S    
C65   H55   S    
C35   C38   S    
C42   C43   S    
C39   C40   T    
C33   C39   S    
C66   H57   S    
H19   C46   S    
O9    C4    A    
C67   H62   S    
C68   H64   S    
C18   C21   S    
O8    V2    S    
C42   H20   S    
O13   C56   A    
C43   C47   S    
C41   C46   S    
C29   C33   S    
C47   C48   S    
O18   V4    S    
O17   V4    S    
C30   H13   S    
C13   H3    S    
O18   C55   A    
O29   C61   S    
C64   H52   S    
C6    C14   S    
C65   C66   S    
C63   H49   S    
C29   O26   S    
O4    C2    A    
O14   V3    S    
C63   H48   S    
H2    C14   S    
C24   O24   S    
C11   O35   S    
C11   C12   S    
C51   C52   T    
C7    C15   T    
C61   C62   S    
C3    C20   S    
C19   H8    S    
C23   C24   S    
C60   H39   S    
C46   O34   S    
C35   C36   S    
C27   C28   T    
C41   H25   S    
C36   H18   S    
C25   H9    S    
O21   C57   S    
O12   C53   A    
C5    C6    S    
C21   C27   S    
O19   V4    S    
C57   C58   S    
C5    C9    S    
O11   C54   A    
O24   H34   S    
O13   V3    S    
C65   H54   S    
O25   H35   S    
O3    C4    A    
C59   C60   S    
C61   H44   S    
C12   C16   S    
O6    V2    S    
C31   H14   S    
C67   H61   S    
C32   C54   S    
C43   H21   S    
C11   C13   S    
C22   C23   S    
C17   C22   S    
C60   H38   S    
O2    V1    S    
C45   C51   S    
C47   C50   S    
C19   C23   S    
C24   C25   S    
O12   V3    S    
C59   H37   S    
C37   O28   S    
C24   H10   S    
C30   C31   S    
C43   H22   S    
C42   O32   S    
C8    C16   T    
C58   H29   S    
C18   H7    S    
V3    O20   S    
C46   C47   S    
O27   H41   S    
C8    C55   S    
O5    V1    S    
C1    C40   S    
C62   H45   S    
O14   C54   A    
C48   O33   S    
C66   H58   S    
C17   H11   S    
V4    O20   S    
C12   C14   S    
C48   H26   S    
O17   V3    S    
C33   C37   S    
C17   C21   S    
C9    H4    S    
O9    V2    S    
O7    V2    S    
C60   H40   S    
O4    V1    S    
O3    V1    S    
V1    O10   S    
O23   H33   S    
C32   C38   T    
C45   C49   S    
C62   H46   S    
O22   H32   S    
O28   H42   S    
C44   C53   S    
O2    C1    A    
O15   V3    S    
C5    H1    S    
C57   H28   S    
C49   H24   S    
C58   H31   S    
C9    C11   S    
C34   C35   S    
C23   C26   S    
C9    C10   S    
C36   C37   S    
C44   C50   T    
C67   C68   S    
C48   C49   S    
C31   H15   S    
O19   C56   A    
C21   C25   S    
C61   H43   S    
C68   H65   S    
O32   C65   S    
O30   C63   S    
O8    C3    A    
C22   H12   S    
C59   H36   S    
C13   C14   S    
