data_mof_unit_21979.cif
_audit_creation_date              2012-12-11T15:48:51-0500
_audit_creation_method            fapswitch 2.2
_symmetry_space_group_name_H-M    P1
_symmetry_Int_Tables_number       1
_space_group_crystal_system       triclinic
_cell_length_a                    10.936829
_cell_length_b                    10.981719
_cell_length_c                    18.804341
_cell_angle_alpha                 90.513175
_cell_angle_beta                  90.277829
_cell_angle_gamma                 60.28571
_cell_volume                      1961.44520389

loop_
_atom_site_label
_atom_site_type_symbol
_atom_type_description
_atom_site_fract_x
_atom_site_fract_y
_atom_site_fract_z
_atom_type_partial_charge
C1    C     C_R   0.240173 0.645315 0.610492 0.540140
C2    C     C_R   0.579040 0.139994 0.709463 -0.180971
C3    C     C_R   0.575426 0.146114 0.782601 -0.171260
C4    C     C_R   0.653898 0.622089 0.600911 0.538919
C5    C     C_3   0.935160 0.094181 0.786358 -0.271950
C6    C     C_3   0.930244 0.102031 0.705835 -0.281234
C7    C     C_R   0.674768 0.163980 0.672078 0.015441
C8    C     C_R   0.181078 0.667403 0.835195 0.013218
C9    C     C_R   0.154846 0.575950 0.794167 0.019030
C10   C     C_R   0.163681 0.573490 0.720400 -0.004664
C11   C     C_R   0.214912 0.762450 0.726112 -0.171522
C12   C     C_3   0.669923 0.551760 0.799857 -0.253185
C13   C     C_R   0.213988 0.759363 0.799996 -0.179281
C14   C     C_3   0.229209 0.419961 0.797680 -0.283253
C15   C     C_3   0.236495 0.417876 0.717233 -0.270732
C16   C     C_R   0.630364 0.225628 0.601859 0.535824
C17   C     C_R   0.196030 0.665058 0.684951 0.012288
C18   C     C_R   0.649294 0.675062 0.167663 -0.017458
C19   C     C_R   0.704498 0.543148 0.198875 0.005576
C20   C     C_R   0.706249 0.531165 0.271732 0.021830
C21   C     C_R   0.581611 0.782385 0.286289 0.050635
C22   C     C_R   0.579527 0.794865 0.211934 -0.111473
C23   C     C_3   0.698306 0.673884 0.812275 0.051507
C24   C     C_3   0.845182 0.412764 0.191576 -0.268720
C25   C     C_3   0.849489 0.404687 0.271844 -0.263628
C26   C     C_R   0.651107 0.648026 0.316921 0.024784
C27   C     C_R   0.658282 0.165165 0.174034 0.021483
C28   C     C_R   0.217631 0.651954 0.402986 0.547073
C29   C     C_R   0.526638 0.244170 0.204696 0.009846
C30   C     C_R   0.515606 0.257980 0.277173 0.048140
C31   C     C_R   0.767587 0.129508 0.290707 -0.175500
C32   C     C_R   0.779609 0.118215 0.217268 -0.161550
C33   C     C_3   0.393209 0.239253 0.197230 -0.275525
C34   C     C_3   0.669980 0.647850 0.676301 0.057972
C35   C     C_3   0.382346 0.251920 0.277528 -0.266628
C36   C     C_R   0.634352 0.192837 0.321182 0.038761
C37   C     C_R   0.103676 0.698444 0.191315 0.023232
C38   C     C_R   0.112040 0.804650 0.227672 0.021409
C39   C     C_R   0.126204 0.802273 0.299408 0.016618
C40   C     C_R   0.642437 0.622413 0.392101 0.540700
C41   C     C_R   0.093275 0.601444 0.305379 -0.169664
C42   C     C_R   0.079061 0.604460 0.230975 -0.161348
C43   C     C_3   0.203249 0.867389 0.214565 -0.271482
C44   C     C_3   0.222121 0.863736 0.294097 -0.256593
C45   C     C_3   0.815765 0.632383 0.690542 -0.248247
C46   C     C_R   0.136100 0.689402 0.338145 0.020347
C47   C     C_R   0.702088 0.099861 0.895256 0.542303
C48   C     C_R   0.722966 0.687994 0.888312 0.542810
C49   C     C_R   0.119008 0.705685 0.906044 0.539353
C50   C     C_R   0.676263 0.107038 0.103734 0.551726
C51   C     C_R   0.695256 0.690761 0.097447 0.549528
C52   C     C_R   0.615588 0.230342 0.394848 0.544050
C53   C     C_R   0.082403 0.715489 0.115560 0.547747
C54   C     C_3   0.571877 0.809866 0.782363 -0.233110
C55   C     C_3   0.556287 0.795346 0.702001 -0.238925
C56   C     C_3   0.655187 0.535353 0.719647 -0.212832
C57   C     C_3   0.832916 0.645508 0.770771 -0.216297
C58   C     C_R   0.682541 0.151672 0.822238 0.016524
C59   C     C_R   0.779255 0.174718 0.785015 -0.006911
C60   C     C_R   0.773422 0.183943 0.710954 0.012583
Cr1   Cr    Cr6+3 0.392960 0.397920 0.502240 1.003926
Cr2   Cr    Cr6+3 0.398340 0.708480 0.501250 0.994039
Cr3   Cr    Cr6+3 0.708670 0.393570 0.496460 1.005983
Cr4   Cr    Cr6+3 0.937650 0.938540 0.007610 1.003485
Cr5   Cr    Cr6+3 0.625330 0.937370 0.994520 1.000539
Cr6   Cr    Cr6+3 0.937940 0.625230 0.001190 1.003928
H1    H     H_    0.590198 0.898925 0.791840 0.144487
H2    H     H_    0.967853 0.998978 0.678991 0.145849
H3    H     H_    0.235457 0.838957 0.701498 0.133138
H4    H     H_    0.472781 0.833131 0.810030 0.116030
H5    H     H_    0.229299 0.836140 0.829329 0.129148
H6    H     H_    0.161230 0.379781 0.818650 0.131681
H7    H     H_    0.332912 0.377850 0.824399 0.143358
H8    H     H_    0.344452 0.374283 0.696303 0.179563
H9    H     H_    0.171181 0.378462 0.691295 0.123696
H10   H     H_    0.536726 0.898438 0.189662 0.154179
H11   H     H_    0.930078 0.428692 0.169972 0.156645
H12   H     H_    0.739676 0.430110 0.703055 0.148522
H13   H     H_    0.836421 0.326223 0.165562 0.139911
H14   H     H_    0.850173 0.311066 0.292937 0.157576
H15   H     H_    0.449495 0.812353 0.691064 0.137199
H16   H     H_    0.930060 0.426120 0.295870 0.129483
H17   H     H_    0.861427 0.088342 0.323399 0.120168
H18   H     H_    0.884447 0.062465 0.195121 0.150148
H19   H     H_    0.408064 0.137601 0.177176 0.157183
H20   H     H_    0.310042 0.333049 0.169587 0.136062
H21   H     H_    0.293497 0.350636 0.296554 0.146693
H22   H     H_    0.392026 0.158286 0.304045 0.178151
H23   H     H_    0.923583 0.545768 0.789301 0.143423
H24   H     H_    0.085449 0.522317 0.335732 0.112871
H25   H     H_    0.056354 0.530166 0.204783 0.122098
H26   H     H_    0.143456 0.975605 0.193301 0.135980
H27   H     H_    0.567008 0.877293 0.672924 0.112618
H28   H     H_    0.301438 0.795272 0.185332 0.144995
H29   H     H_    0.331959 0.788771 0.309872 0.177937
H30   H     H_    0.175808 0.969762 0.318826 0.128849
H31   H     H_    0.856749 0.731646 0.781038 0.126470
H32   H     H_    0.826513 0.714723 0.661749 0.115338
H33   H     H_    0.757812 0.452731 0.821458 0.130979
H34   H     H_    0.900995 0.528737 0.671344 0.132376
H35   H     H_    0.571711 0.572496 0.827643 0.119248
H36   H     H_    0.552088 0.541604 0.708500 0.127992
H37   H     H_    0.604477 0.898182 0.364074 0.238840
H38   H     H_    0.441215 0.916319 0.358835 0.242729
H39   H     H_    0.497941 0.128054 0.682306 0.128809
H40   H     H_    0.492938 0.134318 0.807525 0.137466
H41   H     H_    0.973258 0.987442 0.807088 0.174521
H42   H     H_    0.981209 0.154246 0.811590 0.127239
H43   H     H_    0.974626 0.165949 0.684379 0.132205
N1    N     N_3   0.525967 0.906678 0.329152 -0.661961
O1    O     O_R   0.507380 0.255700 0.581440 -0.536393
O2    O     O_R   0.837170 0.593410 0.915250 -0.527935
O3    O     O_R   0.065200 0.635530 0.931570 -0.498862
O4    O     O_R   0.280320 0.527350 0.578930 -0.504232
O5    O     O_R   0.068260 0.828890 0.091840 -0.524383
O6    O     O_R   0.798870 0.057410 0.079340 -0.516389
O7    O     O_R   0.584930 0.080350 0.076780 -0.524442
O8    O     O_R   0.626960 0.809650 0.067060 -0.510803
O9    O     O_R   0.816040 0.596610 0.076510 -0.523073
O10   O     O_R   0.045610 0.638500 0.081060 -0.511390
O11   O     O_3   0.833640 0.833710 0.001100 -0.248764
O12   O     O_R   0.524480 0.695810 0.424040 -0.514205
O13   O     O_R   0.260510 0.739590 0.584590 -0.533368
O14   O     O_R   0.532300 0.695080 0.573820 -0.510212
O15   O     O_R   0.744840 0.503500 0.576370 -0.529715
O16   O     O_R   0.699120 0.276560 0.571960 -0.501128
O17   O     O_R   0.498940 0.256500 0.419860 -0.520418
O18   O     O_R   0.272500 0.528080 0.429150 -0.504307
O19   O     O_R   0.252060 0.740380 0.423010 -0.527113
O20   O     O_R   0.736390 0.504290 0.414790 -0.519327
O21   O     O_R   0.691300 0.277290 0.422170 -0.508191
O22   O     O_3   0.499990 0.499990 0.499980 -0.246325
O23   O     O_R   0.089400 0.825690 0.930570 -0.530732
O24   O     O_R   0.818460 0.054440 0.929850 -0.500515
O25   O     O_R   0.606060 0.077150 0.915510 -0.536006
O26   O     O_R   0.646550 0.806680 0.917570 -0.511013

loop_
_geom_bond_atom_site_label_1
_geom_bond_atom_site_label_2
_ccdc_geom_bond_type
C15   H9    S    
C21   C26   A    
C34   C56   S    
C8    C13   A    
Cr4   O6    S    
Cr6   O3    S    
C27   C29   A    
C50   O7    A    
C41   C42   A    
C49   O3    A    
C2    C7    A    
C22   H10   S    
C55   H27   S    
C43   H28   S    
Cr2   O14   S    
C21   N1    S    
C53   O10   A    
C56   H12   S    
C12   C23   S    
C45   C57   S    
C29   C30   A    
C57   H23   S    
C4    O15   A    
H37   N1    S    
C28   O19   A    
C45   H32   S    
C31   C36   A    
C38   C39   A    
C20   C25   S    
C10   C17   A    
Cr4   O11   S    
C25   H14   S    
C29   C33   S    
C51   O8    A    
C31   H17   S    
C4    O14   A    
C18   C19   A    
Cr3   O20   S    
C37   C42   A    
C33   H19   S    
C12   H33   S    
C49   O23   A    
Cr1   O22   S    
Cr4   O23   S    
C35   H21   S    
C19   C20   A    
C8    C9    A    
C51   O9    A    
C41   C46   A    
Cr5   O11   S    
C55   H15   S    
C9    C10   A    
C36   C52   S    
C27   C50   S    
C37   C53   S    
C6    H2    S    
C41   H24   S    
C28   O18   A    
C34   C55   S    
Cr4   O5    S    
Cr6   O10   S    
C21   C22   A    
Cr2   O19   S    
Cr2   O13   S    
C52   O17   A    
C18   C51   S    
C4    C34   S    
C3    H40   S    
C32   H18   S    
Cr4   O24   S    
C5    C59   S    
Cr5   O26   S    
C14   H7    S    
C6    C60   S    
C24   C25   S    
C9    C14   S    
C54   H1    S    
C13   H5    S    
C58   C59   A    
C43   C44   S    
C1    O13   A    
C59   C60   A    
C37   C38   A    
C44   H30   S    
Cr2   O22   S    
C35   H22   S    
C24   H13   S    
C31   C32   A    
C54   H4    S    
Cr5   O8    S    
C57   H31   S    
Cr6   O11   S    
Cr1   O17   S    
C34   C45   S    
Cr5   O25   S    
Cr3   O22   S    
C12   C56   S    
C39   C46   A    
C30   C35   S    
C7    C16   S    
C48   O2    A    
Cr3   O21   S    
Cr6   O9    S    
C47   O24   A    
C25   H16   S    
C6    H43   S    
Cr3   O15   S    
C1    O4    A    
Cr1   O1    S    
C7    C60   A    
Cr2   O12   S    
C23   C54   S    
C5    H41   S    
C23   C57   S    
C40   O20   A    
C54   C55   S    
C11   C17   A    
C23   C48   S    
C47   O25   A    
C27   C32   A    
C18   C22   A    
C52   O21   A    
C14   H6    S    
C48   O26   A    
C45   H34   S    
C11   H3    S    
C39   C44   S    
C40   O12   A    
C2    H39   S    
C1    C17   S    
C43   H26   S    
C30   C36   A    
C10   C15   S    
C28   C46   S    
C2    C3    A    
C56   H36   S    
C12   H35   S    
C44   H29   S    
C47   C58   S    
H38   N1    S    
C11   C13   A    
C26   C40   S    
C5    C6    S    
C20   C26   A    
C33   C35   S    
C19   C24   S    
Cr1   O18   S    
C50   O6    A    
Cr3   O16   S    
C3    C58   A    
C53   O5    A    
C24   H11   S    
C38   C43   S    
C15   H8    S    
Cr1   O4    S    
Cr5   O7    S    
C14   C15   S    
Cr6   O2    S    
C16   O16   A    
C8    C49   S    
C33   H20   S    
C42   H25   S    
C16   O1    A    
C5    H42   S    
