data_mof_unit_46044.cif
_audit_creation_date              2012-12-11T15:59:36-0500
_audit_creation_method            fapswitch 2.2
_symmetry_space_group_name_H-M    P1
_symmetry_Int_Tables_number       1
_space_group_crystal_system       triclinic
_cell_length_a                    10.75236
_cell_length_b                    10.7055
_cell_length_c                    17.080638
_cell_angle_alpha                 99.709319
_cell_angle_beta                  100.128795
_cell_angle_gamma                 60.543048
_cell_volume                      1677.52753568

loop_
_atom_site_label
_atom_site_type_symbol
_atom_type_description
_atom_site_fract_x
_atom_site_fract_y
_atom_site_fract_z
_atom_type_partial_charge
C1    C     C_R   0.356070 0.769338 0.397924 0.529587
C2    C     C_R   0.819237 0.349735 0.323796 0.005538
C3    C     C_R   0.356160 0.815035 0.157394 -0.001943
C4    C     C_R   0.406139 0.374858 0.356391 0.574094
C5    C     C_R   0.448971 0.848507 0.216502 0.022306
C6    C     C_R   0.433909 0.855404 0.297864 0.014634
C7    C     C_R   0.281483 0.741367 0.256860 -0.145733
C8    C     C_R   0.283528 0.749939 0.177892 -0.148933
C9    C     C_R   0.554599 0.876872 0.197360 -0.095085
C10   C     C_R   0.631289 0.925573 0.256596 -0.128914
C11   C     C_R   0.608274 0.943562 0.336010 -0.091564
C12   C     C_R   0.854991 0.203821 0.196835 0.031885
C13   C     C_R   0.508215 0.911838 0.356729 -0.082226
C14   C     C_R   0.347659 0.802103 0.317555 0.011433
C15   C     C_R   0.300987 0.279000 0.800001 -0.001056
C16   C     C_R   0.774604 0.378069 0.402946 0.544574
C17   C     C_R   0.426368 0.176371 0.763132 0.036150
C18   C     C_R   0.479470 0.223385 0.712068 0.033240
C19   C     C_R   0.253358 0.449365 0.708137 -0.145126
C20   C     C_R   0.214762 0.414387 0.771244 -0.143044
C21   C     C_R   0.504265 0.029603 0.778508 -0.087365
C22   C     C_R   0.641328 0.939729 0.755440 -0.112437
C23   C     C_R   0.865084 0.213358 0.280848 0.020556
C24   C     C_R   0.703970 0.994633 0.716691 -0.113643
C25   C     C_R   0.624228 0.134948 0.695205 -0.089358
C26   C     C_R   0.383894 0.353737 0.676950 -0.009918
C27   C     C_1   0.769675 0.368786 0.714776 -0.065153
C28   C     C_R   0.358459 0.768730 0.627610 0.544637
C29   C     C_1   0.814319 0.329868 0.780787 -0.047618
C30   C     C_1   0.339787 0.808418 0.709743 -0.058320
C31   C     C_1   0.313166 0.836164 0.777629 -0.063389
C32   C     C_R   0.890803 0.308875 0.086895 0.548022
C33   C     C_R   0.322011 0.302802 0.119261 0.565361
C34   C     C_R   0.779191 0.471677 0.284548 -0.142147
C35   C     C_R   0.298746 0.886623 0.083923 0.551623
C36   C     C_R   0.879601 0.300803 0.860367 0.546808
C37   C     C_R   0.279375 0.253826 0.876952 0.545010
C38   C     C_R   0.279003 0.884208 0.857343 0.539212
C39   C     C_R   0.408606 0.375607 0.600118 0.534177
C40   C     C_R   0.718705 0.411790 0.635585 0.535913
C41   C     C_1   0.374606 0.362479 0.272016 -0.043848
C42   C     C_1   0.349612 0.343614 0.201204 -0.044304
C43   C     C_R   0.829421 0.326328 0.160070 -0.002168
C44   C     C_R   0.785043 0.459857 0.204122 -0.157216
C45   C     C_R   0.873743 0.071562 0.153521 -0.062761
C46   C     C_R   0.924525 0.948357 0.192488 -0.135322
C47   C     C_R   0.950550 0.955520 0.275358 -0.134755
C48   C     C_R   0.919552 0.087000 0.319509 -0.090632
Cr1   Cr    Cr6+3 0.608100 0.610860 0.522250 1.009772
Cr2   Cr    Cr6+3 0.288890 0.599990 0.488420 1.011150
Cr3   Cr    Cr6+3 0.603040 0.289190 0.489390 0.986055
Cr4   Cr    Cr6+3 0.053960 0.052250 0.967380 1.015896
Cr5   Cr    Cr6+3 0.059890 0.373160 0.992710 1.015560
Cr6   Cr    Cr6+3 0.373370 0.061690 0.991710 0.999648
H1    H     H_    0.740077 0.578870 0.315651 0.158009
H2    H     H_    0.676996 0.171806 0.664494 0.151753
H3    H     H_    0.845401 0.061858 0.089772 0.138922
H4    H     H_    0.761316 0.554827 0.177015 0.136270
H5    H     H_    0.941080 0.847490 0.158404 0.103532
H6    H     H_    0.988747 0.860164 0.305698 0.125799
H7    H     H_    0.939989 0.088528 0.383897 0.133896
H8    H     H_    0.225852 0.687533 0.270157 0.135449
H9    H     H_    0.584051 0.856303 0.137439 0.136528
H10   H     H_    0.219564 0.714703 0.133007 0.134153
H11   H     H_    0.707349 0.951051 0.240348 0.132740
H12   H     H_    0.668701 0.981556 0.381720 0.136019
H13   H     H_    0.490109 0.932239 0.418960 0.141941
H14   H     H_    0.180892 0.551135 0.683620 0.147157
H15   H     H_    0.461008 0.983567 0.809254 0.153791
H16   H     H_    0.117858 0.493336 0.797614 0.144818
H17   H     H_    0.700110 0.828863 0.769636 0.121436
H18   H     H_    0.812840 0.927588 0.701351 0.120230
O1    O     O_R   0.749810 0.499790 0.438040 -0.511271
O2    O     O_R   0.411730 0.181020 0.091530 -0.506760
O3    O     O_R   0.365010 0.944360 0.063320 -0.510422
O4    O     O_R   0.477660 0.726260 0.439290 -0.508652
O5    O     O_R   0.159380 0.906670 0.876210 -0.502095
O6    O     O_R   0.930820 0.177420 0.886730 -0.492514
O7    O     O_R   0.910360 0.395420 0.895720 -0.523354
O8    O     O_R   0.186010 0.361730 0.919870 -0.498710
O9    O     O_R   0.400000 0.173010 0.914630 -0.519310
O10   O     O_R   0.354140 0.936940 0.899340 -0.538384
O11   O     O_3   0.162410 0.162370 0.983930 -0.257736
O12   O     O_R   0.298970 0.468800 0.557390 -0.482156
O13   O     O_R   0.260150 0.743000 0.412270 -0.533039
O14   O     O_R   0.297740 0.466550 0.394720 -0.485522
O15   O     O_R   0.488080 0.253500 0.386430 -0.504625
O16   O     O_R   0.722670 0.303800 0.421940 -0.520641
O17   O     O_R   0.751130 0.502220 0.613520 -0.488013
O18   O     O_R   0.478890 0.728510 0.601960 -0.504082
O19   O     O_R   0.261470 0.745430 0.587750 -0.518609
O20   O     O_R   0.489400 0.255930 0.561910 -0.517656
O21   O     O_R   0.723890 0.306050 0.584610 -0.524261
O22   O     O_3   0.500010 0.500010 0.500020 -0.301884
O23   O     O_R   0.171100 0.914680 0.053100 -0.512517
O24   O     O_R   0.941680 0.184840 0.050710 -0.509150
O25   O     O_R   0.922080 0.403420 0.072610 -0.517432
O26   O     O_R   0.196880 0.369150 0.083850 -0.492512

loop_
_geom_bond_atom_site_label_1
_geom_bond_atom_site_label_2
_ccdc_geom_bond_type
C46   H5    S    
C27   C29   T    
C41   C42   T    
C22   H17   S    
C19   C20   A    
C18   C26   A    
C25   H2    S    
Cr1   O18   S    
C20   H16   S    
Cr2   O12   S    
C7    C8    A    
C4    O15   A    
C45   C46   A    
C29   C36   S    
C45   H3    S    
C33   C42   S    
Cr5   O7    S    
C39   O12   A    
C12   C43   A    
C30   C31   T    
C26   C39   S    
C4    O14   A    
C4    C41   S    
C32   O25   A    
Cr4   O23   S    
C33   O26   A    
C19   C26   A    
C15   C37   S    
Cr2   O13   S    
C47   H6    S    
Cr6   O2    S    
C7    C14   A    
C44   H4    S    
C40   O17   A    
C2    C16   S    
C9    C10   A    
C40   O21   A    
C11   H12   S    
C2    C34   A    
C34   H1    S    
C21   C22   A    
C38   O10   A    
C37   O9    A    
C18   C25   A    
Cr4   O6    S    
Cr6   O11   S    
C1    O13   A    
C15   C20   A    
C37   O8    A    
C16   O1    A    
Cr5   O8    S    
C34   C44   A    
C24   C25   A    
C3    C8    A    
Cr3   O15   S    
Cr2   O22   S    
Cr5   O25   S    
C17   C21   A    
C21   H15   S    
Cr4   O11   S    
C43   C44   A    
C7    H8    S    
C5    C9    A    
Cr3   O20   S    
C6    C14   A    
C33   O2    A    
C47   C48   A    
C12   C23   A    
C3    C35   S    
C27   C40   S    
C35   O3    A    
C17   C18   A    
Cr1   O4    S    
C19   H14   S    
Cr3   O21   S    
C32   O24   A    
C8    H10   S    
Cr1   O22   S    
Cr1   O1    S    
Cr4   O5    S    
C39   O20   A    
Cr6   O10   S    
C24   H18   S    
C13   H13   S    
C10   H11   S    
C15   C17   A    
C46   C47   A    
C23   C48   A    
C9    H9    S    
C1    O4    A    
Cr1   O17   S    
C12   C45   A    
C3    C5    A    
C36   O7    A    
Cr3   O16   S    
C38   O5    A    
C35   O23   A    
Cr5   O26   S    
C31   C38   S    
Cr5   O11   S    
C28   C30   S    
C36   O6    A    
C6    C13   A    
C11   C13   A    
C48   H7    S    
C5    C6    A    
C32   C43   S    
Cr4   O24   S    
C28   O19   A    
C22   C24   A    
C10   C11   A    
Cr2   O14   S    
Cr3   O22   S    
Cr6   O3    S    
Cr2   O19   S    
C2    C23   A    
C16   O16   A    
C28   O18   A    
C1    C14   S    
Cr6   O9    S    
