data_mof_unit_48364.cif
_audit_creation_date              2012-12-10T19:46:25-0500
_audit_creation_method            fapswitch 2.2
_symmetry_space_group_name_H-M    P1
_symmetry_Int_Tables_number       1
_space_group_crystal_system       triclinic
_cell_length_a                    10.86334
_cell_length_b                    10.874347
_cell_length_c                    10.435028
_cell_angle_alpha                 90.233816
_cell_angle_beta                  90.439277
_cell_angle_gamma                 88.846891
_cell_volume                      1232.41253186

loop_
_atom_site_label
_atom_site_type_symbol
_atom_type_description
_atom_site_fract_x
_atom_site_fract_y
_atom_site_fract_z
_atom_type_partial_charge
C1    C     C_R   0.496338 0.261573 0.499330 0.843902
C2    C     C_R   0.682308 0.815320 0.746461 -0.125021
C3    C     C_R   0.430123 0.118742 0.261654 0.121709
C4    C     C_R   0.569816 0.881268 0.738391 0.121768
C5    C     C_R   0.503444 0.106468 0.151865 -0.154831
C6    C     C_R   0.496411 0.893648 0.848104 -0.154794
C7    C     C_R   0.464974 0.159864 0.036220 -0.167828
C8    C     C_R   0.534747 0.840299 0.963810 -0.167860
C9    C     C_R   0.352823 0.224694 0.028993 -0.111422
C10   C     C_R   0.646858 0.775415 0.971176 -0.111433
C11   C     C_R   0.479986 0.933614 0.387496 -0.256826
C12   C     C_R   0.503682 0.738426 0.500670 0.843915
C13   C     C_R   0.520116 0.066387 0.612492 -0.256900
C14   C     C_R   0.506947 0.871999 0.502104 -0.060158
C15   C     C_R   0.493123 0.127999 0.497892 -0.060201
C16   C     C_R   0.261776 0.500168 0.499320 0.849018
C17   C     C_R   0.738227 0.499797 0.500681 0.848894
C18   C     C_R   0.529984 0.939132 0.615901 -0.000391
C19   C     C_R   0.470087 0.060867 0.384097 -0.000381
C20   C     C_1   0.500011 0.500025 0.071969 0.075805
C21   C     C_1   0.499988 0.499971 0.928031 0.075832
C22   C     C_R   0.185948 0.882596 0.304353 -0.116392
C23   C     C_R   0.871774 0.501958 0.502531 -0.173074
C24   C     C_R   0.813983 0.117579 0.696417 -0.116345
C25   C     C_R   0.136305 0.792687 0.382622 -0.162765
C26   C     C_R   0.863668 0.207304 0.617919 -0.162650
C27   C     C_R   0.125878 0.671634 0.337595 0.126258
C28   C     C_R   0.874113 0.328473 0.662645 0.126412
C29   C     C_R   0.166952 0.641204 0.213904 -0.012840
C30   C     C_R   0.833032 0.359189 0.786271 -0.012828
C31   C     C_R   0.218522 0.731137 0.136609 -0.138682
C32   C     C_R   0.781402 0.269442 0.863784 -0.138544
C33   C     C_R   0.227029 0.852021 0.181417 -0.135389
C34   C     C_R   0.128232 0.497976 0.497466 -0.173035
C35   C     C_R   0.772863 0.148448 0.819273 -0.135313
C36   C     C_R   0.932869 0.582299 0.419619 -0.044394
C37   C     C_R   0.067142 0.417617 0.580366 -0.044423
C38   C     C_2   0.862400 0.673154 0.339922 0.854534
C39   C     C_2   0.137618 0.326762 0.660064 0.854370
C40   C     C_R   0.938182 0.420246 0.583490 -0.096433
C41   C     C_R   0.061825 0.579704 0.416535 -0.096370
C42   C     C_R   0.279333 0.237414 0.137751 -0.116280
C43   C     C_R   0.720428 0.762576 0.862490 -0.116279
C44   C     C_R   0.317583 0.184623 0.253717 -0.125078
Cu1   Cu    Cu3+1 0.500000 0.500000 0.625300 0.996386
Cu2   Cu    Cu3+1 0.500000 0.500000 0.374700 0.996399
H1    H     H_    0.265385 0.922005 0.120985 0.140400
H2    H     H_    0.807964 0.024098 0.661840 0.141448
H3    H     H_    0.103504 0.817748 0.477138 0.130165
H4    H     H_    0.896482 0.182016 0.523464 0.130119
H5    H     H_    0.157978 0.548422 0.177354 0.121653
H6    H     H_    0.842033 0.452058 0.822597 0.121557
H7    H     H_    0.250485 0.707500 0.041476 0.130242
H8    H     H_    0.749417 0.293316 0.958855 0.130252
H9    H     H_    0.323354 0.265736 0.939286 0.169043
H10   H     H_    0.676227 0.734419 0.060933 0.168911
H11   H     H_    0.192791 0.288279 0.132251 0.141348
H12   H     H_    0.734457 0.078603 0.879869 0.140244
H13   H     H_    0.806930 0.711653 0.868091 0.141324
H14   H     H_    0.259841 0.195219 0.337324 0.146627
H15   H     H_    0.740112 0.804638 0.662910 0.146561
H16   H     H_    0.736657 0.811864 0.334016 0.324063
H17   H     H_    0.263428 0.188112 0.665972 0.324049
H18   H     H_    0.590443 0.056149 0.156085 0.131449
H19   H     H_    0.409446 0.944018 0.843777 0.131451
H20   H     H_    0.521930 0.150915 0.952037 0.132741
H21   H     H_    0.477716 0.849330 0.047929 0.132739
H22   H     H_    0.462326 0.882264 0.300286 0.162865
H23   H     H_    0.537779 0.117739 0.699701 0.162887
H24   H     H_    0.191965 0.975986 0.339167 0.141489
N1    N     N_1   0.500010 0.499990 0.186410 -0.142809
N2    N     N_1   0.499990 0.500010 0.813590 -0.142799
O1    O     O_R   0.499990 0.319650 0.605810 -0.578437
O2    O     O_R   0.777925 0.753983 0.397830 -0.802724
O3    O     O_2   0.120873 0.322308 0.775697 -0.613635
O4    O     O_R   0.222147 0.245987 0.602157 -0.802797
O5    O     O_R   0.500010 0.680350 0.394190 -0.578440
O6    O     O_R   0.499990 0.319640 0.394190 -0.574709
O7    O     O_R   0.500010 0.680360 0.605810 -0.574727
O8    O     O_R   0.319640 0.500010 0.605810 -0.570104
O9    O     O_R   0.680360 0.499990 0.394190 -0.570105
O10   O     O_R   0.319650 0.500010 0.394190 -0.584343
O11   O     O_R   0.680350 0.499990 0.605810 -0.584380
O12   O     O_2   0.879109 0.677567 0.224292 -0.613662

loop_
_geom_bond_atom_site_label_1
_geom_bond_atom_site_label_2
_ccdc_geom_bond_type
C27   C29   A    
C34   C37   A    
C14   C18   A    
Cu1   Cu2   S    
C15   C19   A    
C11   C19   A    
C9    C42   A    
C17   C23   S    
C13   C18   A    
C35   H12   S    
C24   C26   A    
C37   C40   A    
C26   H4    S    
C29   H5    S    
C11   C14   A    
H17   O4    S    
C28   C40   S    
C23   C40   A    
C12   O7    A    
Cu1   O1    S    
C16   C34   S    
Cu2   O10   S    
C6    H19   S    
C22   C25   A    
C31   C33   A    
C20   N1    T    
C3    C19   S    
C1    C15   S    
C39   O3    D    
C10   H10   S    
C2    H15   S    
C43   H13   S    
C4    C18   S    
Cu1   N2    S    
C1    O6    A    
C36   C41   A    
Cu1   O11   S    
C34   C41   A    
C42   C44   A    
C42   H11   S    
C32   H8    S    
C3    C44   A    
C24   C35   A    
C21   N2    T    
C24   H2    S    
C32   C35   A    
C4    C6    A    
C5    C7    A    
C6    C8    A    
C5    H18   S    
C17   O11   A    
C2    C4    A    
Cu2   O9    S    
C27   C41   S    
C2    C43   A    
C12   O5    A    
C16   O10   A    
Cu1   O7    S    
C39   O4    S    
C31   H7    S    
Cu2   N1    S    
C9    H9    S    
C8    C10   A    
C12   C14   S    
C13   C15   A    
C33   H1    S    
C11   H22   S    
Cu2   O6    S    
C38   O2    S    
C7    C9    A    
C22   C33   A    
C30   H6    S    
C38   O12   D    
C10   C43   A    
C3    C5    A    
Cu2   O5    S    
C25   C27   A    
C26   C28   A    
C1    O1    A    
C28   C30   A    
C37   C39   S    
C7    H20   S    
C30   C32   A    
C13   H23   S    
C44   H14   S    
C36   C38   S    
Cu1   O8    S    
C17   O9    A    
C25   H3    S    
C20   C21   S    
C8    H21   S    
C29   C31   A    
C23   C36   A    
H16   O2    S    
C16   O8    A    
C22   H24   S    
