data_mof_unit_45773.cif
_audit_creation_date              2012-12-10T17:50:44-0500
_audit_creation_method            fapswitch 2.2
_symmetry_space_group_name_H-M    P1
_symmetry_Int_Tables_number       1
_space_group_crystal_system       triclinic
_cell_length_a                    14.70822
_cell_length_b                    14.659781
_cell_length_c                    15.847474
_cell_angle_alpha                 77.047189
_cell_angle_beta                  102.646039
_cell_angle_gamma                 114.846103
_cell_volume                      2991.62795392

loop_
_atom_site_label
_atom_site_type_symbol
_atom_type_description
_atom_site_fract_x
_atom_site_fract_y
_atom_site_fract_z
_atom_type_partial_charge
C1    C     C_R   0.880353 0.312117 0.513547 0.805432
C2    C     C_R   0.119689 0.687954 0.485350 0.807058
C3    C     C_R   0.783271 0.030989 0.503474 0.184681
C4    C     C_R   0.214678 0.974988 0.453197 0.184691
C5    C     C_R   0.849868 0.131271 0.512464 -0.192872
C6    C     C_R   0.149132 0.872237 0.459851 -0.192901
C7    C     C_R   0.709117 0.177256 0.507675 -0.255088
C8    C     C_R   0.290967 0.822956 0.481949 -0.262288
C9    C     C_R   0.639281 0.079488 0.493318 0.050746
C10   C     C_R   0.359122 0.924919 0.471863 0.049262
C11   C     C_R   0.677205 0.004687 0.493493 0.142148
C12   C     C_R   0.320514 0.001778 0.460162 0.143471
C13   C     C_R   0.532833 0.054411 0.479616 0.081126
C14   C     C_R   0.465034 0.951787 0.476190 0.082186
C15   C     C_R   0.505054 0.879687 0.475035 -0.227725
C16   C     C_R   0.491968 0.129146 0.466517 -0.229719
C17   C     C_R   0.608371 0.905748 0.482903 -0.227194
C18   C     C_R   0.388490 0.103426 0.456107 -0.225748
C19   C     C_R   0.718551 0.672798 0.359107 -0.323805
C20   C     C_R   0.281366 0.327047 0.640630 -0.322543
C21   C     C_R   0.798921 0.641510 0.380456 0.081535
C22   C     C_R   0.201288 0.358743 0.619764 0.080225
C23   C     C_R   0.999561 0.500056 0.660031 0.828355
C24   C     C_R   0.000429 0.499924 0.339972 0.828658
C25   C     C_R   0.713718 0.507679 0.486702 0.009338
C26   C     C_R   0.285850 0.491765 0.512685 0.011082
C27   C     C_R   0.628507 0.534835 0.467318 -0.021147
C28   C     C_R   0.370731 0.464128 0.531503 -0.021961
C29   C     C_R   0.633448 0.620217 0.402528 0.167294
C30   C     C_R   0.365930 0.378912 0.596450 0.163632
C31   C     C_R   0.540051 0.481808 0.510184 0.076523
C32   C     C_R   0.458860 0.516703 0.488153 0.080841
C33   C     C_R   0.468752 0.603105 0.423882 -0.238771
C34   C     C_R   0.529859 0.394975 0.574002 -0.239341
C35   C     C_R   0.554043 0.653233 0.381899 -0.210978
C36   C     C_R   0.444879 0.345270 0.616421 -0.199721
C37   C     C_3   0.983333 0.405892 0.043921 -0.157357
C38   C     C_3   0.016611 0.593937 0.956117 -0.157148
C39   C     C_3   0.909507 0.434430 0.967545 -0.158399
C40   C     C_3   0.090436 0.565399 0.032490 -0.158478
C41   C     C_1   0.998770 0.500238 0.749649 -0.179686
C42   C     C_1   0.001194 0.499685 0.250366 -0.178736
C43   C     C_3   0.073073 0.471551 0.992014 -0.155937
C44   C     C_3   0.926871 0.528278 0.008021 -0.155420
C45   C     C_3   0.999250 0.500089 0.917181 0.190067
C46   C     C_3   0.000694 0.499742 0.082853 0.190005
C47   C     C_1   0.998717 0.500232 0.825284 -0.074196
C48   C     C_1   0.001233 0.499639 0.174740 -0.074013
C49   C     C_R   0.812909 0.204500 0.513633 -0.099843
C50   C     C_R   0.187097 0.796255 0.475316 -0.099948
Cu1   Cu    Cu3+1 0.081740 0.475690 0.522610 0.938078
Cu2   Cu    Cu3+1 0.918260 0.524310 0.477390 0.938753
H1    H     H_    0.835234 0.380713 0.939506 0.130969
H2    H     H_    0.164709 0.619116 0.060533 0.131135
H3    H     H_    0.281384 0.553372 0.462589 0.121668
H4    H     H_    0.718105 0.446052 0.536806 0.121389
H5    H     H_    0.135389 0.318003 0.653021 0.126545
H6    H     H_    0.865142 0.682682 0.347662 0.125559
H7    H     H_    0.723222 0.738205 0.309382 0.136136
H8    H     H_    0.276853 0.261829 0.690536 0.137390
H9    H     H_    0.633400 0.846703 0.480914 0.168591
H10   H     H_    0.362741 0.164713 0.445925 0.166582
H11   H     H_    0.068370 0.851348 0.454685 0.156881
H12   H     H_    0.930658 0.152720 0.517077 0.157685
H13   H     H_    0.458248 0.802511 0.464725 0.140626
H14   H     H_    0.537746 0.209454 0.460702 0.147291
H15   H     H_    0.558084 0.719169 0.332925 0.142136
H16   H     H_    0.440777 0.279260 0.665314 0.142429
N1    N     N_R   0.795440 0.560790 0.443380 -0.176766
N2    N     N_R   0.204560 0.439210 0.556620 -0.177199
O1    O     O_R   0.977900 0.338120 0.529810 -0.591574
O2    O     O_R   0.022100 0.661880 0.470190 -0.591409
O3    O     O_R   0.839850 0.379180 0.491620 -0.587625
O4    O     O_R   0.160150 0.620820 0.508380 -0.588962
O5    O     O_R   0.069010 0.479460 0.640020 -0.575699
O6    O     O_R   0.930990 0.520540 0.359980 -0.575656
O7    O     O_R   0.930960 0.520530 0.601820 -0.576885
O8    O     O_R   0.069040 0.479470 0.398180 -0.577545
H17   H     H_    0.411719 0.634508 0.404343 0.127510
H18   H     H_    0.586379 0.362868 0.592802 0.130605
H19   H     H_    0.969726 0.328727 0.081342 0.131891
H20   H     H_    0.030219 0.671104 0.918700 0.131962
H21   H     H_    0.866871 0.551563 0.015978 0.132660
H22   H     H_    0.133074 0.448266 0.984059 0.132494
H23   H     H_    0.317448 0.762191 0.497929 0.159283
H24   H     H_    0.684729 0.234271 0.515290 0.150560
C51   C     C_3   0.827048 0.954590 0.502962 -0.905233
H25   H     H_    0.911102 0.988818 0.511452 0.232049
H26   H     H_    0.803572 0.890918 0.557376 0.238768
H27   H     H_    0.800125 0.924635 0.439665 0.232140
C52   C     C_3   0.170015 0.053893 0.439593 -0.906584
H28   H     H_    0.086262 0.018882 0.435768 0.231856
H29   H     H_    0.200655 0.098199 0.495034 0.236350
H30   H     H_    0.188771 0.105911 0.377460 0.235775

loop_
_geom_bond_atom_site_label_1
_geom_bond_atom_site_label_2
_ccdc_geom_bond_type
C51   H25   S    
C27   C29   A    
C24   C42   S    
Cu1   O4    S    
C44   H21   S    
C5    C49   A    
C26   H3    S    
C22   H5    S    
C20   C30   A    
C40   C46   S    
C1    O1    A    
C19   C21   A    
Cu1   O5    S    
C7    H24   S    
C15   H13   S    
C15   C17   A    
C8    H23   S    
C9    C13   A    
C38   C45   S    
Cu2   N1    S    
C2    C50   S    
C34   H18   S    
C40   C43   S    
C25   H4    S    
Cu1   N2    S    
C4    C12   A    
C2    O4    A    
C39   C45   S    
C4    C52   S    
C17   H9    S    
C13   C14   A    
C38   H20   S    
C43   H22   S    
C37   H19   S    
Cu1   O1    S    
C2    O2    A    
C44   C46   S    
C45   C47   S    
C46   C48   S    
C3    C51   S    
Cu1   Cu2   S    
C28   C32   A    
C7    C49   A    
C4    C6    A    
Cu2   O3    S    
C10   C14   A    
C52   H28   S    
C33   H17   S    
C19   H7    S    
C27   C31   A    
C6    C50   A    
C5    H12   S    
C21   N1    A    
C6    H11   S    
C37   C43   S    
C38   C44   S    
Cu2   O2    S    
C52   H29   S    
C9    C11   A    
C31   C32   A    
C35   H15   S    
C3    C5    A    
C41   C47   T    
C31   C34   A    
C16   C18   A    
C42   C48   T    
C23   O7    A    
C43   C45   S    
C16   H14   S    
C10   C12   A    
C24   O8    A    
C20   C22   A    
C40   H2    S    
C51   H26   S    
C26   N2    A    
C51   H27   S    
C20   H8    S    
Cu2   O7    S    
C19   C29   A    
C8    C50   A    
C7    C9    A    
C11   C17   A    
C24   O6    A    
C23   O5    A    
Cu2   O6    S    
C36   H16   S    
C39   C44   S    
C25   C27   A    
C29   C35   A    
C26   C28   A    
C23   C41   S    
C30   C36   A    
C1    O3    A    
C32   C33   A    
C28   C30   A    
Cu1   O8    S    
C21   H6    S    
C37   C39   S    
C52   H30   S    
C38   C40   S    
C39   H1    S    
C33   C35   A    
C34   C36   A    
C3    C11   A    
C25   N1    A    
C8    C10   A    
C13   C16   A    
C12   C18   A    
C14   C15   A    
C18   H10   S    
C37   C46   S    
C1    C49   S    
C22   N2    A    
