data_mof_unit_33675.cif
_audit_creation_date              2012-10-26T20:03:05-0400
_audit_creation_method            fapswitch 2.2
_symmetry_space_group_name_H-M    P1
_symmetry_Int_Tables_number       1
_space_group_crystal_system       triclinic
_cell_length_a                    10.783018
_cell_length_b                    12.412237
_cell_length_c                    13.307994
_cell_angle_alpha                 116.986493
_cell_angle_beta                  75.436784
_cell_angle_gamma                 101.65722
_cell_volume                      1528.21119833

loop_
_atom_site_label
_atom_site_type_symbol
_atom_type_description
_atom_site_fract_x
_atom_site_fract_y
_atom_site_fract_z
_atom_type_partial_charge
Br1   Br    Br    0.900364 0.840387 0.255218 -0.461529
Br2   Br    Br    0.778812 0.115861 0.261638 -0.448601
Br3   Br    Br    0.223817 0.891224 0.736399 -0.410067
Br4   Br    Br    0.092544 0.624561 0.733876 -0.361391
Br5   Br    Br    0.794239 0.892815 0.672791 -0.481364
C1    C     C_R   0.512554 0.854855 0.286719 0.541627
C2    C     C_R   0.521904 0.563009 0.012573 0.031526
C3    C     C_R   0.475058 0.647598 0.125571 0.028085
C4    C     C_R   0.739302 0.001434 0.502333 0.586665
C5    C     C_R   0.479737 0.437123 0.979514 0.028739
C6    C     C_R   0.393327 0.398403 0.059580 0.049140
C7    C     C_R   0.342146 0.483588 0.166837 -0.130855
C8    C     C_R   0.378288 0.606226 0.197406 -0.109535
C9    C     C_R   0.516832 0.348481 0.868109 -0.105502
C10   C     C_R   0.391317 0.189209 0.918165 -0.103584
C11   C     C_R   0.525695 0.771725 0.163645 0.007259
C12   C     C_3   0.121762 0.994808 0.497363 -0.067360
C13   C     C_R   0.703385 0.344117 0.320727 -0.103276
C14   C     C_R   0.314342 0.750705 0.637928 0.358518
C15   C     C_R   0.259077 0.641064 0.643738 0.195778
C16   C     C_R   0.484164 0.144743 0.713301 0.577435
C17   C     C_R   0.324061 0.538674 0.580711 -0.106821
C18   C     C_R   0.449116 0.545013 0.518681 -0.021676
C19   C     C_R   0.493252 0.652158 0.500209 0.154234
C20   C     C_R   0.526317 0.444474 0.466621 -0.013582
C21   C     C_R   0.632173 0.443892 0.379529 -0.008788
C22   C     C_R   0.668227 0.544294 0.353530 -0.137107
C23   C     C_3   0.072905 0.116036 0.594206 -0.256680
C24   C     C_R   0.602553 0.647590 0.414908 -0.061128
C25   C     C_R   0.506544 0.347507 0.501393 0.164065
C26   C     C_R   0.672087 0.245376 0.348860 0.296642
C27   C     C_R   0.260488 0.997608 0.497587 0.542643
C28   C     C_3   0.960175 0.984758 0.382956 0.022624
C29   C     C_3   0.104221 0.985939 0.381741 -0.211303
C30   C     C_3   0.928818 0.120335 0.598932 -0.106723
C31   C     C_3   0.894197 0.890974 0.526076 0.001610
C32   C     C_3   0.877193 0.000288 0.502791 -0.008108
C33   C     C_2   0.434713 0.370522 0.618285 0.591002
C34   C     C_3   0.037663 0.886894 0.521487 -0.029368
C35   C     C_2   0.907620 0.236956 0.597493 0.598363
C36   C     C_2   0.077928 0.760726 0.438970 0.576284
C37   C     C_R   0.354087 0.274659 0.029629 -0.114840
C38   C     C_R   0.467156 0.226961 0.835625 0.016739
C39   C     C_R   0.604989 0.812871 0.084384 -0.085178
C40   C     C_R   0.645315 0.731643 0.972230 -0.077514
C41   C     C_R   0.608557 0.607979 0.937365 -0.084715
Cu1   Cu    Cu3+1 0.529690 0.098270 0.475420 1.078704
Cu2   Cu    Cu3+1 0.470310 0.901730 0.524580 1.046749
H1    H     H_    0.950707 0.061301 0.365149 0.225163
H2    H     H_    0.649875 0.550887 0.850800 0.156444
H3    H     H_    0.709743 0.764310 0.912822 0.188393
H4    H     H_    0.326983 0.667842 0.277558 0.176321
H5    H     H_    0.750485 0.544455 0.287035 0.154666
H6    H     H_    0.784150 0.342751 0.252590 0.147500
H7    H     H_    0.273372 0.453753 0.579010 0.174176
H8    H     H_    0.638420 0.720450 0.390339 0.194864
H9    H     H_    0.145669 0.904856 0.308929 0.203329
H10   H     H_    0.159043 0.065732 0.367787 0.142132
H11   H     H_    0.132033 0.193496 0.579360 0.214261
H12   H     H_    0.049145 0.902547 0.607910 0.204312
H13   H     H_    0.855752 0.805144 0.459836 0.199731
H14   H     H_    0.410353 0.486780 0.785840 0.343142
H15   H     H_    0.814912 0.388242 0.677269 0.360452
H16   H     H_    0.090296 0.624085 0.279701 0.339323
H17   H     H_    0.875089 0.124139 0.683341 0.173844
H18   H     H_    0.086363 0.126465 0.678558 0.155470
H19   H     H_    0.355532 0.094967 0.895727 0.186209
H20   H     H_    0.270867 0.455535 0.226382 0.134478
H21   H     H_    0.290291 0.244517 0.091192 0.137441
H22   H     H_    0.579726 0.371757 0.802761 0.168297
H23   H     H_    0.641079 0.907486 0.110060 0.190886
N1    N     N_R   0.574690 0.246280 0.438200 -0.254945
N2    N     N_R   0.426100 0.754320 0.561190 -0.249809
O1    O     O_R   0.537340 0.972510 0.318130 -0.475084
O2    O     O_R   0.472058 0.474873 0.711082 -0.717801
O3    O     O_2   0.966076 0.265340 0.520070 -0.495555
O4    O     O_R   0.821663 0.313364 0.687063 -0.686095
O5    O     O_2   0.115236 0.700539 0.475073 -0.478542
O6    O     O_R   0.066799 0.710708 0.323682 -0.693475
O7    O     O_R   0.487200 0.806530 0.359650 -0.542020
O8    O     O_R   0.707380 0.082980 0.479220 -0.450980
O9    O     O_R   0.657240 0.917000 0.520740 -0.496245
O10   O     O_R   0.512800 0.193470 0.640350 -0.475443
O11   O     O_R   0.462660 0.027490 0.681870 -0.465935
O12   O     O_R   0.342760 0.083000 0.479260 -0.480629
O13   O     O_R   0.292620 0.917020 0.520780 -0.471918
O14   O     O_2   0.337879 0.305451 0.633589 -0.524192

loop_
_geom_bond_atom_site_label_1
_geom_bond_atom_site_label_2
_ccdc_geom_bond_type
C2    C5    A    
C3    C8    A    
C22   C24   A    
C14   C15   A    
C13   C21   A    
Br1   C28   S    
C2    C3    A    
C34   C36   S    
C40   C41   A    
C7    H20   S    
C21   C22   A    
C6    C37   A    
C40   H3    S    
Cu1   O12   S    
C31   C32   S    
C30   C32   S    
C19   N2    A    
C34   H12   S    
C28   H1    S    
Br5   C31   S    
C25   C33   S    
C39   H23   S    
C12   C34   S    
C19   C24   A    
C16   C38   S    
C16   O10   A    
C23   C30   S    
C29   H9    S    
C18   C19   A    
Br3   C14   S    
Cu1   O10   S    
C11   C39   A    
C4    O9    A    
Cu1   O8    S    
C10   H19   S    
C3    C11   A    
C9    H22   S    
C1    O1    A    
C33   O2    S    
C2    C41   A    
C14   N2    A    
Cu1   O1    S    
C5    C9    A    
C36   O5    D    
C20   C21   A    
C37   H21   S    
C28   C32   S    
C35   O3    D    
Br2   C26   S    
C23   H18   S    
C8    H4    S    
C1    O7    A    
Cu1   Cu2   S    
C16   O11   A    
C27   O13   A    
C4    C32   S    
C28   C29   S    
C26   N1    A    
C15   C17   A    
H16   O6    S    
Cu2   O13   S    
H14   O2    S    
C12   C29   S    
C31   H13   S    
C39   C40   A    
H15   O4    S    
C23   H11   S    
C20   C25   A    
C17   C18   A    
C12   C23   S    
Cu2   N2    S    
C31   C34   S    
C10   C37   A    
C36   O6    S    
C25   N1    A    
C6    C7    A    
C22   H5    S    
C17   H7    S    
C24   H8    S    
C41   H2    S    
C33   O14   D    
Cu2   O7    S    
C30   C35   S    
C10   C38   A    
C27   O12   A    
Cu2   O9    S    
C18   C20   A    
Cu1   N1    S    
C5    C6    A    
C13   H6    S    
C1    C11   S    
Br4   C15   S    
Cu2   O11   S    
C7    C8    A    
C29   H10   S    
C12   C27   S    
C30   H17   S    
C35   O4    S    
C13   C26   A    
C4    O8    A    
C9    C38   A    
