data_mof_unit_43963.cif
_audit_creation_date              2012-12-10T18:39:53-0500
_audit_creation_method            fapswitch 2.2
_symmetry_space_group_name_H-M    P1
_symmetry_Int_Tables_number       1
_space_group_crystal_system       triclinic
_cell_length_a                    15.125787
_cell_length_b                    13.898402
_cell_length_c                    23.519167
_cell_angle_alpha                 90.022886
_cell_angle_beta                  90.70644
_cell_angle_gamma                 90.005463
_cell_volume                      4943.92343875

loop_
_atom_site_label
_atom_site_type_symbol
_atom_type_description
_atom_site_fract_x
_atom_site_fract_y
_atom_site_fract_z
_atom_type_partial_charge
C1    C     C_R   0.329960 0.499828 0.499741 0.844492
C2    C     C_R   0.670039 0.499834 0.500236 0.844782
C3    C     C_R   0.489999 0.412666 0.238875 -0.122966
C4    C     C_R   0.509789 0.413100 0.761164 -0.119212
C5    C     C_R   0.490353 0.412809 0.298154 -0.213311
C6    C     C_R   0.509617 0.413117 0.701887 -0.217334
C7    C     C_R   0.499376 0.499738 0.328291 -0.041208
C8    C     C_R   0.500526 0.499915 0.671711 -0.041607
C9    C     C_R   0.508075 0.586356 0.298012 -0.243532
C10   C     C_R   0.491619 0.586562 0.701937 -0.243983
C11   C     C_R   0.507171 0.586048 0.238742 -0.107771
C12   C     C_R   0.492293 0.586425 0.761201 -0.103463
C13   C     C_R   0.498328 0.499240 0.209066 0.370941
C14   C     C_R   0.501152 0.499715 0.791083 0.359266
C15   C     C_R   0.093314 0.570696 0.472974 0.453189
C16   C     C_R   0.902597 0.416660 0.476492 0.452482
C17   C     C_R   0.906742 0.570696 0.526854 0.453219
C18   C     C_R   0.097331 0.416611 0.523210 0.452491
C19   C     C_R   0.185338 0.574416 0.475635 -0.272754
C20   C     C_R   0.810602 0.418922 0.477749 -0.324924
C21   C     C_R   0.814715 0.574413 0.524275 -0.272919
C22   C     C_R   0.189334 0.418877 0.522034 -0.325665
C23   C     C_R   0.233522 0.498310 0.499454 -0.175546
C24   C     C_R   0.766474 0.498325 0.500441 -0.175894
C25   C     C_R   0.048574 0.492620 0.498488 -0.084761
C26   C     C_R   0.951420 0.492648 0.501235 -0.084700
C27   C     C_R   0.499792 0.499958 0.390898 0.786794
C28   C     C_R   0.500205 0.500000 0.609103 0.788030
C29   C     C_R   0.546693 0.107964 0.541547 -0.379026
C30   C     C_R   0.432092 0.892590 0.473424 -0.365270
C31   C     C_R   0.453301 0.107901 0.458450 -0.378598
C32   C     C_R   0.567898 0.892638 0.526579 -0.365929
C33   C     C_R   0.549496 0.209656 0.539549 0.572701
C34   C     C_R   0.434843 0.791003 0.471483 0.579510
C35   C     C_R   0.450509 0.209596 0.460447 0.572723
C36   C     C_R   0.565137 0.791041 0.528539 0.579555
C37   C     C_R   0.499997 0.054873 0.499997 0.081003
C38   C     C_R   0.499998 0.945681 0.499997 0.066669
C39   C     C_R   0.575044 0.470846 0.881432 0.527378
C40   C     C_R   0.424599 0.528654 0.119021 0.528233
C41   C     C_R   0.426002 0.528045 0.879870 0.528513
C42   C     C_R   0.572914 0.469260 0.120571 0.530220
C43   C     C_R   0.424169 0.528949 0.939492 -0.013088
C44   C     C_R   0.574945 0.468849 0.060957 -0.014380
C45   C     C_R   0.499839 0.499191 0.970220 -0.018959
C46   C     C_R   0.499384 0.499048 0.030227 -0.018932
C47   C     C_R   0.575966 0.469595 0.941088 -0.012381
C48   C     C_R   0.423387 0.529148 0.059365 -0.013071
C49   C     C_R   0.348647 0.558550 0.968975 -0.167130
C50   C     C_R   0.650472 0.439321 0.031481 -0.167531
C51   C     C_R   0.348307 0.558788 0.028295 -0.167892
C52   C     C_R   0.651023 0.439825 0.972165 -0.167305
Cu1   Cu    Cu3+1 0.500000 0.596430 0.500000 0.998036
Cu2   Cu    Cu3+1 0.500000 0.403570 0.500000 0.997855
H1    H     H_    0.289618 0.581758 0.946341 0.186950
H2    H     H_    0.709414 0.415865 0.054120 0.186743
H3    H     H_    0.289046 0.582166 0.049683 0.186400
H4    H     H_    0.710381 0.416726 0.950785 0.186868
H5    H     H_    0.483094 0.345371 0.216031 0.136968
H6    H     H_    0.516298 0.345704 0.783918 0.144319
H7    H     H_    0.483471 0.344966 0.320282 0.187006
H8    H     H_    0.516590 0.345230 0.679787 0.187152
H9    H     H_    0.516150 0.654255 0.320023 0.146813
H10   H     H_    0.483643 0.654411 0.679885 0.148104
H11   H     H_    0.513996 0.653124 0.215804 0.134765
H12   H     H_    0.485756 0.653723 0.783982 0.142307
H13   H     H_    0.219022 0.635681 0.457575 0.205900
H14   H     H_    0.773813 0.359123 0.459681 0.174784
H15   H     H_    0.781070 0.635652 0.542413 0.205521
H16   H     H_    0.226077 0.359058 0.540079 0.174253
H17   H     H_    0.580699 0.071689 0.576034 0.151414
H18   H     H_    0.375889 0.928976 0.454724 0.154099
H19   H     H_    0.419286 0.071575 0.423965 0.151306
H20   H     H_    0.624085 0.929077 0.545282 0.153892
N1    N     N_R   0.500747 0.499552 0.852126 -0.467402
N2    N     N_R   0.498567 0.498946 0.148182 -0.469617
N3    N     N_R   0.500000 0.258690 0.500000 -0.238346
N4    N     N_R   0.500000 0.741310 0.500000 -0.244454
O1    O     O_R   0.371460 0.581430 0.500000 -0.533568
O2    O     O_R   0.628540 0.418570 0.500000 -0.583320
O3    O     O_R   0.628540 0.581430 0.500000 -0.533776
O4    O     O_R   0.371460 0.418570 0.500000 -0.583801
O5    O     O_R   0.499970 0.581450 0.417880 -0.590314
O6    O     O_R   0.500030 0.418550 0.582120 -0.540408
O7    O     O_R   0.500030 0.581450 0.582120 -0.589537
O8    O     O_R   0.499970 0.418550 0.417880 -0.540042
O9    O     O_2   0.648012 0.444411 0.852910 -0.548784
O10   O     O_2   0.352444 0.557127 0.147715 -0.547945
O11   O     O_2   0.353445 0.554598 0.849821 -0.546383
O12   O     O_2   0.644709 0.440830 0.150769 -0.543445
O13   O     O_3   0.595521 0.260961 0.580748 -0.592844
C53   C     C_3   0.686899 0.238544 0.580725 0.050429
H21   H     H_    0.723608 0.305760 0.571302 0.184308
H22   H     H_    0.706951 0.184743 0.548013 0.120700
C54   C     C_3   0.715082 0.203506 0.639827 -0.361274
H23   H     H_    0.695889 0.257850 0.672117 0.235970
H24   H     H_    0.680797 0.134907 0.649620 0.210781
C55   C     C_3   0.814759 0.187699 0.643509 -0.901006
H25   H     H_    0.835428 0.132504 0.612191 0.257856
H26   H     H_    0.833333 0.162514 0.686830 0.262072
H27   H     H_    0.850059 0.256155 0.634936 0.259798
O14   O     O_3   0.366956 0.741178 0.444947 -0.593181
C56   C     C_3   0.367770 0.755471 0.385332 0.050029
H28   H     H_    0.367619 0.683152 0.365238 0.179073
H29   H     H_    0.427344 0.794062 0.369345 0.112255
C57   C     C_3   0.283870 0.808520 0.366228 -0.385244
H30   H     H_    0.225699 0.775659 0.386950 0.234740
H31   H     H_    0.287503 0.885114 0.379342 0.209374
C58   C     C_3   0.271232 0.803896 0.301804 -0.892108
H32   H     H_    0.328719 0.836857 0.280247 0.259602
H33   H     H_    0.210539 0.843986 0.289326 0.258047
H34   H     H_    0.263874 0.728005 0.287648 0.267587
O15   O     O_3   0.404486 0.260833 0.419247 -0.593183
C59   C     C_3   0.313090 0.238493 0.419336 0.052288
H35   H     H_    0.276454 0.305774 0.428725 0.184070
H36   H     H_    0.293032 0.184825 0.452100 0.120544
C60   C     C_3   0.284787 0.203274 0.360278 -0.364250
H37   H     H_    0.304030 0.257460 0.327932 0.231742
H38   H     H_    0.318951 0.134578 0.350528 0.211043
C61   C     C_3   0.185081 0.187625 0.356655 -0.903920
H39   H     H_    0.164353 0.132605 0.388040 0.258911
H40   H     H_    0.166425 0.162284 0.313369 0.260758
H41   H     H_    0.149901 0.256179 0.365172 0.259910
O16   O     O_3   0.632963 0.741207 0.555112 -0.593036
C62   C     C_3   0.632640 0.756281 0.614675 0.047506
H42   H     H_    0.632370 0.684231 0.635069 0.177580
H43   H     H_    0.573464 0.795594 0.630668 0.112708
C63   C     C_3   0.717066 0.808844 0.633322 -0.376703
H44   H     H_    0.774867 0.775002 0.612713 0.234262
H45   H     H_    0.714061 0.885214 0.619741 0.209247
C64   C     C_3   0.729930 0.805334 0.697748 -0.907913
H46   H     H_    0.672819 0.839290 0.719193 0.258934
H47   H     H_    0.791010 0.845054 0.709876 0.260213
H48   H     H_    0.736704 0.729648 0.712355 0.262116
O17   O     O_3   0.048061 0.647571 0.448926 -0.571159
C65   C     C_3   0.013134 0.621517 0.394936 0.072302
H49   H     H_    0.950397 0.661783 0.388373 0.173940
H50   H     H_    0.995766 0.544025 0.391275 0.100480
C66   C     C_3   0.077192 0.649638 0.347893 -0.385620
H51   H     H_    0.085938 0.728979 0.348046 0.232702
H52   H     H_    0.142493 0.615169 0.355713 0.218354
C67   C     C_3   0.042495 0.618478 0.289560 -0.880309
H53   H     H_    0.034935 0.538995 0.287935 0.253418
H54   H     H_    0.090009 0.640708 0.256428 0.267581
H55   H     H_    0.977604 0.652859 0.280312 0.256928
O18   O     O_3   0.944206 0.336948 0.453943 -0.562982
C68   C     C_3   0.948207 0.345197 0.394121 0.032247
H56   H     H_    0.013262 0.376646 0.382872 0.144310
H57   H     H_    0.894695 0.390985 0.375175 0.125300
C69   C     C_3   0.940825 0.244875 0.367953 -0.314067
H58   H     H_    0.992844 0.197498 0.386486 0.236551
H59   H     H_    0.875276 0.213630 0.378218 0.218704
C70   C     C_3   0.950882 0.248205 0.303496 -0.912026
H60   H     H_    0.897672 0.292817 0.283985 0.265947
H61   H     H_    0.946153 0.174195 0.285932 0.261179
H62   H     H_    0.016187 0.278837 0.292216 0.257024
O19   O     O_3   0.952051 0.647536 0.550946 -0.571389
C71   C     C_3   0.987169 0.621378 0.604856 0.073132
H63   H     H_    0.050021 0.661495 0.611326 0.174757
H64   H     H_    0.004373 0.543839 0.608452 0.100533
C72   C     C_3   0.923381 0.649631 0.652030 -0.386620
H65   H     H_    0.914738 0.728985 0.651908 0.233109
H66   H     H_    0.858002 0.615240 0.644328 0.218213
C73   C     C_3   0.958322 0.618475 0.710290 -0.879154
H67   H     H_    0.965786 0.538984 0.711886 0.253964
H68   H     H_    0.911002 0.640799 0.743523 0.264441
H69   H     H_    0.023300 0.652778 0.719413 0.259120
O20   O     O_3   0.055637 0.336885 0.545651 -0.563050
C74   C     C_3   0.051899 0.344826 0.605502 0.032309
H70   H     H_    0.986987 0.376431 0.616935 0.144668
H71   H     H_    0.105617 0.390339 0.624469 0.124854
C75   C     C_3   0.059079 0.244337 0.631415 -0.313705
H72   H     H_    0.006787 0.197268 0.612893 0.236688
H73   H     H_    0.124455 0.212893 0.620919 0.218043
C76   C     C_3   0.049409 0.247358 0.695907 -0.915130
H74   H     H_    0.102913 0.291620 0.715396 0.262762
H75   H     H_    0.053941 0.173232 0.713282 0.261275
H76   H     H_    0.984301 0.278227 0.707420 0.259117

loop_
_geom_bond_atom_site_label_1
_geom_bond_atom_site_label_2
_ccdc_geom_bond_type
C41   O11   S    
O19   C71   S    
C28   O6    A    
C74   H71   S    
C74   H70   S    
C54   H23   S    
C39   O9    S    
C64   H48   S    
C63   H44   S    
C60   H38   S    
Cu2   O6    S    
C59   H35   S    
C54   C55   S    
O17   C65   S    
C76   H75   S    
Cu1   Cu2   S    
C61   H39   S    
C15   C19   A    
C34   O14   S    
C17   C26   A    
C32   C36   A    
Cu1   O3    S    
C73   H67   S    
C36   O16   S    
O18   C68   S    
C58   H33   S    
C32   H20   S    
C66   C67   S    
C31   H19   S    
C15   O17   S    
C57   H30   S    
C29   C33   A    
C11   C13   A    
C7    C27   S    
C30   C38   A    
C16   O18   S    
C57   C58   S    
C71   C72   S    
C48   C51   A    
C20   C24   A    
C44   C46   A    
C49   C51   A    
C69   C70   S    
C62   C63   S    
C50   C52   A    
C19   H13   S    
C51   H3    S    
C32   C38   A    
C70   H61   S    
C17   O19   S    
C3    C13   A    
C61   H41   S    
Cu2   N3    S    
C9    H9    S    
C71   H64   S    
C41   C43   A    
C67   H55   S    
C18   C25   A    
C42   C44   A    
C65   C66   S    
C22   C23   A    
C72   H66   S    
C61   H40   S    
C72   H65   S    
C76   H76   S    
Cu2   O2    S    
C45   C47   A    
C31   C37   A    
C16   C26   A    
C52   H4    S    
C46   C48   A    
C30   C34   A    
C68   H56   S    
C68   C69   S    
C4    C6    A    
C60   C61   S    
O13   C53   S    
C5    C7    A    
C18   O20   S    
C43   C49   A    
C6    C8    A    
C64   H47   S    
C1    O4    A    
C45   C46   A    
C39   C47   A    
C12   H12   S    
C35   N3    A    
C53   C54   S    
C50   H2    S    
C40   N2    A    
C21   H15   S    
C42   O12   S    
C27   O8    A    
C19   C23   A    
C37   C38   S    
C41   N1    A    
C43   C45   A    
C30   H18   S    
C76   H74   S    
C13   N2    S    
C16   C20   A    
C49   H1    S    
C4    H6    S    
C53   H22   S    
C5    H7    S    
C56   H29   S    
C70   H62   S    
C9    C11   A    
C10   C12   A    
C65   H50   S    
O20   C74   S    
C12   C14   A    
C1    C23   S    
C39   N1    A    
C2    C24   S    
C71   H63   S    
C1    O1    A    
C74   C75   S    
C69   H59   S    
C58   H34   S    
C64   H46   S    
C63   C64   S    
Cu2   O4    S    
C72   C73   S    
C75   H72   S    
C75   C76   S    
Cu2   O8    S    
O15   C59   S    
C44   C50   A    
C40   C48   A    
C68   H57   S    
C18   C22   A    
C42   N2    A    
C20   H14   S    
C73   H69   S    
C10   H10   S    
C65   H49   S    
C3    C5    A    
C63   H45   S    
C59   H36   S    
C66   H51   S    
C54   H24   S    
C47   C52   A    
C55   H27   S    
C55   H26   S    
C69   H58   S    
Cu1   O5    S    
Cu1   O1    S    
C14   N1    S    
C6    H8    S    
C73   H68   S    
Cu1   N4    S    
C25   C26   S    
C36   N4    A    
C58   H32   S    
C34   N4    A    
C66   H52   S    
C33   N3    A    
C62   H42   S    
C57   H31   S    
C8    C28   S    
C27   O5    A    
C53   H21   S    
C75   H73   S    
C35   O15   S    
C56   C57   S    
C31   C35   A    
C4    C14   A    
O14   C56   S    
C17   C21   A    
C28   O7    A    
C59   C60   S    
C2    O2    A    
C7    C9    A    
C15   C25   A    
C8    C10   A    
C55   H25   S    
C21   C24   A    
C29   C37   A    
C56   H28   S    
C62   H43   S    
C67   H53   S    
C2    O3    A    
Cu1   O7    S    
C70   H60   S    
C60   H37   S    
C22   H16   S    
C67   H54   S    
C40   O10   S    
C11   H11   S    
O16   C62   S    
C29   H17   S    
C33   O13   S    
C3    H5    S    
