data_mof_unit_50858.cif
_audit_creation_date              2013-03-05T16:30:58-0500
_audit_creation_method            fapswitch 2.2
_symmetry_space_group_name_H-M    P1
_symmetry_Int_Tables_number       1
_space_group_crystal_system       triclinic
_cell_length_a                    12.978109
_cell_length_b                    10.840764
_cell_length_c                    9.635464
_cell_angle_alpha                 90.240893
_cell_angle_beta                  95.913126
_cell_angle_gamma                 92.187065
_cell_volume                      1347.39822884

loop_
_atom_site_label
_atom_site_type_symbol
_atom_site_description
_atom_site_fract_x
_atom_site_fract_y
_atom_site_fract_z
_atom_type_partial_charge
O1    O     O_R   0.500000 0.319640 0.618810 -0.544628
O2    O     O_R   0.500010 0.319680 0.381230 -0.594928
C1    C     C_R   0.498861 0.262539 0.499679 0.816918
O3    O     O_R   0.348990 0.499960 0.599490 -0.529958
O4    O     O_R   0.349000 0.500000 0.361910 -0.550908
C2    C     C_R   0.301037 0.499446 0.474110 0.824072
Cu1   Cu    Cu3+1 0.499990 0.499980 0.640670 1.012581
Cu2   Cu    Cu3+1 0.500010 0.500020 0.359330 1.043127
O5    O     O_R   0.499990 0.680320 0.618770 -0.592330
O6    O     O_R   0.500000 0.680360 0.381190 -0.538999
O7    O     O_R   0.651000 0.500000 0.638090 -0.588114
O8    O     O_R   0.651010 0.500040 0.400510 -0.548533
C3    C     C_R   0.497461 0.737352 0.500133 0.792985
C4    C     C_R   0.698984 0.498803 0.525603 0.833928
C5    C     C_R   0.811769 0.503173 0.537822 -0.159005
C6    C     C_R   0.188557 0.492441 0.458768 -0.084751
C7    C     C_R   0.027843 0.411046 0.334090 0.483534
C8    C     C_R   0.136100 0.423084 0.349921 -0.298217
C9    C     C_R   0.133860 0.551046 0.555039 -0.167808
C10   C     C_R   0.026417 0.535814 0.546505 0.064262
C11   C     C_R   0.972220 0.460726 0.439186 -0.037580
C12   C     C_R   0.864486 0.439091 0.440791 0.291158
C13   C     C_R   0.866209 0.579784 0.639303 -0.242364
C14   C     C_R   0.973081 0.593886 0.645630 -0.149474
H1    H     H_    0.825758 0.630772 0.712174 0.159298
H2    H     H_    0.013934 0.652415 0.726451 0.153258
H3    H     H_    0.179917 0.375908 0.278598 0.188844
H4    H     H_    0.175275 0.607177 0.637765 0.173435
C15   C     C_R   0.489325 0.064449 0.623696 0.159070
C16   C     C_R   0.489384 0.128885 0.498677 -0.089385
C17   C     C_R   0.474061 0.062093 0.372611 -0.199374
H5    H     H_    0.471003 0.107721 0.273195 0.159682
C18   C     C_R   0.468985 0.933656 0.373645 -0.118813
H6    H     H_    0.456693 0.884944 0.275436 0.232258
C19   C     C_R   0.486299 0.870155 0.499920 -0.097994
C20   C     C_R   0.488848 0.937232 0.624450 0.097833
C21   C     C_3   0.563158 0.935494 0.753295 -0.443460
C22   C     C_3   0.563413 0.075431 0.752659 -0.403190
H7    H     H_    0.526494 0.895213 0.842662 0.247675
H8    H     H_    0.639109 0.898009 0.734364 0.200506
H9    H     H_    0.527160 0.115047 0.841654 0.215548
H10   H     H_    0.639445 0.119320 0.733371 0.209876
C23   C     C_R   0.588253 0.528737 0.084744 0.140317
N1    N     N_R   0.500660 0.500930 0.148010 -0.235097
C24   C     C_R   0.417548 0.450962 0.062703 0.456023
C25   C     C_R   0.416986 0.452869 0.914491 0.333681
N2    N     N_R   0.500660 0.500890 0.852110 -0.250588
C26   C     C_R   0.588961 0.525618 0.938809 0.117105
C27   C     C_3   0.659874 0.636410 0.938115 -0.506817
C28   C     C_3   0.656609 0.643669 0.095702 0.176951
H11   H     H_    0.737112 0.612945 0.908811 0.162909
H12   H     H_    0.624014 0.713366 0.878157 0.227804
H13   H     H_    0.732874 0.631211 0.156983 0.119928
N3    N     N_R   0.810806 0.341427 0.358422 0.163936
O9    O     O_R   0.760985 0.364023 0.237759 -0.357307
O10   O     O_R   0.806477 0.230454 0.408792 -0.331441
O11   O     O_3   0.331209 0.400837 0.118374 -0.553798
C29   C     C_3   0.338346 0.270987 0.131378 0.086752
H14   H     H_    0.342022 0.249056 0.243712 0.167634
H15   H     H_    0.407097 0.232320 0.088125 0.114581
C30   C     C_3   0.240932 0.202581 0.063292 -0.749325
H16   H     H_    0.232048 0.214384 0.949015 0.300158
H17   H     H_    0.246448 0.102355 0.084880 0.203835
H18   H     H_    0.170591 0.234852 0.105724 0.234586
N4    N     N_R   0.328241 0.400022 0.832542 0.146241
O12   O     O_R   0.236832 0.440998 0.846190 -0.380248
O13   O     O_R   0.335834 0.297737 0.763991 -0.386467
N5    N     N_R   0.603982 0.752565 0.136759 0.147873
O14   O     O_R   0.512770 0.777290 0.076341 -0.419151
O15   O     O_R   0.653321 0.832456 0.222913 -0.352871
O16   O     O_3   0.977304 0.343835 0.222360 -0.540327
C31   C     C_3   0.996719 0.397628 0.092891 0.110253
H19   H     H_    0.986065 0.323979 0.011669 0.188847
H20   H     H_    0.077032 0.436380 0.089888 0.160281
C32   C     C_3   0.920294 0.497579 0.051320 -0.792620
H21   H     H_    0.922155 0.568342 0.135254 0.233964
H22   H     H_    0.941232 0.543162 0.954635 0.208874
H23   H     H_    0.840873 0.455855 0.030417 0.273493

loop_
_geom_bond_atom_site_label_1
_geom_bond_atom_site_label_2
_geom_bond_distance
_ccdc_geom_bond_type
C1    C16   1.449351 S    
C9    C10   1.391786 A    
C32   H21   1.110172 S    
Cu1   Cu2   2.710870 S    
C12   N3    1.434894 S    
C24   C25   1.427598 A    
Cu1   O7    1.962534 S    
C15   C20   1.378966 A    
C24   O11   1.385054 S    
C21   C22   1.516942 S    
C20   C21   1.492180 S    
C14   H2    1.084080 S    
C3    C19   1.452430 S    
C21   H8    1.112199 S    
O3    Cu1   1.958978 S    
C16   C17   1.403985 A    
O7    C4    1.304724 A    
C29   H15   1.117686 S    
C30   H17   1.110721 S    
O5    C3    1.299937 A    
N3    O9    1.299769 A    
C5    C12   1.409757 A    
C10   C14   1.397197 A    
N5    O14   1.302140 A    
C27   H11   1.107433 S    
C15   C22   1.492189 S    
C13   C14   1.384611 A    
C17   C18   1.391525 A    
C23   C26   1.407394 A    
C29   C30   1.527128 S    
C5    C13   1.396826 A    
C11   C12   1.410546 A    
C31   C32   1.523848 S    
C18   H6    1.076125 S    
N3    O10   1.300529 A    
C28   H13   1.112216 S    
N2    C26   1.363974 A    
C25   N4    1.427126 S    
C31   H20   1.112040 S    
N4    O13   1.300434 A    
C29   H14   1.105783 S    
C7    C11   1.418564 A    
O1    C1    1.300330 A    
C19   C20   1.397238 A    
Cu1   N2    2.036427 S    
C30   H18   1.105884 S    
C23   N1    1.368562 A    
C15   C16   1.395091 A    
C17   H5    1.077727 S    
Cu2   O8    1.958978 S    
C27   H12   1.106636 S    
C7    C8    1.398540 A    
C9    H4    1.085010 S    
C32   H22   1.109817 S    
C22   H9    1.112025 S    
Cu2   O6    1.965462 S    
C26   C27   1.485450 S    
O8    C4    1.298771 A    
C7    O16   1.389794 S    
C27   C28   1.525159 S    
O3    C2    1.300612 A    
N1    C24   1.378955 A    
Cu1   O5    1.967260 S    
C25   N2    1.380398 A    
O1    Cu1   1.965464 S    
O2    Cu2   1.967260 S    
C8    H3    1.075629 S    
Cu2   N1    2.037116 S    
C31   H19   1.110448 S    
O6    C3    1.303713 A    
O4    Cu2   1.962532 S    
C23   C28   1.498590 S    
C22   H10   1.112335 S    
O2    C1    1.302032 A    
O16   C31   1.421080 S    
C21   H7    1.109194 S    
O11   C29   1.419457 S    
O4    C2    1.301808 A    
C6    C9    1.390381 A    
C18   C19   1.402606 A    
C13   H1    1.081192 S    
C30   H16   1.103751 S    
C32   H23   1.108349 S    
C2    C6    1.451059 S    
C10   C11   1.423374 A    
C6    C8    1.391380 A    
N4    O12   1.301484 A    
N5    O15   1.300503 A    
C4    C5    1.455251 S    
C28   N5    1.459411 S    
