data_mof_unit_18543.cif
_audit_creation_date              2012-12-10T17:35:02-0500
_audit_creation_method            fapswitch 2.2
_symmetry_space_group_name_H-M    P1
_symmetry_Int_Tables_number       1
_space_group_crystal_system       triclinic
_cell_length_a                    12.408479
_cell_length_b                    13.052264
_cell_length_c                    13.838515
_cell_angle_alpha                 105.040507
_cell_angle_beta                  75.143259
_cell_angle_gamma                 116.374075
_cell_volume                      1913.22376909

loop_
_atom_site_label
_atom_site_type_symbol
_atom_type_description
_atom_site_fract_x
_atom_site_fract_y
_atom_site_fract_z
_atom_type_partial_charge
C1    C     C_R   0.144230 0.713639 0.501430 0.780559
C2    C     C_1   0.991429 0.521002 0.790359 -0.182386
C3    C     C_R   0.739403 0.962530 0.392246 -0.193384
C4    C     C_R   0.775804 0.161627 0.469392 -0.053383
C5    C     C_R   0.185491 0.927163 0.507702 0.110573
C6    C     C_R   0.268809 0.043010 0.520621 -0.117270
C7    C     C_R   0.391649 0.072541 0.513472 -0.191854
C8    C     C_R   0.439165 0.987107 0.482642 0.088169
C9    C     C_R   0.357477 0.869302 0.459819 0.078878
C10   C     C_R   0.566763 0.016751 0.466372 0.094555
C11   C     C_R   0.613031 0.932037 0.414960 0.172507
C12   C     C_R   0.986857 0.506010 0.685886 0.832033
C13   C     C_R   0.532968 0.819419 0.382597 -0.238170
C14   C     C_R   0.407893 0.789091 0.402923 -0.157883
C15   C     C_R   0.650153 0.129374 0.497943 -0.233265
C16   C     C_R   0.820478 0.077308 0.417517 -0.203168
C17   C     C_R   0.228254 0.837124 0.488279 -0.141368
C18   C     C_R   0.623762 0.654134 0.676763 -0.274809
C19   C     C_R   0.245033 0.342834 0.370943 0.034492
C20   C     C_R   0.332335 0.297538 0.354151 0.209336
C21   C     C_R   0.429655 0.353529 0.408030 -0.258497
C22   C     C_R   0.441966 0.456861 0.477260 -0.055396
C23   C     C_R   0.856536 0.285626 0.486159 0.795952
C24   C     C_R   0.343994 0.492275 0.499428 0.217695
C25   C     C_R   0.544400 0.521422 0.529991 -0.062809
C26   C     C_R   0.532194 0.600942 0.618208 0.036242
C27   C     C_R   0.430902 0.629847 0.644174 0.203094
C28   C     C_R   0.342257 0.579916 0.582646 -0.184921
C29   C     C_R   0.663120 0.520714 0.492496 0.211715
C30   C     C_R   0.727125 0.629699 0.650642 0.287919
C31   C     C_R   0.013774 0.494524 0.314046 0.806566
C32   C     C_1   0.013650 0.483698 0.209213 -0.135635
C33   C     C_2   0.996844 0.461370 0.018774 -0.236761
C34   C     C_2   0.019904 0.553474 0.979104 0.307364
C35   C     C_1   0.002539 0.536067 0.877023 -0.005526
C36   C     C_1   0.008245 0.473199 0.121757 0.068507
Cu1   Cu    Cu3+1 0.899780 0.525060 0.522890 0.917380
Cu2   Cu    Cu3+1 0.100220 0.474940 0.477110 0.936971
H1    H     H_    0.352958 0.704038 0.366590 0.185626
H2    H     H_    0.615996 0.716212 0.744202 0.207107
H3    H     H_    0.168556 0.298500 0.330234 0.154921
H4    H     H_    0.495250 0.315926 0.395823 0.171894
H5    H     H_    0.271091 0.609727 0.605499 0.229167
H6    H     H_    0.964303 0.374595 0.974502 0.140050
H7    H     H_    0.917555 0.100280 0.394967 0.165127
H8    H     H_    0.567258 0.754879 0.339223 0.147795
H9    H     H_    0.775509 0.898436 0.351910 0.144908
H10   H     H_    0.619324 0.194324 0.544698 0.152864
H11   H     H_    0.448174 0.164229 0.523432 0.136804
H12   H     H_    0.238669 0.112586 0.534624 0.148582
N1    N     N_R   0.748810 0.563010 0.557590 -0.200097
N2    N     N_R   0.250540 0.437620 0.443020 -0.223562
O1    O     O_R   0.025040 0.682470 0.528790 -0.599987
O2    O     O_R   0.194310 0.640150 0.490130 -0.599478
O3    O     O_R   0.903380 0.524130 0.659910 -0.591916
O4    O     O_R   0.072660 0.481800 0.621240 -0.575778
O5    O     O_R   0.805690 0.359850 0.509870 -0.577908
O6    O     O_R   0.974960 0.317530 0.471210 -0.585834
O7    O     O_R   0.927340 0.518200 0.378760 -0.591827
O8    O     O_R   0.096620 0.475870 0.340090 -0.575919
Br1   Br    Br    0.081951 0.709791 0.051101 -0.464115
C37   C     C_3   0.815531 0.693307 0.725919 -0.358031
C38   C     C_3   0.776677 0.635791 0.820967 -0.341444
C39   C     C_3   0.680399 0.666847 0.901084 -0.788575
H13   H     H_    0.707083 0.762111 0.917790 0.259472
H14   H     H_    0.590199 0.622256 0.875795 0.266310
H15   H     H_    0.671271 0.637314 0.972292 0.245248
H16   H     H_    0.741108 0.539820 0.800067 0.242303
H17   H     H_    0.858635 0.665905 0.856658 0.228159
H18   H     H_    0.909571 0.706399 0.690571 0.220971
H19   H     H_    0.822031 0.783541 0.751603 0.168737
Br2   Br    Br    0.409412 0.742175 0.760556 -0.501082
C40   C     C_3   0.704165 0.517686 0.378453 -0.353402
C41   C     C_3   0.786755 0.640683 0.354987 -0.357780
C42   C     C_3   0.806068 0.645393 0.242546 -0.795765
H20   H     H_    0.842940 0.581535 0.196024 0.279457
H21   H     H_    0.718515 0.625986 0.219725 0.241293
H22   H     H_    0.871361 0.733717 0.228045 0.270149
H23   H     H_    0.743900 0.701522 0.398399 0.199006
H24   H     H_    0.876232 0.672365 0.378278 0.250177
H25   H     H_    0.627431 0.490500 0.338048 0.193334
H26   H     H_    0.740098 0.450736 0.342806 0.213030
Br3   Br    Br    0.316582 0.157464 0.260303 -0.503591
C43   C     C_3   0.057107 0.908714 0.503840 -0.385602
C44   C     C_3   0.993864 0.948230 0.607836 -0.364440
C45   C     C_3   0.863727 0.927198 0.603944 -0.825847
H27   H     H_    0.865312 0.985036 0.556965 0.265277
H28   H     H_    0.812115 0.835838 0.570901 0.252416
H29   H     H_    0.816371 0.946479 0.681674 0.253622
H30   H     H_    0.994021 0.901631 0.664085 0.220536
H31   H     H_    0.044435 0.042393 0.633663 0.221496
H32   H     H_    0.062278 0.960691 0.449181 0.209878
H33   H     H_    0.001353 0.819023 0.473060 0.212244

loop_
_geom_bond_atom_site_label_1
_geom_bond_atom_site_label_2
_ccdc_geom_bond_type
C2    C35   T    
C24   N2    A    
C23   O6    A    
C30   N1    A    
C40   C41   S    
C19   C20   A    
C18   C26   A    
C9    C14   A    
C2    C12   S    
C44   H31   S    
C7    C8    A    
C44   C45   S    
C26   C27   A    
Cu1   Cu2   S    
C32   C36   T    
C29   C40   S    
C4    C23   S    
C10   C15   A    
C5    C6    A    
Cu1   N1    S    
C45   H28   S    
Cu2   N2    S    
C33   C36   S    
C37   H18   S    
C34   C35   S    
C31   O7    A    
C1    O1    A    
C18   H2    S    
C14   H1    S    
Cu2   O6    S    
C19   N2    A    
C38   H17   S    
C8    C9    A    
C22   C25   A    
C18   C30   A    
Cu1   O1    S    
C41   H24   S    
C21   C22   A    
C15   H10   S    
C40   H25   S    
C25   C29   A    
C41   C42   S    
C39   H15   S    
C43   C44   S    
C7    H11   S    
C5    C43   S    
C45   H27   S    
C25   C26   A    
C34   Br1   S    
C38   C39   S    
C39   H14   S    
C31   O8    A    
C4    C16   A    
C42   H20   S    
C37   C38   S    
C31   C32   S    
Cu2   O2    S    
C33   C34   D    
Cu2   O4    S    
C12   O4    A    
C6    H12   S    
C42   H21   S    
Cu1   O7    S    
C1    O2    A    
Cu2   O8    S    
C9    C17   A    
C41   H23   S    
C30   C37   S    
C22   C24   A    
C40   H26   S    
C29   N1    A    
C23   O5    A    
C38   H16   S    
C33   H6    S    
C24   C28   A    
C45   H29   S    
C16   H7    S    
C44   H30   S    
C6    C7    A    
C28   H5    S    
C1    C17   S    
C39   H13   S    
C4    C15   A    
C11   C13   A    
C13   H8    S    
C3    H9    S    
C37   H19   S    
C43   H33   S    
C42   H22   S    
C12   O3    A    
C3    C11   A    
C10   C11   A    
C27   Br2   S    
C21   H4    S    
Cu1   O3    S    
C5    C17   A    
C20   C21   A    
C8    C10   A    
C20   Br3   S    
C27   C28   A    
C43   H32   S    
C13   C14   A    
Cu1   O5    S    
C3    C16   A    
C19   H3    S    
