data_mof_unit_58577.cif
_audit_creation_date              2013-03-05T15:44:35-0500
_audit_creation_method            fapswitch 2.2
_symmetry_space_group_name_H-M    P1
_symmetry_Int_Tables_number       1
_space_group_crystal_system       triclinic
_cell_length_a                    27.752451
_cell_length_b                    10.922815
_cell_length_c                    9.773823
_cell_angle_alpha                 89.635323
_cell_angle_beta                  90.456669
_cell_angle_gamma                 92.063582
_cell_volume                      2960.71651778

loop_
_atom_site_label
_atom_site_type_symbol
_atom_site_description
_atom_site_fract_x
_atom_site_fract_y
_atom_site_fract_z
_atom_type_partial_charge
O1    O     O_R   0.500010 0.321960 0.617040 -0.584513
O2    O     O_R   0.499990 0.321920 0.382900 -0.578251
C1    C     C_R   0.500513 0.265638 0.500364 0.841012
O3    O     O_R   0.430270 0.500040 0.617060 -0.586694
O4    O     O_R   0.430260 0.500000 0.382910 -0.586902
C2    C     C_R   0.407509 0.499651 0.499388 0.804177
Cu1   Cu    Cu3+1 0.500010 0.500020 0.638630 0.937088
Cu2   Cu    Cu3+1 0.499990 0.499980 0.361370 0.935216
O5    O     O_R   0.500010 0.678080 0.617100 -0.577148
O6    O     O_R   0.499990 0.678040 0.382960 -0.574447
O7    O     O_R   0.569740 0.500000 0.617090 -0.571946
O8    O     O_R   0.569730 0.499960 0.382940 -0.570240
C3    C     C_R   0.499535 0.734337 0.499787 0.851647
C4    C     C_R   0.592514 0.503142 0.500271 0.816577
C5    C     C_R   0.175981 0.394447 0.458805 0.545222
O9    O     O_2   0.200601 0.290689 0.450686 -0.553784
N1    N     N_R   0.201269 0.500952 0.484994 -0.451427
C6    C     C_R   0.179481 0.610033 0.497072 0.545395
C7    C     C_R   0.279382 0.510897 0.366984 0.177045
C8    C     C_R   0.329729 0.510346 0.371715 -0.211723
C9    C     C_R   0.327997 0.488140 0.618549 -0.215887
C10   C     C_R   0.277481 0.488027 0.615934 0.181760
C11   C     C_R   0.253094 0.499710 0.489600 0.365726
C12   C     C_R   0.101593 0.505749 0.458521 -0.124623
C13   C     C_R   0.125313 0.393860 0.439367 -0.056594
C14   C     C_R   0.097967 0.288524 0.393233 0.163707
C15   C     C_R   0.128691 0.616271 0.485392 -0.058630
C16   C     C_R   0.354363 0.499370 0.496883 -0.117424
C17   C     C_R   0.645853 0.506479 0.501205 -0.082878
C18   C     C_R   0.972700 0.392671 0.449322 0.051585
C19   C     C_R   0.976177 0.612567 0.500989 0.052041
C20   C     C_R   0.949302 0.501197 0.483561 0.074422
C21   C     C_R   0.945213 0.281134 0.452058 -0.218434
C22   C     C_R   0.895301 0.279139 0.464763 -0.149525
C23   C     C_R   0.871432 0.387703 0.486409 -0.022249
C24   C     C_R   0.898622 0.497885 0.503171 -0.050370
C25   C     C_R   0.875144 0.604510 0.540804 -0.024544
C26   C     C_R   0.824673 0.601459 0.549145 0.543018
N2    N     N_R   0.798643 0.495892 0.520020 -0.462685
C27   C     C_R   0.820943 0.388953 0.493606 0.535892
C28   C     C_R   0.719331 0.447013 0.615738 -0.143141
C29   C     C_R   0.669389 0.449474 0.610547 -0.263658
C30   C     C_R   0.673497 0.564871 0.395724 0.135848
C31   C     C_R   0.724465 0.556438 0.397876 0.205096
C32   C     C_R   0.747025 0.499170 0.510523 0.320930
O10   O     O_2   0.794329 0.285031 0.471561 -0.532394
C33   C     C_R   0.023362 0.396978 0.426187 0.006344
C34   C     C_R   0.050500 0.506247 0.455300 -0.012187
C35   C     C_R   0.026641 0.616984 0.476154 0.006295
C36   C     C_R   0.047910 0.297608 0.369684 0.160674
H1    H     H_    0.736751 0.403355 0.701763 0.160364
H2    H     H_    0.961853 0.193627 0.447469 0.164460
O11   O     O_2   0.207644 0.711316 0.518212 -0.551479
C37   C     C_R   0.104308 0.729050 0.491104 0.159258
C38   C     C_R   0.952355 0.713430 0.555322 -0.216820
C39   C     C_R   0.902576 0.710843 0.570682 -0.153131
O12   O     O_2   0.801666 0.703522 0.583293 -0.531959
C40   C     C_R   0.054101 0.728699 0.467100 0.172073
H3    H     H_    0.971889 0.794687 0.589911 0.165693
H4    H     H_    0.885777 0.792207 0.607554 0.186595
C41   C     C_2   0.501928 0.933814 0.387633 -0.153456
C42   C     C_2   0.497064 0.866149 0.501707 -0.307975
H5    H     H_    0.506998 0.890256 0.289422 0.166768
C43   C     C_2   0.499763 0.067665 0.387961 -0.147683
C44   C     C_2   0.502819 0.133718 0.503082 -0.310038
C45   C     C_2   0.475228 0.418412 0.921674 0.228648
N3    N     N_2   0.499480 0.498660 0.846910 -0.293230
C46   C     C_2   0.472083 0.425258 0.077818 0.244094
N4    N     N_2   0.499460 0.498630 0.153040 -0.294126
H6    H     H_    0.346724 0.479085 0.715592 0.165192
C47   C     C_3   0.253883 0.524021 0.231301 -0.838898
H7    H     H_    0.279719 0.533425 0.145315 0.221268
H8    H     H_    0.230071 0.442024 0.212041 0.243650
H9    H     H_    0.231780 0.606724 0.231993 0.244244
C48   C     C_3   0.130577 0.850419 0.521160 -0.749981
H10   H     H_    0.106024 0.926750 0.535799 0.208478
H11   H     H_    0.150681 0.844170 0.619428 0.256744
H12   H     H_    0.155175 0.876277 0.435880 0.259927
C49   C     C_3   0.648777 0.637947 0.284598 -0.816057
H13   H     H_    0.673613 0.702058 0.229168 0.232907
H14   H     H_    0.631552 0.574782 0.208676 0.241621
H15   H     H_    0.621151 0.696083 0.330213 0.227507
C50   C     C_3   0.754503 0.605117 0.279335 -0.812942
H16   H     H_    0.738840 0.571030 0.181225 0.231128
H17   H     H_    0.755557 0.706798 0.279540 0.246062
H18   H     H_    0.792163 0.574727 0.282695 0.227759
C51   C     C_3   0.032753 0.841208 0.401117 -0.902376
H19   H     H_    0.057487 0.878716 0.321169 0.241452
H20   H     H_    0.998211 0.818749 0.347369 0.246786
H21   H     H_    0.027045 0.913687 0.477761 0.222788
H22   H     H_    0.490196 0.905910 0.600404 0.148439
H23   H     H_    0.496351 0.112651 0.289113 0.167157
C52   C     C_3   0.249772 0.475220 0.747314 -0.832852
H24   H     H_    0.274141 0.465784 0.837195 0.220164
H25   H     H_    0.228067 0.557352 0.762639 0.246986
H26   H     H_    0.225290 0.392661 0.742880 0.243901
H27   H     H_    0.508235 0.092714 0.602784 0.144910
C53   C     C_3   0.449769 0.309066 0.852616 -0.722773
H28   H     H_    0.418587 0.268931 0.908300 0.177791
H29   H     H_    0.432431 0.333198 0.755780 0.260259
H30   H     H_    0.475661 0.235141 0.838753 0.218423
H31   H     H_    0.514632 0.574411 0.894420 0.165345
C54   C     C_3   0.435524 0.336715 0.143584 -0.736019
H32   H     H_    0.398817 0.356416 0.105214 0.188263
H33   H     H_    0.444630 0.241143 0.119446 0.189174
H34   H     H_    0.432852 0.336441 0.253802 0.272830
H35   H     H_    0.525787 0.551359 0.105429 0.161220
C55   C     C_3   0.121391 0.168027 0.363269 -0.768482
H36   H     H_    0.095614 0.093766 0.331770 0.210915
H37   H     H_    0.148029 0.180734 0.279758 0.254658
H38   H     H_    0.138796 0.132972 0.457520 0.259422
H39   H     H_    0.648969 0.405541 0.692378 0.175666
H40   H     H_    0.875610 0.191790 0.460038 0.188158
C56   C     C_3   0.024044 0.218216 0.259408 -0.880560
H41   H     H_    0.048351 0.212611 0.170063 0.244346
H42   H     H_    0.015851 0.124099 0.298211 0.226650
H43   H     H_    0.990557 0.258193 0.218989 0.246053
H44   H     H_    0.349721 0.519161 0.277182 0.170227

loop_
_geom_bond_atom_site_label_1
_geom_bond_atom_site_label_2
_geom_bond_distance
_ccdc_geom_bond_type
C45   C46   1.531759 S    
C38   C39   1.390054 A    
C52   H24   1.110926 S    
C38   H3    1.078051 S    
C17   C29   1.402198 A    
C28   C29   1.387753 A    
C7    C47   1.506622 S    
C7    C8    1.397866 A    
C12   C15   1.423877 A    
C30   C31   1.420775 A    
C31   C50   1.515128 S    
C40   C51   1.520968 S    
C8    H44   1.083503 S    
C56   H41   1.111036 S    
N4    H35   1.026549 S    
C15   C37   1.428295 A    
Cu1   Cu2   2.709889 S    
C22   H40   1.083365 S    
Cu1   O7    1.948269 S    
Cu2   N4    2.036260 S    
N1    C11   1.439177 S    
C36   C56   1.520379 S    
C50   H16   1.110548 S    
C20   C24   1.420140 A    
C24   C25   1.407188 A    
C14   C36   1.413221 A    
C26   N2    1.368716 A    
O7    C4    1.309100 A    
C5    C13   1.417244 A    
C30   C49   1.517880 S    
C5    O9    1.347341 S    
C55   H36   1.105612 S    
Cu1   O5    1.954936 S    
C22   C23   1.397048 A    
C41   H5    1.086434 S    
C29   H39   1.083467 S    
O5    C3    1.297620 A    
C6    O11   1.347418 S    
C25   C39   1.396767 A    
C2    C16   1.474813 S    
C3    C42   1.444100 S    
C19   C20   1.414343 A    
C46   N4    1.309514 D    
C46   C54   1.519796 S    
N2    C32   1.436535 S    
C45   N3    1.308623 D    
C52   H25   1.110025 S    
C9    C10   1.401925 A    
C17   C30   1.423818 A    
C1    C44   1.444731 S    
C19   C35   1.422346 A    
O3    Cu1   1.945243 S    
C21   C22   1.391083 A    
C33   C36   1.419189 A    
C12   C34   1.418252 A    
C18   C33   1.424878 A    
C12   C13   1.422978 A    
O3    C2    1.307694 A    
C14   C55   1.519952 S    
N2    C27   1.368393 A    
C47   H8    1.109885 S    
C7    C11   1.410340 A    
C8    C16   1.403259 A    
C13   C14   1.428750 A    
C35   C40   1.417854 A    
C49   H13   1.106946 S    
C21   H2    1.077752 S    
C23   C24   1.407055 A    
C41   C43   1.465448 S    
C27   O10   1.349316 S    
C48   H10   1.106308 S    
C25   C26   1.402884 A    
O4    Cu2   1.948272 S    
C26   O12   1.349546 S    
C33   C34   1.417356 A    
Cu2   O8    1.945238 S    
C42   H22   1.081540 S    
N1    C6    1.361604 A    
C54   H33   1.110118 S    
C48   H11   1.109844 S    
C47   H9    1.110137 S    
C34   C35   1.416326 A    
C50   H17   1.109990 S    
C9    C16   1.403598 A    
O8    C4    1.305177 A    
C52   H26   1.110239 S    
C53   H29   1.093383 S    
C51   H20   1.109859 S    
C10   C52   1.505154 S    
C43   H23   1.086126 S    
C4    C17   1.479361 S    
C31   C32   1.415592 A    
C49   H14   1.110094 S    
C37   C40   1.411020 A    
C5    N1    1.361434 A    
C18   C21   1.414166 A    
O1    Cu1   1.957665 S    
O2    Cu2   1.954936 S    
C6    C15   1.417312 A    
O6    C3    1.300709 A    
C49   H15   1.110807 S    
C56   H42   1.109927 S    
C53   H30   1.109716 S    
C55   H38   1.109173 S    
C9    H6    1.083588 S    
C19   C38   1.413630 A    
C43   C44   1.340951 D    
C45   C53   1.524193 S    
O2    C1    1.299078 A    
C44   H27   1.081544 S    
C47   H7    1.110917 S    
C18   C20   1.415204 A    
O4    C2    1.306122 A    
C55   H37   1.110293 S    
C23   C27   1.404088 A    
C54   H34   1.080367 S    
C41   C42   1.338761 D    
C48   H12   1.110288 S    
C56   H43   1.109780 S    
Cu1   N3    2.035817 S    
C37   C48   1.518941 S    
C39   H4    1.083350 S    
C50   H18   1.108110 S    
C51   H19   1.110775 S    
Cu2   O6    1.957665 S    
C53   H28   1.101998 S    
C51   H21   1.109722 S    
C54   H32   1.110575 S    
C28   C32   1.395122 A    
C10   C11   1.410621 A    
O1    C1    1.299575 A    
C28   H1    1.083072 S    
N3    H31   1.026537 S    
