data_mof_unit_52332.cif
_audit_creation_date              2012-12-11T14:08:28-0500
_audit_creation_method            fapswitch 2.2
_symmetry_space_group_name_H-M    P1
_symmetry_Int_Tables_number       1
_space_group_crystal_system       triclinic
_cell_length_a                    28.134186
_cell_length_b                    7.189486
_cell_length_c                    17.18389
_cell_angle_alpha                 90.056177
_cell_angle_beta                  101.957749
_cell_angle_gamma                 89.853758
_cell_volume                      3400.35737153

loop_
_atom_site_label
_atom_site_type_symbol
_atom_type_description
_atom_site_fract_x
_atom_site_fract_y
_atom_site_fract_z
_atom_type_partial_charge
O1    O     O_R   0.000700 0.436510 0.857920 -0.535939
O2    O     O_R   0.999300 0.563490 0.142080 -0.539546
O3    O     O_R   0.999300 0.936510 0.642080 -0.541727
O4    O     O_R   0.000700 0.063490 0.357920 -0.538715
O5    O     O_R   0.930080 0.766380 0.721890 -0.524576
O6    O     O_R   0.069920 0.233620 0.278110 -0.518109
O7    O     O_R   0.069920 0.266380 0.778110 -0.517385
O8    O     O_R   0.930080 0.733620 0.221890 -0.518316
C1    C     C_R   0.910936 0.597957 0.705267 0.834121
C2    C     C_R   0.089619 0.402599 0.289419 0.821648
C3    C     C_R   0.089326 0.098006 0.793719 0.825194
C4    C     C_R   0.910388 0.902998 0.211754 0.823295
O9    O     O_R   0.996180 0.766230 0.862310 -0.547986
O10   O     O_R   0.003820 0.233770 0.137690 -0.545004
O11   O     O_R   0.003820 0.266230 0.637690 -0.542523
O12   O     O_R   0.996180 0.733770 0.362310 -0.547914
O13   O     O_R   0.065870 0.936460 0.783500 -0.519145
O14   O     O_R   0.934130 0.063540 0.216500 -0.517307
O15   O     O_R   0.934130 0.436460 0.716500 -0.515775
O16   O     O_R   0.065870 0.563540 0.283500 -0.513541
C5    C     C_R   0.998516 0.596505 0.894520 0.771965
C6    C     C_R   0.001553 0.403503 0.105500 0.763814
C7    C     C_R   0.001467 0.096434 0.605500 0.774032
C8    C     C_R   0.998460 0.903585 0.394477 0.764388
O17   O     O_3   0.022790 0.603020 0.723980 -0.376641
O18   O     O_3   0.977210 0.396980 0.276020 -0.373881
O19   O     O_3   0.977210 0.103020 0.776020 -0.380601
O20   O     O_3   0.022790 0.896980 0.223980 -0.374711
V1    V     V_3+5 0.995770 0.877900 0.754830 1.544072
V2    V     V_3+5 0.004230 0.122100 0.245170 1.557745
V3    V     V_3+5 0.004230 0.377900 0.745170 1.554623
V4    V     V_3+5 0.995770 0.622100 0.254830 1.551350
C9    C     C_2   0.001589 0.082703 0.519539 -0.305218
C10   C     C_2   0.998226 0.917354 0.480400 -0.307909
C11   C     C_2   0.998355 0.582739 0.980491 -0.299408
C12   C     C_2   0.001812 0.417277 0.019561 -0.292867
H1    H     H_    0.004315 0.211621 0.487862 0.151354
H2    H     H_    0.995475 0.788444 0.512070 0.151392
H3    H     H_    0.995514 0.711679 0.012226 0.150731
H4    H     H_    0.004673 0.288341 0.987833 0.152063
C13   C     C_R   0.682129 0.060641 0.074234 0.726457
C14   C     C_R   0.313644 0.975097 0.996482 0.752861
C15   C     C_R   0.322749 0.579441 0.420021 0.700595
C16   C     C_R   0.689118 0.451523 0.484545 0.743909
O21   O     O_2   0.711946 0.128072 0.028801 -0.469551
O22   O     O_2   0.283379 0.879928 0.033300 -0.448026
O23   O     O_2   0.297786 0.667167 0.468275 -0.478056
O24   O     O_2   0.718063 0.358237 0.444719 -0.442893
N1    N     N_R   0.701306 0.968246 0.143061 -0.525674
N2    N     N_R   0.295057 0.074839 0.929264 -0.531170
N3    N     N_R   0.300544 0.448172 0.366117 -0.532039
N4    N     N_R   0.708190 0.575622 0.544076 -0.542303
C17   C     C_R   0.672072 0.900413 0.191038 0.767119
C18   C     C_R   0.324716 0.175329 0.891302 0.764504
C19   C     C_R   0.329765 0.301932 0.352541 0.739479
C20   C     C_R   0.680248 0.731605 0.548803 0.761641
C21   C     C_R   0.782019 0.080943 0.210790 0.310717
C22   C     C_R   0.221765 0.934091 0.845854 0.305480
C23   C     C_R   0.222606 0.319934 0.278273 0.365762
C24   C     C_R   0.773240 0.667080 0.664586 0.348448
C25   C     C_R   0.833428 0.066711 0.227034 0.215523
C26   C     C_R   0.171353 0.940241 0.811185 0.220816
C27   C     C_R   0.171673 0.292616 0.269052 0.236076
C28   C     C_R   0.823489 0.690986 0.697954 0.245536
C29   C     C_R   0.827118 0.775317 0.151470 0.231478
C30   C     C_R   0.164405 0.232815 0.881371 0.215491
C31   C     C_R   0.167241 0.571300 0.347198 0.216780
C32   C     C_R   0.842167 0.451544 0.609155 0.205621
C33   C     C_R   0.775668 0.790780 0.136175 0.321634
C34   C     C_R   0.214769 0.224580 0.915673 0.329964
C35   C     C_R   0.217314 0.598619 0.351787 0.325464
C36   C     C_R   0.792068 0.423128 0.580480 0.326070
C37   C     C_R   0.753429 0.944233 0.165032 0.152309
C38   C     C_R   0.243227 0.076206 0.897617 0.146792
C39   C     C_R   0.247156 0.451283 0.334493 0.104305
C40   C     C_R   0.757830 0.558118 0.594390 0.107951
C41   C     C_R   0.600476 0.014365 0.097609 -0.116268
C42   C     C_R   0.395599 0.070749 0.988615 -0.120523
C43   C     C_R   0.402645 0.484115 0.402174 -0.135359
C44   C     C_R   0.607758 0.569780 0.480421 -0.132844
C45   C     C_R   0.631676 0.085365 0.050336 -0.042750
C46   C     C_R   0.364115 0.970830 0.027255 -0.049966
C47   C     C_R   0.372897 0.612441 0.431317 -0.022165
C48   C     C_R   0.638451 0.433937 0.458590 -0.023166
C49   C     C_R   0.612018 0.177560 0.979452 -0.072736
C50   C     C_R   0.383615 0.867012 0.095220 -0.052604
C51   C     C_R   0.393676 0.767951 0.473719 -0.050918
C52   C     C_R   0.618210 0.286106 0.410028 -0.036876
C53   C     C_R   0.620781 0.922401 0.169624 -0.099870
C54   C     C_R   0.375687 0.177159 0.920355 -0.100459
C55   C     C_R   0.381066 0.322338 0.364256 -0.114516
C56   C     C_R   0.629049 0.727972 0.521846 -0.093219
C57   C     C_R   0.856055 0.915459 0.195818 -0.217792
C58   C     C_R   0.142733 0.090981 0.828399 -0.215654
C59   C     C_R   0.143922 0.415918 0.305996 -0.223760
C60   C     C_R   0.858138 0.585617 0.668644 -0.211374
H5    H     H_    0.635188 0.231328 0.941630 0.193232
H6    H     H_    0.360276 0.787679 0.125628 0.196843
H7    H     H_    0.371387 0.868628 0.496800 0.179994
H8    H     H_    0.641185 0.181745 0.390844 0.195248
C61   C     C_R   0.478327 0.156757 0.976676 -0.001147
C62   C     C_R   0.517700 0.955312 0.117835 0.004195
C63   C     C_R   0.526083 0.696384 0.475475 -0.006544
C64   C     C_R   0.484226 0.370999 0.394283 -0.001884
C65   C     C_R   0.466334 0.959942 0.088126 0.068034
C66   C     C_R   0.529580 0.133121 0.001010 0.065393
C67   C     C_R   0.535810 0.394355 0.412473 0.048690
C68   C     C_R   0.474756 0.671557 0.458960 0.057500
C69   C     C_R   0.446900 0.062899 0.018019 0.075255
C70   C     C_R   0.549095 0.034716 0.072274 0.074190
C71   C     C_R   0.556340 0.553203 0.456240 0.052287
C72   C     C_R   0.454033 0.509778 0.417669 0.064707
C73   C     C_R   0.457408 0.272097 0.912055 -0.267026
C74   C     C_R   0.538846 0.873713 0.191796 -0.274010
C75   C     C_R   0.548343 0.860987 0.510464 -0.281673
C76   C     C_R   0.461755 0.209332 0.356513 -0.278756
C77   C     C_R   0.406987 0.282800 0.883468 0.430905
C78   C     C_R   0.589504 0.856498 0.217975 0.405071
C79   C     C_R   0.599002 0.877689 0.534380 0.431777
C80   C     C_R   0.411088 0.183704 0.341406 0.425517
O25   O     O_2   0.304704 0.271897 0.825310 -0.426967
O26   O     O_2   0.692692 0.811420 0.258720 -0.434659
O27   O     O_2   0.701932 0.892565 0.575487 -0.406640
O28   O     O_2   0.310402 0.132379 0.335341 -0.411311
C81   C     C_R   0.562165 0.200618 0.955095 -0.164834
C82   C     C_R   0.433535 0.861159 0.124993 -0.180374
C83   C     C_R   0.443370 0.798390 0.486532 -0.184128
C84   C     C_R   0.568011 0.265331 0.388009 -0.193574
H9    H     H_    0.479544 0.359889 0.883397 0.119628
H10   H     H_    0.516684 0.825210 0.231717 0.105865
H11   H     H_    0.527179 0.981133 0.519247 0.121779
H12   H     H_    0.482753 0.097199 0.339276 0.113138
H13   H     H_    0.550317 0.266805 0.898162 0.133449
H14   H     H_    0.445343 0.772399 0.175823 0.120469
H15   H     H_    0.456074 0.919835 0.521261 0.129262
H16   H     H_    0.555837 0.146409 0.351241 0.130611
O29   O     O_3   0.850430 0.629425 0.122183 -0.612253
H17   H     H_    0.826732 0.534570 0.097428 0.362781
O30   O     O_3   0.134879 0.373575 0.899777 -0.617928
H18   H     H_    0.154139 0.466615 0.935092 0.354692
O31   O     O_3   0.139970 0.700790 0.378589 -0.612891
H19   H     H_    0.162017 0.783551 0.415671 0.342698
O32   O     O_3   0.876186 0.341314 0.583248 -0.620675
H20   H     H_    0.860395 0.276075 0.533815 0.337997
Cl1   Cl    Cl    0.737818 0.623262 0.078576 -0.525595
Cl2   Cl    Cl    0.243551 0.397877 0.982228 -0.487607
Cl3   Cl    Cl    0.235515 0.832030 0.343720 -0.512652
Cl4   Cl    Cl    0.775562 0.186195 0.568388 -0.486178
O33   O     O_3   0.149032 0.805239 0.758728 -0.611328
H21   H     H_    0.171581 0.701029 0.756173 0.358169
O34   O     O_3   0.862784 0.195161 0.274248 -0.613430
H22   H     H_    0.843023 0.290689 0.294152 0.353149
O35   O     O_3   0.839539 0.807062 0.762116 -0.606921
H23   H     H_    0.813482 0.896729 0.766577 0.367041
O36   O     O_3   0.147637 0.157222 0.218773 -0.602784
H24   H     H_    0.171373 0.063067 0.208635 0.372626
Cl5   Cl    Cl    0.259552 0.752925 0.823699 -0.509127
Cl6   Cl    Cl    0.752047 0.270730 0.245713 -0.511924
Cl7   Cl    Cl    0.731125 0.724624 0.724753 -0.497749
Cl8   Cl    Cl    0.249340 0.248119 0.198229 -0.447699
O37   O     O_3   0.387951 0.396822 0.819741 -0.577039
H25   H     H_    0.414637 0.460474 0.800760 0.301511
O38   O     O_3   0.608772 0.775900 0.290774 -0.604932
H26   H     H_    0.582123 0.738599 0.317185 0.286081
O39   O     O_3   0.619381 0.038022 0.571483 -0.584371
H27   H     H_    0.593453 0.129336 0.575101 0.298258
O40   O     O_3   0.390493 0.024550 0.303514 -0.589150
H28   H     H_    0.416397 0.939412 0.293699 0.284425

loop_
_geom_bond_atom_site_label_1
_geom_bond_atom_site_label_2
_ccdc_geom_bond_type
O17   V3    S    
C35   Cl3   S    
C21   Cl6   S    
N1    C17   A    
O1    C5    A    
O39   H27   S    
C26   O33   S    
C50   C82   A    
O13   V1    S    
O3    C7    A    
C11   C12   D    
C14   C46   A    
C24   Cl7   S    
C44   C48   A    
O15   V3    S    
C51   C83   A    
O37   H25   S    
O4    V2    S    
C75   H11   S    
C42   C54   A    
O7    C3    A    
C52   H8    S    
C66   C81   A    
C41   C53   A    
C32   C60   A    
C73   H9    S    
C43   C72   A    
C62   C65   A    
C63   C71   A    
C56   C79   A    
C83   H15   S    
C67   C84   A    
C18   C54   A    
C17   O26   S    
N2    C38   S    
C66   C70   A    
O4    C8    A    
C25   C57   A    
C31   C35   A    
O19   V1    S    
C61   C69   A    
O32   H20   S    
C27   C59   A    
O1    V3    S    
C15   C47   A    
C32   O32   S    
O2    V4    S    
C14   O22   S    
C21   C37   A    
O3    V1    S    
C19   C55   A    
C64   C76   A    
C49   C81   A    
C1    O15   A    
C30   O30   S    
O38   H26   S    
C2    O16   A    
C7    C9    S    
C34   C38   A    
O34   H22   S    
C33   C37   A    
C63   C68   A    
C34   Cl2   S    
C79   O39   S    
C43   C55   A    
O8    C4    A    
C30   C58   A    
C29   O29   S    
C16   N4    A    
O11   C7    A    
O12   C8    A    
C31   C59   A    
C74   H10   S    
C41   C70   A    
O31   H19   S    
O10   V2    S    
C13   N1    A    
C51   H7    S    
C78   O38   S    
O7    V3    S    
O8    V4    S    
C20   O27   S    
C12   H4    S    
C28   C60   A    
C63   C75   A    
O40   H28   S    
C64   C72   A    
O18   V4    S    
C77   O37   S    
C46   C50   A    
C28   O35   S    
C24   C40   A    
C8    C10   S    
C76   C80   A    
C44   C56   A    
C11   H3    S    
C54   C77   A    
O5    C1    A    
C33   Cl1   S    
C62   C74   A    
C23   Cl8   S    
C42   C46   A    
C76   H12   S    
C41   C45   A    
C32   C36   A    
C13   C45   A    
C9    C10   D    
O9    C5    A    
C36   C40   A    
N2    C18   A    
O11   V3    S    
C25   O34   S    
C1    C60   S    
C74   C78   A    
C22   C26   A    
C14   N2    A    
C73   C77   A    
C65   C82   A    
C3    C58   S    
O6    V2    S    
C18   O25   S    
C75   C79   A    
C26   C58   A    
C17   C53   A    
O14   V2    S    
N1    C37   S    
C4    C57   S    
C62   C70   A    
O9    V1    S    
C31   O31   S    
O5    V1    S    
C23   C39   A    
C22   C38   A    
O16   V4    S    
C81   H13   S    
C61   C66   A    
C65   C69   A    
C19   O28   S    
C3    O13   A    
C10   H2    S    
C67   C71   A    
C48   C52   A    
N3    C39   S    
N4    C40   S    
C22   Cl5   S    
C47   C51   A    
O6    C2    A    
O30   H18   S    
C21   C25   A    
C5    C11   S    
O12   V4    S    
C6    C12   S    
O29   H17   S    
C23   C27   A    
C16   C48   A    
C24   C28   A    
O10   C6    A    
O20   V2    S    
C27   O36   S    
C52   C84   A    
C36   Cl4   S    
O2    C6    A    
C35   C39   A    
C15   N3    A    
C30   C34   A    
N4    C20   A    
C2    C59   S    
C29   C33   A    
C44   C71   A    
C29   C57   A    
C42   C69   A    
N3    C19   A    
C68   C83   A    
C61   C73   A    
C50   H6    S    
C9    H1    S    
C49   H5    S    
C43   C47   A    
C68   C72   A    
C20   C56   A    
C53   C78   A    
C82   H14   S    
C84   H16   S    
C4    O14   A    
O36   H24   S    
C13   O21   S    
C55   C80   A    
O35   H23   S    
O33   H21   S    
C15   O23   S    
C64   C67   A    
C45   C49   A    
C16   O24   S    
C80   O40   S    
