data_mof_unit_13150.cif
_audit_creation_date              2012-12-10T17:03:40-0500
_audit_creation_method            fapswitch 2.2
_symmetry_space_group_name_H-M    P1
_symmetry_Int_Tables_number       1
_space_group_crystal_system       triclinic
_cell_length_a                    10.049401
_cell_length_b                    10.577794
_cell_length_c                    13.14201
_cell_angle_alpha                 89.671317
_cell_angle_beta                  70.07399
_cell_angle_gamma                 88.852922
_cell_volume                      1313.10446204

loop_
_atom_site_label
_atom_site_type_symbol
_atom_type_description
_atom_site_fract_x
_atom_site_fract_y
_atom_site_fract_z
_atom_type_partial_charge
C1    C     C_R   0.505768 0.736337 0.484090 0.865933
C2    C     C_R   0.431263 0.522154 0.984706 0.087959
C3    C     C_R   0.458008 0.558844 0.876547 0.063226
C4    C     C_R   0.538560 0.540275 0.029985 0.084680
C5    C     C_R   0.659463 0.612205 0.974116 0.147457
C6    C     C_R   0.672961 0.664049 0.873567 -0.195543
C7    C     C_R   0.573327 0.637981 0.825322 -0.151018
C8    C     C_R   0.529849 0.486809 0.128855 -0.233191
C9    C     C_R   0.745357 0.588113 0.124594 -0.174382
C10   C     C_R   0.369533 0.513710 0.821932 -0.114416
C11   C     C_2   0.622892 0.070668 0.427006 -0.144432
C12   C     C_R   0.421144 0.506118 0.703991 0.842099
C13   C     C_2   0.509009 0.127431 0.497661 -0.256072
C14   C     C_2   0.635660 0.933229 0.422823 -0.133316
C15   C     C_2   0.517227 0.864701 0.443042 0.139512
C16   C     C_2   0.067194 0.401772 0.520679 -0.083174
C17   C     C_2   0.929800 0.399162 0.499033 -0.013622
C18   C     C_R   0.501076 0.261701 0.501231 0.905990
C19   C     C_R   0.578663 0.500490 0.295913 0.869971
C20   C     C_R   0.763684 0.633152 0.020867 -0.182636
C21   C     C_R   0.625324 0.518319 0.179598 -0.059406
C22   C     C_R   0.239535 0.459550 0.880446 -0.180300
C23   C     C_R   0.202304 0.441648 0.991303 -0.140723
C24   C     C_R   0.298339 0.469125 0.042977 -0.172125
H1    H     H_    0.820419 0.613025 0.163485 0.189592
H2    H     H_    0.421411 0.075703 0.552688 0.176588
H3    H     H_    0.102642 0.316335 0.550508 0.165168
H4    H     H_    0.124649 0.568668 0.452711 0.236704
H5    H     H_    0.892618 0.307780 0.484476 0.128181
H6    H     H_    0.761769 0.723060 0.831343 0.184430
H7    H     H_    0.855907 0.688546 0.979167 0.151704
H8    H     H_    0.445506 0.423944 0.170806 0.152723
H9    H     H_    0.168812 0.427263 0.840004 0.165849
H10   H     H_    0.264341 0.451085 0.128834 0.137334
H11   H     H_    0.101243 0.401062 0.036574 0.150451
H12   H     H_    0.586514 0.681701 0.747977 0.196665
H13   H     H_    0.711139 0.125795 0.376228 0.162068
N1    N     N_2   0.148270 0.498670 0.498870 -0.164152
N2    N     N_2   0.852610 0.498640 0.498840 0.056323
O1    O     O_R   0.386950 0.680940 0.500020 -0.554046
O2    O     O_R   0.613110 0.680900 0.499980 -0.571761
O3    O     O_R   0.330780 0.500000 0.653640 -0.604713
O4    O     O_R   0.556930 0.499960 0.653610 -0.577566
O5    O     O_R   0.386890 0.319100 0.500020 -0.604210
O6    O     O_R   0.613050 0.319060 0.499980 -0.624913
O7    O     O_R   0.443070 0.500040 0.346390 -0.612256
O8    O     O_R   0.669220 0.500000 0.346360 -0.603732
Zn1   Zn    Zn3+2 0.349000 0.500030 0.500020 1.003716
Zn2   Zn    Zn3+2 0.651000 0.499970 0.499980 1.030749
C25   C     C_2   0.780133 0.877270 0.398214 0.974395
O9    O     O_2   0.865537 0.928829 0.431158 -0.577974
O10   O     O_R   0.820920 0.769737 0.332646 -0.796278
H14   H     H_    0.922145 0.741654 0.320808 0.352238
Cl1   Cl    Cl    0.369538 0.924461 0.410541 -0.565970
Cl2   Cl    Cl    0.872475 0.631678 0.569153 -0.529779

loop_
_geom_bond_atom_site_label_1
_geom_bond_atom_site_label_2
_ccdc_geom_bond_type
C2    C4    A    
C23   C24   A    
C15   Cl1   S    
C6    C7    A    
C1    C15   S    
C18   O5    A    
C17   H5    S    
C7    H12   S    
C9    C20   A    
N1    Zn1   S    
O6    Zn2   S    
C1    O1    A    
H4    N1    S    
C4    C8    A    
C16   H3    S    
C25   O9    D    
C19   O7    A    
C9    H1    S    
O8    Zn2   S    
C3    C10   A    
O3    Zn1   S    
C10   C22   A    
C11   C13   D    
C9    C21   A    
C14   C25   S    
C10   C12   S    
C13   C18   S    
O2    Zn2   S    
C24   H10   S    
C19   C21   S    
C2    C3    A    
C12   O4    A    
C23   H11   S    
C2    C24   A    
C5    C6    A    
C11   C14   S    
O7    Zn1   S    
C13   H2    S    
C16   C17   S    
C8    H8    S    
C18   O6    A    
O10   H14   S    
C11   H13   S    
C17   N2    D    
C19   O8    A    
C1    O2    A    
C25   O10   S    
C5    C20   A    
C22   H9    S    
O1    Zn1   S    
C14   C15   D    
O4    Zn2   S    
C12   O3    A    
C3    C7    A    
C6    H6    S    
C22   C23   A    
N2    Zn2   S    
N2    Cl2   S    
O5    Zn1   S    
C16   N1    D    
C4    C5    A    
C20   H7    S    
C8    C21   A    
