data_mof_unit_48180.cif
_audit_creation_date              2013-03-05T16:10:09-0500
_audit_creation_method            fapswitch 2.2
_symmetry_space_group_name_H-M    P1
_symmetry_Int_Tables_number       1
_space_group_crystal_system       triclinic
_cell_length_a                    12.731473
_cell_length_b                    13.918815
_cell_length_c                    23.509266
_cell_angle_alpha                 88.353499
_cell_angle_beta                  93.222791
_cell_angle_gamma                 98.382853
_cell_volume                      4114.08956031

loop_
_atom_site_label
_atom_site_type_symbol
_atom_site_description
_atom_site_fract_x
_atom_site_fract_y
_atom_site_fract_z
_atom_type_partial_charge
O1    O     O_R   0.399110 0.356330 0.496510 -0.573202
O2    O     O_R   0.600890 0.643670 0.503490 -0.569738
O3    O     O_R   0.575900 0.366540 0.502610 -0.562713
O4    O     O_R   0.424100 0.633460 0.497390 -0.567179
C1    C     C_R   0.483293 0.315694 0.499699 0.815133
C2    C     C_R   0.516621 0.684291 0.500299 0.814725
O5    O     O_R   0.411590 0.494870 0.414830 -0.565678
O6    O     O_R   0.588410 0.505130 0.585170 -0.574395
O7    O     O_R   0.588370 0.505070 0.420930 -0.580767
O8    O     O_R   0.411630 0.494930 0.579070 -0.572782
C3    C     C_R   0.500708 0.505750 0.390786 0.822097
C4    C     C_R   0.499200 0.495280 0.609351 0.820173
Cu1   Cu    Cu3+1 0.395330 0.493960 0.496390 0.981547
Cu2   Cu    Cu3+1 0.604670 0.506040 0.503610 0.973264
C5    C     C_R   0.529157 0.576009 0.876186 0.541199
C6    C     C_R   0.465021 0.443968 0.124634 0.561474
N1    N     N_R   0.509366 0.486096 0.853149 -0.442202
N2    N     N_R   0.501961 0.531133 0.148343 -0.438752
C7    C     C_R   0.490685 0.404157 0.886363 0.613177
C8    C     C_R   0.536419 0.611194 0.116241 0.591591
C9    C     C_R   0.482435 0.410706 0.946044 -0.078259
C10   C     C_R   0.535721 0.605631 0.056048 -0.074963
C11   C     C_R   0.507839 0.503654 0.971003 -0.036697
C12   C     C_R   0.505587 0.513200 0.030864 -0.035172
C13   C     C_R   0.536018 0.587081 0.935947 -0.065279
C14   C     C_R   0.472183 0.430499 0.065622 -0.070898
C15   C     C_R   0.451430 0.327831 0.981328 -0.067952
C16   C     C_R   0.566296 0.688354 0.020655 -0.069448
C17   C     C_R   0.446621 0.337626 0.040678 -0.061600
C18   C     C_R   0.568484 0.678782 0.961253 -0.061752
O9    O     O_2   0.539691 0.654203 0.840644 -0.537088
O10   O     O_2   0.420526 0.371514 0.158758 -0.528939
O11   O     O_2   0.481621 0.317247 0.861260 -0.514205
O12   O     O_2   0.571738 0.694963 0.143081 -0.526481
C19   C     C_R   0.422641 0.566638 0.236744 0.629336
C20   C     C_R   0.413017 0.442461 0.761394 0.616641
C21   C     C_R   0.419970 0.559686 0.296339 -0.172398
C22   C     C_R   0.408311 0.443488 0.701423 -0.170883
C23   C     C_R   0.502180 0.519892 0.328372 -0.149489
C24   C     C_R   0.499029 0.485912 0.672168 -0.160894
C25   C     C_R   0.587363 0.493122 0.300106 -0.227769
C26   C     C_R   0.593542 0.519613 0.703775 -0.223155
H1    H     H_    0.651259 0.463318 0.323606 0.165002
H2    H     H_    0.664376 0.551142 0.682711 0.180608
C27   C     C_R   0.589187 0.501032 0.241049 -0.224809
C28   C     C_R   0.597885 0.515269 0.762927 -0.197436
H3    H     H_    0.653403 0.476680 0.219662 0.153313
H4    H     H_    0.671146 0.543230 0.786342 0.168665
C29   C     C_R   0.506455 0.536492 0.209254 0.261954
C30   C     C_R   0.507340 0.478927 0.792100 0.241981
C31   C     C_1   0.526096 0.787718 0.499657 -0.180448
C32   C     C_1   0.473389 0.212224 0.500215 -0.177381
C33   C     C_2   0.542626 0.978676 0.498078 -0.153740
C34   C     C_2   0.455940 0.021184 0.501506 -0.165396
C35   C     C_1   0.464851 0.125106 0.500788 0.003359
C36   C     C_1   0.534040 0.874793 0.498943 -0.000118
H5    H     H_    0.378015 0.978249 0.504960 0.150470
H6    H     H_    0.620521 0.021655 0.494637 0.157632
N3    N     N_1   0.238030 0.484870 0.490960 -0.148442
N4    N     N_1   0.761970 0.515130 0.509040 -0.157570
C37   C     C_2   0.027549 0.468980 0.485771 -0.121829
C38   C     C_2   0.972638 0.534872 0.509481 -0.125102
C39   C     C_1   0.854813 0.522527 0.509278 0.157142
C40   C     C_1   0.145280 0.479070 0.488758 0.174395
C41   C     C_R   0.421025 0.229388 0.957533 0.171802
C42   C     C_R   0.319827 0.202943 0.930877 -0.071170
C43   C     C_R   0.289439 0.108451 0.911394 -0.111522
C44   C     C_R   0.359362 0.039886 0.918941 -0.124514
C45   C     C_R   0.459882 0.065931 0.945725 -0.156455
C46   C     C_R   0.490998 0.160370 0.964758 -0.108649
H7    H     H_    0.264661 0.255263 0.925635 0.134826
H8    H     H_    0.211431 0.088175 0.890856 0.129147
H9    H     H_    0.335551 0.966540 0.904268 0.122686
H10   H     H_    0.513575 0.012879 0.952312 0.145274
H11   H     H_    0.568732 0.179393 0.985944 0.116109
C47   C     C_R   0.591489 0.787536 0.043809 0.184785
C48   C     C_R   0.509796 0.843985 0.048329 -0.108636
C49   C     C_R   0.533611 0.939662 0.066492 -0.148508
C50   C     C_R   0.638916 0.979544 0.080227 -0.119057
C51   C     C_R   0.720633 0.923445 0.075984 -0.121282
C52   C     C_R   0.697190 0.827641 0.057656 -0.090996
H12   H     H_    0.428158 0.814346 0.036847 0.126405
H13   H     H_    0.470396 0.983198 0.068772 0.152945
H14   H     H_    0.657303 0.054028 0.093774 0.119356
H15   H     H_    0.802182 0.954459 0.086416 0.124476
H16   H     H_    0.761026 0.785058 0.053662 0.113920
C53   C     C_R   0.417646 0.248491 0.076253 0.180499
C54   C     C_R   0.311111 0.205077 0.077902 -0.093443
C55   C     C_R   0.283562 0.123806 0.113202 -0.130369
C56   C     C_R   0.361872 0.086126 0.147414 -0.104367
C57   C     C_R   0.468088 0.128939 0.145875 -0.133871
C58   C     C_R   0.496322 0.209072 0.109835 -0.117407
H17   H     H_    0.249641 0.234774 0.052290 0.115370
H18   H     H_    0.201381 0.090538 0.114406 0.127915
H19   H     H_    0.340329 0.023581 0.174990 0.140415
H20   H     H_    0.528625 0.099538 0.172314 0.134335
H21   H     H_    0.578808 0.241749 0.108914 0.108810
C59   C     C_R   0.612878 0.764979 0.926832 0.183779
C60   C     C_R   0.546661 0.830171 0.903759 -0.084448
C61   C     C_R   0.588529 0.908436 0.869277 -0.134103
C62   C     C_R   0.696819 0.923516 0.859014 -0.094408
C63   C     C_R   0.763333 0.859667 0.882637 -0.129839
C64   C     C_R   0.721510 0.780275 0.916234 -0.136101
H22   H     H_    0.462680 0.819094 0.911558 0.112407
H23   H     H_    0.537072 0.957572 0.850572 0.141235
H24   H     H_    0.729123 0.984528 0.832638 0.130870
H25   H     H_    0.847154 0.871331 0.874592 0.126965
H26   H     H_    0.773419 0.730575 0.933868 0.115170
F1    F     F_    0.343145 0.601431 0.205206 -0.660946
F2    F     F_    0.325932 0.405687 0.790162 -0.664948
C65   C     C_R   0.331896 0.595855 0.323933 0.180445
C66   C     C_R   0.227399 0.547500 0.316493 -0.049042
C67   C     C_R   0.145070 0.579355 0.344456 -0.156514
C68   C     C_R   0.166423 0.659796 0.379723 -0.116454
C69   C     C_R   0.270080 0.708746 0.386963 -0.102226
C70   C     C_R   0.352636 0.677168 0.359068 -0.106868
H27   H     H_    0.210137 0.484427 0.289788 0.142463
H28   H     H_    0.064826 0.541307 0.339091 0.133456
H29   H     H_    0.102709 0.683965 0.401574 0.131735
H30   H     H_    0.286589 0.770814 0.414448 0.132399
H31   H     H_    0.432808 0.715150 0.365358 0.105593
C71   C     C_R   0.310356 0.394746 0.671236 0.180550
C72   C     C_R   0.211561 0.424696 0.679191 -0.074671
C73   C     C_R   0.118599 0.375133 0.653187 -0.162094
C74   C     C_R   0.123559 0.295768 0.618925 -0.129284
C75   C     C_R   0.221530 0.265866 0.610425 -0.129540
C76   C     C_R   0.314592 0.314621 0.636778 -0.083983
H32   H     H_    0.206556 0.486184 0.705608 0.143436
H33   H     H_    0.042670 0.398351 0.659568 0.137304
H34   H     H_    0.051345 0.257197 0.599222 0.128228
H35   H     H_    0.225270 0.204355 0.583849 0.124880
H36   H     H_    0.389791 0.289652 0.630659 0.103089
C77   C     C_R   0.029954 0.625480 0.535078 0.123505
C78   C     C_R   0.004887 0.716095 0.515281 -0.155054
C79   C     C_R   0.059797 0.801981 0.538068 -0.142653
C80   C     C_R   0.139566 0.798182 0.581049 -0.112650
C81   C     C_R   0.164127 0.708464 0.601549 -0.124726
C82   C     C_R   0.109359 0.622480 0.578889 -0.128859
H37   H     H_    0.943963 0.720274 0.481601 0.123665
H38   H     H_    0.040709 0.871515 0.522268 0.126222
H39   H     H_    0.182170 0.864730 0.598540 0.125722
H40   H     H_    0.225631 0.705481 0.635003 0.133854
H41   H     H_    0.129046 0.553760 0.595380 0.131353
C83   C     C_R   0.970708 0.384187 0.453962 0.128669
C84   C     C_R   0.998382 0.290988 0.464935 -0.145843
C85   C     C_R   0.946021 0.211202 0.434825 -0.139946
C86   C     C_R   0.866653 0.223811 0.392936 -0.105353
C87   C     C_R   0.840250 0.316397 0.380671 -0.129022
C88   C     C_R   0.892448 0.396381 0.410644 -0.135454
H42   H     H_    0.060330 0.279959 0.496821 0.121886
H43   H     H_    0.967224 0.139588 0.443880 0.125316
H44   H     H_    0.826244 0.161968 0.369654 0.125814
H45   H     H_    0.779733 0.326308 0.347685 0.124203
H46   H     H_    0.872545 0.467848 0.399573 0.120103

loop_
_geom_bond_atom_site_label_1
_geom_bond_atom_site_label_2
_geom_bond_distance
_ccdc_geom_bond_type
C53   C54   1.404240 A    
C62   C63   1.397687 A    
C15   C17   1.411422 A    
C34   C35   1.434004 S    
C65   C66   1.404658 A    
C81   H40   1.082481 S    
C84   C85   1.398204 A    
C72   H32   1.083117 S    
C79   C80   1.397290 A    
C23   C25   1.403448 A    
C48   C49   1.395741 A    
C41   C42   1.404405 A    
O5    C3    1.283310 A    
C61   H23   1.082254 S    
C80   H39   1.082392 S    
N4    C39   1.171166 T    
O1    C1    1.280439 A    
C75   H35   1.082404 S    
C38   C77   1.486946 S    
C19   C21   1.403575 A    
C12   C14   1.419827 A    
C31   C36   1.201131 T    
C82   H41   1.079666 S    
C50   H14   1.082065 S    
C5    C13   1.414179 A    
C41   C46   1.403018 A    
C71   C76   1.406161 A    
C43   H8    1.082274 S    
C26   C28   1.388530 A    
C55   H18   1.082248 S    
C76   H36   1.083257 S    
C86   C87   1.396750 A    
C63   C64   1.397875 A    
C57   H20   1.082258 S    
C67   C68   1.397924 A    
C84   H42   1.081545 S    
C74   H34   1.081916 S    
O4    Cu1   1.923305 S    
C44   C45   1.397482 A    
C59   C64   1.403589 A    
C19   C29   1.398590 A    
C11   C12   1.419616 A    
C1    C32   1.427009 S    
C65   C70   1.405357 A    
C2    C31   1.426700 S    
C68   H29   1.082311 S    
C19   F1    1.358861 S    
C32   C35   1.201318 T    
C8    O12   1.348083 S    
C67   H28   1.082449 S    
C24   C26   1.405344 A    
C60   H22   1.083011 S    
C9    C15   1.422526 A    
C77   C82   1.406185 A    
C10   C16   1.421367 A    
Cu1   Cu2   2.642066 S    
C25   H1    1.083404 S    
O2    C2    1.281299 A    
C26   H2    1.083254 S    
C49   H13   1.080141 S    
C66   C67   1.398983 A    
C58   H21   1.083014 S    
C68   C69   1.397871 A    
C27   H3    1.083012 S    
C6    C14   1.415011 A    
C79   H38   1.082365 S    
C28   H4    1.083143 S    
C21   C65   1.482148 S    
C70   H31   1.083219 S    
C43   C44   1.398200 A    
C72   C73   1.398292 A    
C62   H24   1.082312 S    
C47   C48   1.402092 A    
O4    C2    1.281991 A    
C7    O11   1.348176 S    
C78   H37   1.083223 S    
O7    Cu2   1.943380 S    
C49   C50   1.398030 A    
C83   C84   1.406156 A    
C44   H9    1.082296 S    
C33   C34   1.333308 D    
C50   C51   1.398233 A    
C4    C24   1.478891 S    
C37   C40   1.482803 S    
C88   H46   1.082877 S    
C42   H7    1.083060 S    
C51   H15   1.082230 S    
C15   C41   1.485023 S    
C77   C78   1.405763 A    
C37   C83   1.488834 S    
C60   C61   1.398761 A    
C27   C29   1.397725 A    
O6    C4    1.286336 A    
C38   C39   1.484549 S    
N3    C40   1.170108 T    
C45   H10   1.079470 S    
C87   C88   1.397957 A    
C3    C23   1.475618 S    
O7    C3    1.289061 A    
C22   C71   1.483455 S    
O3    Cu2   1.923307 S    
O8    C4    1.288093 A    
C8    C10   1.418893 A    
C69   H30   1.082540 S    
C9    C11   1.422281 A    
C20   F2    1.359273 S    
C74   C75   1.397541 A    
C10   C12   1.423806 A    
O1    Cu1   1.923168 S    
C87   H45   1.082427 S    
C16   C47   1.483030 S    
C63   H25   1.082305 S    
C57   C58   1.397909 A    
C20   C30   1.402388 A    
C85   C86   1.396973 A    
C33   C36   1.433716 S    
C13   C18   1.419896 A    
C5    N1    1.361867 A    
C18   C59   1.487148 S    
C54   H17   1.083004 S    
O6    Cu2   1.939581 S    
C83   C88   1.408531 A    
C7    C9    1.419377 A    
C52   H16   1.082992 S    
C51   C52   1.398349 A    
O3    C1    1.282988 A    
O8    Cu1   1.943382 S    
C56   H19   1.082265 S    
C47   C52   1.403826 A    
C33   H6    1.086817 S    
C5    O9    1.348518 S    
C78   C79   1.398498 A    
Cu1   N3    1.985260 S    
N1    C30   1.440058 S    
C6    O10   1.348915 S    
Cu2   N4    1.985260 S    
C81   C82   1.397808 A    
C28   C30   1.397872 A    
C16   C18   1.408848 A    
C86   H44   1.082344 S    
C55   C56   1.397871 A    
C21   C23   1.423319 A    
C22   C24   1.422241 A    
C56   C57   1.397995 A    
C66   H27   1.083080 S    
C48   H12   1.083138 S    
C75   C76   1.398329 A    
C20   C22   1.407525 A    
C61   C62   1.397554 A    
N1    C7    1.362946 A    
C73   H33   1.082418 S    
C42   C43   1.398442 A    
N2    C8    1.360205 A    
C11   C13   1.418844 A    
C37   C38   1.378675 D    
O2    Cu2   1.923168 S    
C45   C46   1.395357 A    
C17   C53   1.488745 S    
C85   H43   1.082395 S    
O5    Cu1   1.939579 S    
C54   C55   1.398004 A    
C14   C17   1.421364 A    
C6    N2    1.358972 A    
C59   C60   1.404160 A    
C46   H11   1.083222 S    
C25   C27   1.390820 A    
C80   C81   1.397061 A    
C64   H26   1.083133 S    
C71   C72   1.405213 A    
C53   C58   1.405024 A    
C69   C70   1.398840 A    
N2    C29   1.433543 S    
C73   C74   1.396512 A    
C34   H5    1.086919 S    
