data_mof_unit_19761.cif
_audit_creation_date              2012-12-10T19:34:39-0500
_audit_creation_method            fapswitch 2.2
_symmetry_space_group_name_H-M    P1
_symmetry_Int_Tables_number       1
_space_group_crystal_system       triclinic
_cell_length_a                    10.834403
_cell_length_b                    15.812042
_cell_length_c                    17.139715
_cell_angle_alpha                 95.930279
_cell_angle_beta                  90.261751
_cell_angle_gamma                 93.018992
_cell_volume                      2916.3583916

loop_
_atom_site_label
_atom_site_type_symbol
_atom_type_description
_atom_site_fract_x
_atom_site_fract_y
_atom_site_fract_z
_atom_type_partial_charge
C1    C     C_R   0.500818 0.489961 0.348680 0.795399
C2    C     C_R   0.052262 0.418157 0.493126 0.106929
C3    C     C_R   0.125496 0.496349 0.498824 -0.137515
C4    C     C_R   0.070099 0.572089 0.486315 -0.246727
C5    C     C_R   0.943541 0.573235 0.473075 -0.009889
C6    C     C_R   0.870259 0.496984 0.473534 -0.180944
C7    C     C_R   0.505939 0.485352 0.262983 -0.040912
C8    C     C_R   0.513978 0.560400 0.225895 -0.244875
C9    C     C_R   0.519044 0.556533 0.144667 -0.170419
C10   C     C_R   0.516046 0.477052 0.098823 0.336740
C11   C     C_R   0.509390 0.401861 0.136129 -0.031717
C12   C     C_R   0.261192 0.499291 0.502433 0.806666
C13   C     C_R   0.504440 0.406166 0.217737 -0.264169
C14   C     C_R   0.478266 0.450215 0.860216 -0.192652
C15   C     C_R   0.469576 0.442414 0.778573 -0.055602
C16   C     C_R   0.513848 0.528665 0.902925 0.367107
C17   C     C_R   0.498473 0.514649 0.737940 -0.080866
C18   C     C_R   0.531921 0.593071 0.781281 -0.232804
C19   C     C_R   0.538967 0.599868 0.862841 -0.196051
C20   C     C_R   0.449895 0.749088 0.455254 -0.004085
C21   C     C_R   0.451239 0.838195 0.455312 -0.121964
C22   C     C_R   0.520074 0.891073 0.514380 0.315524
C23   C     C_R   0.498630 0.509889 0.651543 0.802414
C24   C     C_R   0.587160 0.850365 0.568680 -0.335660
C25   C     C_R   0.583731 0.761156 0.565471 0.077481
C26   C     C_R   0.559964 0.158724 0.531889 -0.262370
C27   C     C_R   0.566838 0.247825 0.532706 0.069424
C28   C     C_R   0.467383 0.109595 0.486911 0.383885
C29   C     C_R   0.395200 0.241721 0.446210 0.035919
C30   C     C_R   0.385024 0.152645 0.443813 -0.313063
C31   C     C_R   0.736543 0.499253 0.489055 0.799800
C32   C     C_R   0.096822 0.338961 0.509101 -0.203624
C33   C     C_R   0.030635 0.262534 0.485606 -0.212341
C34   C     C_R   0.917294 0.262787 0.446419 0.065245
C35   C     C_R   0.866648 0.341088 0.438656 -0.197793
C36   C     C_R   0.928353 0.418674 0.468696 0.077666
Cu1   Cu    Cu3+1 0.493970 0.415220 0.496180 0.937852
Cu2   Cu    Cu3+1 0.506030 0.584780 0.503820 0.945665
H1    H     H_    0.126114 0.630643 0.484069 0.168355
H2    H     H_    0.499012 0.347668 0.245759 0.163497
H3    H     H_    0.554366 0.649408 0.752094 0.162342
H4    H     H_    0.524057 0.615801 0.118083 0.160231
H5    H     H_    0.565167 0.660819 0.894998 0.143998
H6    H     H_    0.515765 0.622320 0.259570 0.158072
H7    H     H_    0.637218 0.285086 0.568022 0.134484
H8    H     H_    0.625923 0.129114 0.566513 0.146337
H9    H     H_    0.642654 0.887975 0.613653 0.144090
H10   H     H_    0.636286 0.731172 0.607760 0.125168
H11   H     H_    0.330726 0.274026 0.412865 0.142654
H12   H     H_    0.180988 0.333862 0.541232 0.175486
H13   H     H_    0.312901 0.117212 0.408378 0.158781
H14   H     H_    0.396677 0.708686 0.411018 0.136425
H15   H     H_    0.070560 0.203266 0.495912 0.135328
H16   H     H_    0.779579 0.341107 0.407645 0.153448
H17   H     H_    0.454673 0.394631 0.890325 0.167337
N1    N     N_2   0.515033 0.469802 0.015655 -0.256789
N2    N     N_2   0.520982 0.538690 0.986081 -0.259320
N3    N     N_R   0.515100 0.712130 0.509560 -0.168796
N4    N     N_2   0.530380 0.982908 0.521041 -0.261033
N5    N     N_2   0.454125 0.018299 0.481920 -0.226070
N6    N     N_R   0.484890 0.287850 0.490450 -0.172200
O1    O     O_R   0.494360 0.420530 0.382500 -0.592744
O2    O     O_R   0.504550 0.563720 0.388950 -0.595455
O3    O     O_R   0.314550 0.428390 0.496780 -0.597962
O4    O     O_R   0.324740 0.571580 0.503230 -0.582141
O5    O     O_R   0.495450 0.436280 0.611050 -0.572344
O6    O     O_R   0.505640 0.579470 0.617500 -0.588047
O7    O     O_R   0.675260 0.428420 0.496770 -0.594626
O8    O     O_R   0.685450 0.571610 0.503220 -0.566147
C37   C     C_1   0.384543 0.871178 0.392950 0.240185
N7    N     N_1   0.331057 0.897397 0.342836 -0.285809
C38   C     C_R   0.848701 0.182079 0.416593 0.111125
C39   C     C_R   0.782151 0.175708 0.345201 -0.148427
C40   C     C_R   0.712657 0.101111 0.319191 -0.122183
C41   C     C_R   0.709376 0.031994 0.363674 -0.079239
C42   C     C_R   0.776512 0.037143 0.433950 -0.115653
C43   C     C_R   0.845764 0.111581 0.460404 -0.171943
H18   H     H_    0.784036 0.228221 0.309325 0.120805
H19   H     H_    0.660896 0.097051 0.264652 0.136937
H20   H     H_    0.653777 0.974870 0.343976 0.127642
H21   H     H_    0.772658 0.984336 0.469237 0.129489
H22   H     H_    0.893624 0.114800 0.516294 0.115748
C44   C     C_R   0.892700 0.651948 0.449005 0.145070
C45   C     C_R   0.821627 0.648204 0.379651 -0.091948
C46   C     C_R   0.772151 0.721601 0.356752 -0.121047
C47   C     C_R   0.794592 0.799376 0.402102 -0.100041
C48   C     C_R   0.866659 0.804093 0.470463 -0.133499
C49   C     C_R   0.915711 0.730650 0.493972 -0.159571
H23   H     H_    0.803855 0.588288 0.343673 0.104917
H24   H     H_    0.716540 0.718223 0.303796 0.120000
H25   H     H_    0.755856 0.855697 0.383973 0.117735
H26   H     H_    0.884008 0.864461 0.505575 0.122153
H27   H     H_    0.970278 0.734935 0.547469 0.124150
C50   C     C_R   0.426481 0.358003 0.739718 0.147785
C51   C     C_R   0.307388 0.345540 0.706432 -0.105753
C52   C     C_R   0.262994 0.263872 0.676439 -0.154629
C53   C     C_R   0.337297 0.194586 0.678821 -0.090879
C54   C     C_R   0.455722 0.206574 0.712047 -0.137881
C55   C     C_R   0.500235 0.287914 0.742574 -0.155174
H28   H     H_    0.248421 0.398618 0.705123 0.109520
H29   H     H_    0.170381 0.253964 0.652212 0.122033
H30   H     H_    0.302891 0.131545 0.655301 0.131789
H31   H     H_    0.512946 0.152780 0.714279 0.132069
H32   H     H_    0.591604 0.296265 0.769054 0.129193
C56   C     C_1   0.506342 0.319433 0.091046 0.241699
N8    N     N_1   0.503900 0.253371 0.054876 -0.286397

loop_
_geom_bond_atom_site_label_1
_geom_bond_atom_site_label_2
_ccdc_geom_bond_type
C48   C49   A    
C39   C40   A    
C51   C52   A    
C30   H13   S    
C1    O1    A    
C15   C50   S    
C53   C54   A    
C7    C8    A    
C29   H11   S    
C46   C47   A    
C9    H4    S    
C29   C30   A    
C43   H22   S    
C23   O5    A    
C18   C19   A    
C47   H25   S    
C5    C6    A    
C12   O3    A    
C54   H31   S    
Cu1   O7    S    
N1    N2    D    
C2    C32   A    
C34   C35   A    
C23   O6    A    
C13   H2    S    
C6    C31   S    
C3    C12   S    
C27   N6    A    
C38   C43   A    
Cu2   N3    S    
C45   C46   A    
C35   C36   A    
C8    C9    A    
C11   C56   S    
C39   H18   S    
Cu2   O4    S    
C37   N7    T    
C10   N1    S    
C9    C10   A    
C53   H30   S    
C27   H7    S    
C14   H17   S    
Cu2   O8    S    
N4    N5    D    
C1    C7    S    
C21   C22   A    
C52   C53   A    
C35   H16   S    
C1    O2    A    
C19   H5    S    
C33   C34   A    
C28   N5    S    
C33   H15   S    
C31   O7    A    
C29   N6    A    
C40   C41   A    
C42   C43   A    
C18   H3    S    
C22   N4    S    
C47   C48   A    
C38   C39   A    
C41   C42   A    
Cu1   Cu2   S    
C44   C45   A    
C4    H1    S    
C7    C13   A    
Cu1   O5    S    
C20   C21   A    
C17   C18   A    
C26   C27   A    
C17   C23   S    
C24   C25   A    
C25   H10   S    
C32   H12   S    
C40   H19   S    
C14   C16   A    
C25   N3    A    
C20   N3    A    
C3    C4    A    
C34   C38   S    
Cu1   O3    S    
C48   H26   S    
Cu2   O2    S    
C12   O4    A    
C2    C36   A    
C15   C17   A    
C49   H27   S    
C55   H32   S    
C51   H28   S    
C24   H9    S    
C8    H6    S    
C4    C5    A    
C42   H21   S    
Cu1   N6    S    
C46   H24   S    
C56   N8    T    
C26   C28   A    
C21   C37   S    
C32   C33   A    
C28   C30   A    
C2    C3    A    
C20   H14   S    
C11   C13   A    
C50   C55   A    
C16   C19   A    
C5    C44   S    
C6    C36   A    
C44   C49   A    
C22   C24   A    
C16   N2    S    
C50   C51   A    
C10   C11   A    
C26   H8    S    
C31   O8    A    
C41   H20   S    
Cu2   O6    S    
C54   C55   A    
C45   H23   S    
Cu1   O1    S    
C14   C15   A    
C52   H29   S    
