data_mof_unit_16804.cif
_audit_creation_date              2012-12-10T17:11:31-0500
_audit_creation_method            fapswitch 2.2
_symmetry_space_group_name_H-M    P1
_symmetry_Int_Tables_number       1
_space_group_crystal_system       triclinic
_cell_length_a                    15.071728
_cell_length_b                    12.987506
_cell_length_c                    11.847765
_cell_angle_alpha                 100.070612
_cell_angle_beta                  93.527291
_cell_angle_gamma                 94.25213
_cell_volume                      2270.55253111

loop_
_atom_site_label
_atom_site_type_symbol
_atom_type_description
_atom_site_fract_x
_atom_site_fract_y
_atom_site_fract_z
_atom_type_partial_charge
C1    C     C_R   0.503056 0.299714 0.477978 0.876007
C2    C     C_R   0.496893 0.700267 0.522024 0.872626
C3    C     C_R   0.052561 0.455176 0.691511 -0.161048
C4    C     C_R   0.947159 0.541379 0.307017 -0.163222
C5    C     C_R   0.490513 0.813688 0.535355 -0.155509
C6    C     C_R   0.509426 0.186278 0.464683 -0.171449
C7    C     C_R   0.555577 0.019816 0.369328 -0.198324
C8    C     C_R   0.444170 0.980079 0.630586 -0.219750
C9    C     C_R   0.551599 0.127552 0.373403 0.422969
C10   C     C_R   0.448011 0.872290 0.626399 0.376762
C11   C     C_R   0.474198 0.135935 0.549416 -0.238722
C12   C     C_R   0.525931 0.864081 0.450788 -0.230344
C13   C     C_R   0.479645 0.029164 0.545394 0.097411
C14   C     C_R   0.520408 0.970820 0.454760 0.074845
C15   C     C_R   0.410689 0.405022 0.021351 -0.253291
C16   C     C_R   0.588772 0.595758 0.978733 -0.271890
C17   C     C_R   0.418220 0.411256 0.140971 0.575534
C18   C     C_R   0.581892 0.588554 0.859004 0.514493
C19   C     C_R   0.539606 0.542582 0.156576 0.381078
C20   C     C_R   0.459955 0.458011 0.843507 0.393508
C21   C     C_R   0.532117 0.535332 0.034300 -0.075996
C22   C     C_R   0.467199 0.465619 0.965823 -0.088484
C23   C     C_R   0.328919 0.500987 0.500484 0.867656
C24   C     C_R   0.671048 0.498596 0.499414 0.868479
C25   C     C_R   0.810972 0.516578 0.401911 -0.159934
C26   C     C_R   0.188856 0.481556 0.597359 -0.151761
C27   C     C_R   0.767738 0.495389 0.497902 -0.045824
C28   C     C_R   0.232113 0.502874 0.501455 -0.046728
C29   C     C_R   0.817143 0.471156 0.592486 -0.153276
C30   C     C_R   0.182584 0.525524 0.406094 -0.187093
C31   C     C_R   0.909808 0.472919 0.594165 0.094572
C32   C     C_R   0.089899 0.523389 0.404244 0.089979
C33   C     C_R   0.953241 0.496900 0.498628 0.067116
C34   C     C_R   0.046482 0.499634 0.499887 0.072032
C35   C     C_R   0.903502 0.518063 0.401790 0.086622
C36   C     C_R   0.096248 0.478931 0.596942 0.086751
C37   C     C_R   0.959784 0.451884 0.689988 -0.153032
C38   C     C_R   0.039904 0.544120 0.308283 -0.169755
Cu1   Cu    Cu3+1 0.506660 0.507730 0.615930 1.099911
Cu2   Cu    Cu3+1 0.493340 0.492270 0.384070 1.102930
H1    H     H_    0.772978 0.533153 0.327711 0.199469
H2    H     H_    0.226901 0.465820 0.671932 0.200002
H3    H     H_    0.357838 0.352516 0.972001 0.235729
H4    H     H_    0.641732 0.647981 0.028079 0.240190
H5    H     H_    0.783480 0.450375 0.664563 0.183339
H6    H     H_    0.216192 0.545506 0.333595 0.196857
H7    H     H_    0.927157 0.433463 0.763887 0.167311
H8    H     H_    0.072516 0.562274 0.234264 0.172937
H9    H     H_    0.090126 0.438927 0.766435 0.171605
H10   H     H_    0.909603 0.557798 0.232172 0.172790
H11   H     H_    0.558262 0.820092 0.381213 0.212280
H12   H     H_    0.441963 0.179957 0.619068 0.213446
H13   H     H_    0.587153 0.973824 0.300178 0.210256
H14   H     H_    0.412214 0.026023 0.699360 0.186093
N1    N     N_R   0.516670 0.519360 0.790130 -0.248432
N2    N     N_R   0.483330 0.480640 0.209870 -0.260205
O1    O     O_R   0.504720 0.354460 0.582000 -0.585849
O2    O     O_R   0.495280 0.645540 0.418000 -0.582339
O3    O     O_R   0.493480 0.341410 0.386200 -0.484895
O4    O     O_R   0.506520 0.658590 0.613800 -0.490685
O5    O     O_R   0.375880 0.506510 0.597910 -0.540719
O6    O     O_R   0.624120 0.493490 0.402090 -0.541968
O7    O     O_R   0.364640 0.493450 0.402110 -0.558155
O8    O     O_R   0.635360 0.506550 0.597890 -0.558308
S1    S     S_3+6 0.393201 0.814821 0.731473 0.037128
O9    O     O_2   0.332108 0.721460 0.673564 -0.270047
O10   O     O_2   0.460889 0.779731 0.811952 -0.299708
O11   O     O_3   0.331922 0.901066 0.808119 -0.477772
H15   H     H_    0.374260 0.942854 0.869323 0.367979
S2    S     S_3+6 0.605021 0.184458 0.266997 0.024697
O12   O     O_2   0.535763 0.216423 0.186227 -0.248404
O13   O     O_2   0.665320 0.279144 0.323279 -0.319800
O14   O     O_3   0.666348 0.097770 0.191234 -0.517911
H16   H     H_    0.692225 0.135177 0.133270 0.387501
Br1   Br    Br    0.371587 0.357071 0.753196 -0.530440
Br2   Br    Br    0.628316 0.643086 0.246867 -0.524433
S3    S     S_3+6 0.671450 0.666488 0.813038 0.062332
O15   O     O_2   0.753014 0.606988 0.815294 -0.286018
O16   O     O_2   0.659283 0.697964 0.697938 -0.259551
O17   O     O_3   0.692885 0.778035 0.910367 -0.486604
H17   H     H_    0.638427 0.815803 0.905649 0.370387
S4    S     S_3+6 0.330739 0.329423 0.185986 0.051593
O18   O     O_2   0.320485 0.226503 0.103294 -0.260135
O19   O     O_2   0.340005 0.304719 0.304502 -0.264520
O20   O     O_3   0.236025 0.388183 0.171885 -0.574147
H18   H     H_    0.187810 0.336550 0.185193 0.381275

loop_
_geom_bond_atom_site_label_1
_geom_bond_atom_site_label_2
_ccdc_geom_bond_type
C19   N2    A    
C8    C13   A    
C27   C29   A    
O14   H16   S    
C24   C27   S    
C6    C9    A    
C3    H9    S    
S3    O15   D    
Cu1   O8    S    
C16   C21   A    
Cu2   O7    S    
C19   Br2   S    
C19   C21   A    
C1    O3    A    
C2    O4    A    
S3    O17   S    
Cu1   O1    S    
Cu2   O6    S    
C7    C9    A    
C17   S4    S    
C11   H12   S    
C15   C22   A    
Cu1   N1    S    
O11   H15   S    
Cu2   N2    S    
C31   C33   A    
S2    O12   D    
C32   C38   A    
C37   H7    S    
C16   H4    S    
C38   H8    S    
C23   O7    A    
C4    C35   A    
C24   O8    A    
Cu2   O3    S    
C21   C22   A    
C20   N1    A    
S3    O16   D    
Cu1   O5    S    
Cu2   O2    S    
C1    C6    S    
C9    S2    S    
C5    C12   A    
C8    H14   S    
C6    C11   A    
S1    O10   D    
O20   H18   S    
C7    C14   A    
C31   C37   A    
C20   Br1   S    
C29   H5    S    
C32   C34   A    
C1    O1    A    
S1    O11   S    
S2    O14   S    
C33   C34   A    
C16   C18   A    
C23   C28   S    
C17   N2    A    
C18   N1    A    
C25   C35   A    
C26   C36   A    
C20   C22   A    
S4    O18   D    
S4    O19   D    
C2    C5    S    
C7    H13   S    
C25   H1    S    
Cu1   Cu2   S    
C12   H11   S    
C26   H2    S    
C10   S1    S    
C15   C17   A    
C24   O6    A    
C30   H6    S    
C12   C14   A    
O17   H17   S    
C2    O2    A    
C25   C27   A    
S4    O20   S    
C26   C28   A    
C28   C30   A    
C15   H3    S    
C5    C10   A    
C29   C31   A    
C30   C32   A    
C11   C13   A    
C3    C36   A    
C18   S3    S    
Cu1   O4    S    
C33   C35   A    
C34   C36   A    
C23   O5    A    
C3    C37   A    
C8    C10   A    
S1    O9    D    
C4    H10   S    
C4    C38   A    
S2    O13   D    
C13   C14   A    
