data_mof_unit_21672.cif
_audit_creation_date              2012-12-10T18:57:11-0500
_audit_creation_method            fapswitch 2.2
_symmetry_space_group_name_H-M    P1
_symmetry_Int_Tables_number       1
_space_group_crystal_system       triclinic
_cell_length_a                    8.776182
_cell_length_b                    10.886363
_cell_length_c                    9.573999
_cell_angle_alpha                 92.615993
_cell_angle_beta                  97.663813
_cell_angle_gamma                 89.89986
_cell_volume                      905.582665988

loop_
_atom_site_label
_atom_site_type_symbol
_atom_type_description
_atom_site_fract_x
_atom_site_fract_y
_atom_site_fract_z
_atom_type_partial_charge
C1    C     C_R   0.502411 0.262756 0.497191 0.791531
C2    C     C_R   0.450933 0.931270 0.375750 -0.213947
C3    C     C_R   0.504440 0.872743 0.501627 -0.087417
C4    C     C_R   0.582387 0.944687 0.613605 0.086535
C5    C     C_3   0.560110 0.957615 0.765575 -0.377406
C6    C     C_3   0.572039 0.094917 0.758838 -0.504283
C7    C     C_R   0.618654 0.553210 0.091678 0.189361
C8    C     C_R   0.394580 0.433988 0.057981 -0.077488
C9    C     C_R   0.395690 0.432907 0.909401 -0.088605
C10   C     C_R   0.614912 0.556843 0.943583 0.194977
C11   C     C_3   0.641703 0.691855 0.957468 0.173428
C12   C     C_R   0.204184 0.502189 0.464949 0.873320
C13   C     C_3   0.666237 0.684252 0.115978 -0.541428
C14   C     C_R   0.499983 0.738238 0.502062 0.788418
C15   C     C_R   0.795121 0.504675 0.536263 0.877964
C16   C     C_2   0.038660 0.500456 0.448712 -0.420232
C17   C     C_2   0.958721 0.518966 0.558968 -0.021022
C18   C     C_R   0.587887 0.071261 0.607711 0.115332
C19   C     C_R   0.516287 0.130339 0.491234 -0.077884
C20   C     C_R   0.457138 0.059311 0.370382 -0.215456
Cu1   Cu    Cu3+1 0.499990 0.499980 0.640670 0.959953
Cu2   Cu    Cu3+1 0.500010 0.500020 0.359330 0.935198
H1    H     H_    0.980173 0.478413 0.343161 0.155452
H2    H     H_    0.310702 0.379014 0.840802 0.127710
H3    H     H_    0.743813 0.722319 0.910809 0.131059
H4    H     H_    0.788935 0.693511 0.162412 0.164048
H5    H     H_    0.586420 0.743396 0.168898 0.236288
H6    H     H_    0.406874 0.102533 0.275445 0.157895
H7    H     H_    0.397998 0.878741 0.283179 0.159460
H8    H     H_    0.442269 0.929901 0.782192 0.244606
H9    H     H_    0.658783 0.920624 0.835621 0.224102
H10   H     H_    0.463750 0.142739 0.776750 0.212141
H11   H     H_    0.678724 0.134460 0.819894 0.201674
H12   H     H_    0.307317 0.382376 0.100135 0.135496
N1    N     N_R   0.500980 0.500930 0.148050 -0.176572
N2    N     N_R   0.500990 0.500890 0.852140 -0.172872
O1    O     O_R   0.500000 0.319640 0.618810 -0.588488
O2    O     O_R   0.500020 0.319680 0.381230 -0.587545
O3    O     O_R   0.274830 0.499980 0.591380 -0.584263
O4    O     O_R   0.274850 0.500020 0.353800 -0.590716
O5    O     O_R   0.499980 0.680320 0.618770 -0.535283
O6    O     O_R   0.500000 0.680360 0.381190 -0.598955
O7    O     O_R   0.725150 0.499980 0.646200 -0.572245
O8    O     O_R   0.725170 0.500020 0.408620 -0.597434
O9    O     O_3   0.505827 0.755022 0.910802 -0.732659
H13   H     H_    0.419334 0.724733 0.957476 0.333621
N3    N     N_3   0.025844 0.557457 0.699670 -0.591401
H14   H     H_    0.094582 0.635487 0.697094 0.243753
H15   H     H_    0.087757 0.485148 0.747388 0.240280

loop_
_geom_bond_atom_site_label_1
_geom_bond_atom_site_label_2
_ccdc_geom_bond_type
C12   O4    A    
C7    C10   A    
C6    H10   S    
C9    H2    S    
C9    N2    A    
C19   C20   A    
Cu1   O3    S    
C6    H11   S    
C1    O1    A    
C14   O6    A    
Cu2   O4    S    
C12   O3    A    
C2    C3    A    
C8    C9    A    
C4    C18   A    
N3    H15   S    
Cu1   N2    S    
C8    H12   S    
O9    H13   S    
Cu2   N1    S    
C11   C13   S    
Cu2   O6    S    
C3    C14   S    
C1    O2    A    
C14   O5    A    
Cu1   O5    S    
C4    C5    S    
C15   O8    A    
C18   C19   A    
C16   H1    S    
C2    H7    S    
C5    C6    S    
C6    C18   S    
Cu2   O8    S    
C13   H4    S    
C11   O9    S    
C1    C19   S    
C10   C11   S    
C11   H3    S    
C15   O7    A    
C3    C4    A    
Cu2   O2    S    
N3    H14   S    
C12   C16   S    
C7    C13   S    
Cu1   O1    S    
C5    H8    S    
C15   C17   S    
C2    C20   A    
C13   H5    S    
C10   N2    A    
C20   H6    S    
Cu1   Cu2   S    
C7    N1    A    
Cu1   O7    S    
C17   N3    S    
C16   C17   D    
C5    H9    S    
C8    N1    A    
