data_mof_unit_18146.cif
_audit_creation_date              2012-12-11T15:53:31-0500
_audit_creation_method            fapswitch 2.2
_symmetry_space_group_name_H-M    P1
_symmetry_Int_Tables_number       1
_space_group_crystal_system       triclinic
_cell_length_a                    6.923916
_cell_length_b                    14.57888
_cell_length_c                    15.962035
_cell_angle_alpha                 90.461969
_cell_angle_beta                  89.752266
_cell_angle_gamma                 89.704288
_cell_volume                      1611.16556327

loop_
_atom_site_label
_atom_site_type_symbol
_atom_type_description
_atom_site_fract_x
_atom_site_fract_y
_atom_site_fract_z
_atom_type_partial_charge
O1    O     O_R   0.361600 0.167310 0.164620 -0.542558
O2    O     O_R   0.638400 0.832690 0.835380 -0.542550
O3    O     O_R   0.691080 0.157570 0.338750 -0.536320
O4    O     O_R   0.308920 0.842430 0.661250 -0.536434
O5    O     O_R   0.861410 0.336420 0.339360 -0.542597
O6    O     O_R   0.138590 0.663580 0.660640 -0.542629
C1    C     C_R   0.521761 0.135149 0.367124 0.718483
C2    C     C_R   0.478237 0.864842 0.632868 0.718384
O7    O     O_R   0.691320 0.156280 0.165240 -0.543597
O8    O     O_R   0.308680 0.843720 0.834760 -0.543581
O9    O     O_R   0.861640 0.335130 0.164600 -0.530747
O10   O     O_R   0.138360 0.664870 0.835400 -0.530742
C3    C     C_R   0.523923 0.134936 0.135145 0.703876
C4    C     C_R   0.476078 0.865064 0.864854 0.703892
O11   O     O_R   0.361370 0.168600 0.339370 -0.536503
O12   O     O_R   0.638630 0.831400 0.660630 -0.536463
O13   O     O_3   0.527990 0.310540 0.251980 -0.363541
O14   O     O_3   0.472010 0.689460 0.748020 -0.363528
V1    V     V_3+5 0.802830 0.240980 0.251990 1.425915
V2    V     V_3+5 0.197170 0.759020 0.748010 1.425787
O15   O     O_R   0.191360 0.346160 0.165220 -0.536589
O16   O     O_R   0.808640 0.653840 0.834780 -0.536583
C5    C     C_R   0.021908 0.365841 0.134239 0.716682
C6    C     C_R   0.978093 0.634156 0.865760 0.716703
O17   O     O_R   0.191130 0.347440 0.338740 -0.541419
O18   O     O_R   0.808870 0.652560 0.661260 -0.541406
C7    C     C_R   0.021585 0.369604 0.367528 0.710673
C8    C     C_R   0.978414 0.630397 0.632471 0.710605
V3    V     V_3+5 0.302840 0.262750 0.251990 1.429105
V4    V     V_3+5 0.697160 0.737250 0.748010 1.429118
O19   O     O_3   0.027820 0.193180 0.251990 -0.375446
O20   O     O_3   0.972180 0.806820 0.748010 -0.375446
C9    C     C_3   0.820665 0.470683 0.481443 -0.151509
C10   C     C_3   0.179334 0.529318 0.518556 -0.151514
C11   C     C_3   0.920354 0.460693 0.568073 -0.173222
C12   C     C_3   0.079645 0.539308 0.431926 -0.173244
H1    H     H_    0.856268 0.428165 0.624282 0.124240
H2    H     H_    0.143731 0.571836 0.375717 0.124259
H3    H     H_    0.672595 0.447363 0.465832 0.121692
H4    H     H_    0.327403 0.552638 0.534167 0.121700
C13   C     C_3   0.990398 0.560883 0.562422 -0.057514
C14   C     C_3   0.009601 0.439118 0.437577 -0.057516
C15   C     C_3   0.892194 0.570696 0.476872 0.197061
C16   C     C_3   0.107805 0.429305 0.523127 0.197156
C17   C     C_R   0.829329 0.514264 0.955724 -0.176287
C18   C     C_R   0.170676 0.485728 0.044270 -0.176288
H5    H     H_    0.696481 0.522659 0.920919 0.191308
H6    H     H_    0.303525 0.477333 0.079074 0.191304
C19   C     C_R   0.836726 0.446035 0.016713 0.364732
C20   C     C_R   0.163282 0.553954 0.983279 0.364728
C21   C     C_R   0.009064 0.432072 0.063540 -0.228587
C22   C     C_R   0.990939 0.567921 0.936455 -0.228591
C23   C     C_R   0.604200 0.082279 0.513065 0.331445
C24   C     C_R   0.395806 0.917697 0.486909 0.331470
C25   C     C_R   0.595753 0.015649 0.576895 0.101761
C26   C     C_R   0.404273 0.984327 0.423078 0.101812
C27   C     C_R   0.490295 0.933513 0.564484 -0.236764
C28   C     C_R   0.509699 0.066469 0.435498 -0.236755
C29   C     C_R   0.669635 0.052921 0.007029 0.163799
C30   C     C_R   0.330380 0.947072 0.992974 0.163744
C31   C     C_R   0.649906 0.987696 0.942447 -0.193324
C32   C     C_R   0.350100 0.012301 0.057553 -0.193353
H7    H     H_    0.765278 0.979531 0.896913 0.128920
H8    H     H_    0.234720 0.020470 0.103083 0.128934
C33   C     C_R   0.483271 0.934045 0.934291 -0.094307
C34   C     C_R   0.516736 0.065954 0.065709 -0.094286
C35   C     C_3   0.767876 0.651615 0.450334 -0.773915
H9    H     H_    0.716806 0.640570 0.385250 0.211615
H10   H     H_    0.641185 0.658305 0.492830 0.198887
H11   H     H_    0.853890 0.715581 0.453358 0.220701
C36   C     C_3   0.232124 0.348386 0.549665 -0.774067
H12   H     H_    0.283193 0.359432 0.614749 0.211614
H13   H     H_    0.146111 0.284420 0.546641 0.220734
H14   H     H_    0.358815 0.341698 0.507169 0.198825
O21   O     O_3   0.672818 0.394227 0.027247 -0.637904
H15   H     H_    0.713611 0.329636 0.033639 0.282066
O22   O     O_3   0.327200 0.605754 0.972740 -0.637901
H16   H     H_    0.286419 0.670348 0.966356 0.282057
O23   O     O_3   0.704633 0.162380 0.529249 -0.648312
H17   H     H_    0.663456 0.211248 0.490509 0.276285
O24   O     O_3   0.295419 0.837587 0.470698 -0.648416
H18   H     H_    0.336024 0.788799 0.509606 0.276426
C37   C     C_3   0.693659 0.033830 0.660189 -0.663751
H19   H     H_    0.587958 0.026299 0.712202 0.165254
H20   H     H_    0.814403 0.984521 0.668843 0.207785
H21   H     H_    0.754761 0.103749 0.665529 0.237326
C38   C     C_3   0.306410 0.966147 0.339775 -0.663743
H22   H     H_    0.412136 0.973682 0.287772 0.165243
H23   H     H_    0.245317 0.896226 0.334426 0.237358
H24   H     H_    0.185668 0.015454 0.331111 0.207761
C39   C     C_3   0.853001 0.108259 0.009874 -0.745083
H25   H     H_    0.934157 0.092709 0.067754 0.215273
H26   H     H_    0.950095 0.092365 0.956057 0.199748
H27   H     H_    0.818344 0.182370 0.007634 0.185278
C40   C     C_3   0.147028 0.891724 0.990129 -0.744877
H28   H     H_    0.050001 0.907547 0.044001 0.199719
H29   H     H_    0.065796 0.907334 0.932274 0.215230
H30   H     H_    0.181732 0.817603 0.992289 0.185240

loop_
_geom_bond_atom_site_label_1
_geom_bond_atom_site_label_2
_ccdc_geom_bond_type
C6    C22   S    
C38   H22   S    
O13   V3    S    
C12   C14   S    
C40   H28   S    
O4    C2    A    
V1    O19   S    
O24   H18   S    
C40   H30   S    
O22   H16   S    
O9    V1    S    
C9    H3    S    
C10   H4    S    
C9    C14   S    
C11   H1    S    
O3    C1    A    
C29   C34   A    
O12   V4    S    
C8    C13   S    
C16   C36   S    
C30   C32   A    
C31   H7    S    
O7    C3    A    
C32   H8    S    
C9    C11   S    
O5    C7    A    
O7    V1    S    
O6    C8    A    
O8    V2    S    
C19   C21   A    
C20   C22   A    
C19   O21   S    
O3    V1    S    
O14   V4    S    
C1    C28   S    
C10   C12   S    
C23   C25   A    
C2    O12   A    
C13   C15   S    
C10   C13   S    
C14   C16   S    
C11   C13   S    
O11   V3    S    
C18   H6    S    
C3    C34   S    
C17   H5    S    
O17   V3    S    
C24   C26   A    
C29   C31   A    
C32   C34   A    
C35   H9    S    
C9    C15   S    
C10   C16   S    
O8    C4    A    
C39   H25   S    
C36   H13   S    
C26   C38   S    
C1    O11   A    
C17   C22   A    
O15   V3    S    
C18   C21   A    
C35   H10   S    
O21   H15   S    
C2    C27   S    
C39   H26   S    
C5    C21   S    
C37   H19   S    
C17   C19   A    
O10   V2    S    
O1    V3    S    
C25   C27   A    
C29   C39   S    
C11   C16   S    
C37   H20   S    
C30   C33   A    
O18   V4    S    
C38   H23   S    
O16   C6    A    
O1    C3    A    
C25   C37   S    
C12   H2    S    
C20   O22   S    
V2    O20   S    
C18   C20   A    
O16   V4    S    
C23   O23   S    
C36   H14   S    
C23   C28   A    
C40   H29   S    
O5    V1    S    
O17   C7    A    
O6    V2    S    
O10   C6    A    
O18   C8    A    
O2    V4    S    
C35   H11   S    
O15   C5    A    
C36   H12   S    
V3    O19   S    
C39   H27   S    
V4    O20   S    
C7    C14   S    
O9    C5    A    
O13   V1    S    
C4    C33   S    
C26   C28   A    
O14   V2    S    
O2    C4    A    
O23   H17   S    
O4    V2    S    
C30   C40   S    
C31   C33   A    
C37   H21   S    
C15   C35   S    
C38   H24   S    
C12   C15   S    
C24   O24   S    
C24   C27   A    
