data_mof_unit_25133.cif
_audit_creation_date              2013-03-05T16:12:45-0500
_audit_creation_method            fapswitch 2.2
_symmetry_space_group_name_H-M    P1
_symmetry_Int_Tables_number       1
_space_group_crystal_system       triclinic
_cell_length_a                    10.613596
_cell_length_b                    9.837893
_cell_length_c                    27.725028
_cell_angle_alpha                 90.952898
_cell_angle_beta                  89.659074
_cell_angle_gamma                 90.070516
_cell_volume                      2894.46704312

loop_
_atom_site_label
_atom_site_type_symbol
_atom_site_description
_atom_site_fract_x
_atom_site_fract_y
_atom_site_fract_z
_atom_type_partial_charge
O1    O     O_R   0.316770 0.614620 0.500000 -0.615840
O2    O     O_R   0.683230 0.385380 0.500000 -0.615835
O3    O     O_R   0.683230 0.614620 0.500000 -0.614753
O4    O     O_R   0.316770 0.385380 0.500000 -0.614753
C1    C     C_R   0.260566 0.499938 0.500363 0.925083
C2    C     C_R   0.739434 0.500062 0.499636 0.925086
O5    O     O_R   0.500030 0.614650 0.428760 -0.621080
O6    O     O_R   0.499970 0.385350 0.571240 -0.621077
O7    O     O_R   0.499970 0.614650 0.571240 -0.628956
O8    O     O_R   0.500030 0.385350 0.428760 -0.628950
C3    C     C_R   0.499815 0.498745 0.405988 0.858759
C4    C     C_R   0.500185 0.501255 0.594012 0.858761
Zn1   Zn    Zn3+2 0.500000 0.653120 0.500000 0.951184
Zn2   Zn    Zn3+2 0.500000 0.346880 0.500000 0.951185
C5    C     C_R   0.395209 0.467718 0.178070 0.504553
C6    C     C_R   0.604815 0.532275 0.821929 0.504555
O9    O     O_2   0.287104 0.456140 0.203618 -0.540546
O10   O     O_2   0.712919 0.543845 0.796381 -0.540549
N1    N     N_R   0.507060 0.480807 0.201445 -0.359667
N2    N     N_R   0.492962 0.519194 0.798555 -0.359667
C7    C     C_R   0.618995 0.490447 0.177316 0.532134
C8    C     C_R   0.381028 0.509562 0.822685 0.532134
C9    C     C_R   0.518189 0.362924 0.278573 0.233973
C10   C     C_R   0.481828 0.637077 0.721428 0.233975
C11   C     C_R   0.515481 0.369029 0.328856 -0.203724
C12   C     C_R   0.484529 0.630972 0.671144 -0.203731
C13   C     C_R   0.491303 0.614471 0.327139 -0.214650
C14   C     C_R   0.508704 0.385529 0.672860 -0.214649
C15   C     C_R   0.493557 0.609091 0.277064 -0.141883
C16   C     C_R   0.506457 0.390909 0.722936 -0.141885
C17   C     C_R   0.506836 0.484137 0.252832 0.316430
C18   C     C_R   0.493183 0.515864 0.747168 0.316429
C19   C     C_R   0.506214 0.478287 0.101593 -0.069298
C20   C     C_R   0.493813 0.521714 0.898407 -0.069298
C21   C     C_R   0.392350 0.468296 0.127807 -0.014777
C22   C     C_R   0.607676 0.531697 0.872192 -0.014777
C23   C     C_R   0.278050 0.458398 0.103533 -0.132524
C24   C     C_R   0.721977 0.541587 0.896465 -0.132523
C25   C     C_R   0.622382 0.480266 0.126504 -0.048652
C26   C     C_R   0.377643 0.519744 0.873496 -0.048652
C27   C     C_R   0.501978 0.494423 0.353307 -0.083335
C28   C     C_R   0.498027 0.505577 0.646693 -0.083332
H1    H     H_    0.480689 0.712169 0.345288 0.166644
H2    H     H_    0.519314 0.287831 0.654711 0.166643
H3    H     H_    0.484689 0.701930 0.256917 0.147411
H4    H     H_    0.515325 0.298071 0.743082 0.147412
H5    H     H_    0.190014 0.445768 0.122958 0.197367
H6    H     H_    0.810013 0.554209 0.877040 0.197363
C29   C     C_R   0.382391 0.501388 0.975572 0.050224
C30   C     C_R   0.617638 0.498617 0.024428 0.050224
C31   C     C_R   0.614480 0.514553 0.973680 0.060519
C32   C     C_R   0.385549 0.485445 0.026320 0.060520
C33   C     C_R   0.496800 0.512711 0.949408 0.068739
C34   C     C_R   0.503228 0.487291 0.050591 0.068738
C35   C     C_R   0.267785 0.512648 0.950316 -0.287513
C36   C     C_R   0.732244 0.487368 0.049686 -0.287508
C37   C     C_R   0.263917 0.524716 0.900359 0.001876
C38   C     C_R   0.736110 0.475303 0.099642 0.001876
O11   O     O_2   0.275063 0.485461 0.797341 -0.508743
O12   O     O_2   0.724957 0.514555 0.202660 -0.508742
C39   C     C_R   0.274571 0.465007 0.053786 -0.214439
C40   C     C_R   0.725458 0.534980 0.946213 -0.214434
H7    H     H_    0.475708 0.724141 0.651143 0.164143
H8    H     H_    0.524301 0.275859 0.348857 0.164144
H9    H     H_    0.178491 0.519798 0.968831 0.124399
H10   H     H_    0.821539 0.480228 0.031172 0.124396
H11   H     H_    0.182718 0.451928 0.038130 0.136952
H12   H     H_    0.817313 0.548050 0.961868 0.136948
C41   C     C_R   0.067372 0.480689 0.455849 0.128407
C42   C     C_R   0.932628 0.519289 0.544152 0.128406
C43   C     C_R   0.936098 0.480937 0.455288 0.137175
C44   C     C_R   0.063902 0.519065 0.544711 0.137178
C45   C     C_R   0.871953 0.500232 0.499534 -0.118425
C46   C     C_R   0.128046 0.499766 0.500466 -0.118430
C47   C     C_R   0.573621 0.073511 0.531495 -0.060720
C48   C     C_R   0.426378 0.926489 0.468504 -0.060718
C49   C     C_R   0.426397 0.070417 0.468498 -0.067630
C50   C     C_R   0.573603 0.929583 0.531501 -0.067629
H13   H     H_    0.632506 0.129312 0.556663 0.130307
H14   H     H_    0.367494 0.870687 0.443337 0.130309
H15   H     H_    0.367563 0.123765 0.443327 0.128395
H16   H     H_    0.632437 0.876235 0.556673 0.128399
N3    N     N_R   0.500000 0.857200 0.500000 -0.082200
N4    N     N_R   0.500000 0.142800 0.500000 -0.082200
C51   C     C_3   0.467237 0.771805 0.747385 -0.867750
H17   H     H_    0.459636 0.857031 0.721786 0.231169
H18   H     H_    0.380678 0.770806 0.770057 0.267466
H19   H     H_    0.550144 0.790995 0.770764 0.253624
C52   C     C_3   0.532786 0.228197 0.252615 -0.867752
H20   H     H_    0.540387 0.142971 0.278215 0.231170
H21   H     H_    0.449882 0.209005 0.229235 0.253627
H22   H     H_    0.619348 0.229198 0.229944 0.267463
C53   C     C_2   0.138599 0.552508 0.879248 0.519134
H23   H     H_    0.055719 0.501238 0.893185 0.016118
O13   O     O_2   0.125352 0.639949 0.848955 -0.512567
C54   C     C_2   0.861430 0.447523 0.120754 0.519125
H24   H     H_    0.944306 0.498801 0.106818 0.016126
O14   O     O_2   0.874683 0.360082 0.151047 -0.512564
C55   C     C_3   0.145434 0.461694 0.409855 -0.851808
H25   H     H_    0.205170 0.369621 0.412727 0.236950
H26   H     H_    0.089850 0.449163 0.376488 0.258683
H27   H     H_    0.207232 0.551602 0.404826 0.228363
C56   C     C_3   0.854564 0.538241 0.590148 -0.851813
H28   H     H_    0.794840 0.630326 0.587289 0.236952
H29   H     H_    0.792756 0.448335 0.595163 0.228359
H30   H     H_    0.910147 0.550714 0.623517 0.258685
C57   C     C_3   0.866048 0.461774 0.407922 -0.835492
H31   H     H_    0.762353 0.464311 0.411508 0.223316
H32   H     H_    0.891985 0.544334 0.382891 0.249502
H33   H     H_    0.890456 0.361549 0.391407 0.247955
C58   C     C_3   0.133951 0.538254 0.592077 -0.835479
H34   H     H_    0.237649 0.535795 0.588487 0.223330
H35   H     H_    0.109487 0.638458 0.608599 0.247959
H36   H     H_    0.108065 0.455663 0.617105 0.249485

loop_
_geom_bond_atom_site_label_1
_geom_bond_atom_site_label_2
_geom_bond_distance
_ccdc_geom_bond_type
C53   H23   1.085744 S    
C43   C57   1.521814 S    
C13   C15   1.388527 A    
C58   H34   1.104760 S    
Zn2   N4    2.007717 S    
O3    C2    1.275661 A    
N1    C17   1.424545 S    
C58   H35   1.110522 S    
C51   H17   1.110798 S    
C5    N1    1.360844 A    
C19   C25   1.416769 A    
O1    C1    1.275733 A    
N1    C7    1.363930 A    
C10   C12   1.394529 A    
C32   C39   1.414750 A    
C36   H10   1.076943 S    
C47   N4    1.366363 A    
C14   C28   1.401362 A    
C1    C46   1.406494 S    
C41   C43   1.393476 A    
C38   C54   1.483883 S    
O7    Zn1   2.017231 S    
C50   N3    1.366089 A    
C13   C27   1.401363 A    
C54   O14   1.221039 D    
C4    C28   1.460535 S    
C57   H31   1.104753 S    
C9    C52   1.505369 S    
C23   H5    1.083737 S    
C10   C51   1.505370 S    
C24   H6    1.083737 S    
O3    Zn1   1.981727 S    
C6    N2    1.360846 A    
C44   C58   1.521822 S    
C53   O13   1.221037 D    
C37   C53   1.483882 S    
C57   H32   1.110416 S    
O2    C2    1.275729 A    
C31   C40   1.414750 A    
C48   N3    1.366365 A    
C5    C21   1.394160 A    
C35   H9    1.076946 S    
C32   C34   1.422214 A    
C51   H18   1.110203 S    
C48   C49   1.415952 A    
C7    O12   1.348344 S    
C44   C46   1.409585 A    
O8    Zn2   2.017237 S    
C11   C27   1.404768 A    
C8    O11   1.348343 S    
C43   C45   1.409592 A    
C42   C56   1.525572 S    
C49   N4    1.366091 A    
C47   C50   1.415951 A    
C29   C35   1.412534 A    
C25   C38   1.415017 A    
C14   H2    1.083132 S    
C30   C36   1.412535 A    
C15   H3    1.082984 S    
C31   C33   1.422217 A    
C11   H8    1.083576 S    
C9    C17   1.405520 A    
C56   H30   1.105241 S    
O5    C3    1.294165 A    
C12   H7    1.083576 S    
C10   C18   1.405520 A    
C50   H16   1.081949 S    
C55   H25   1.110491 S    
C7    C25   1.410889 A    
C49   H15   1.081948 S    
O6    C4    1.294166 A    
C29   C32   1.418880 A    
C8    C26   1.410889 A    
C54   H24   1.085745 S    
C42   C45   1.407678 A    
C30   C31   1.418890 A    
C41   C46   1.407680 A    
C56   H29   1.110674 S    
C30   C34   1.415983 A    
C52   H22   1.110203 S    
C39   H11   1.076214 S    
C41   C55   1.525576 S    
C55   H26   1.105243 S    
N2    C8    1.363930 A    
C35   C37   1.392948 A    
C57   H33   1.110479 S    
C20   C26   1.416768 A    
O1    Zn1   1.980812 S    
C12   C28   1.404768 A    
C2    C45   1.406493 S    
N2    C18   1.424545 S    
C51   H19   1.110130 S    
C19   C34   1.418801 A    
C5    O9    1.350506 S    
O6    Zn2   2.004868 S    
C26   C37   1.415014 A    
C21   C23   1.393310 A    
C16   H4    1.082981 S    
C48   H14   1.081872 S    
O4    C1    1.275660 A    
C23   C39   1.382579 A    
Zn1   N3    2.007717 S    
C40   H12   1.076211 S    
C22   C24   1.393308 A    
C15   C17   1.397927 A    
C6    C22   1.394161 A    
C16   C18   1.397927 A    
C29   C33   1.415982 A    
C14   C16   1.388529 A    
C19   C21   1.410670 A    
C36   C38   1.392948 A    
C3    C27   1.460536 S    
C58   H36   1.110460 S    
C20   C22   1.410669 A    
C9    C11   1.394527 A    
O4    Zn2   1.981727 S    
O2    Zn2   1.980812 S    
O7    C4    1.290954 A    
O8    C3    1.290952 A    
C13   H1    1.083132 S    
O5    Zn1   2.004874 S    
C55   H27   1.110667 S    
C20   C33   1.418798 A    
C6    O10   1.350503 S    
C52   H21   1.110129 S    
C56   H28   1.110484 S    
C42   C44   1.393480 A    
C52   H20   1.110799 S    
C47   H13   1.081872 S    
C24   C40   1.382581 A    
