data_mof_unit_24218.cif
_audit_creation_date              2012-12-10T18:11:43-0500
_audit_creation_method            fapswitch 2.2
_symmetry_space_group_name_H-M    P1
_symmetry_Int_Tables_number       1
_space_group_crystal_system       triclinic
_cell_length_a                    10.518242
_cell_length_b                    12.609634
_cell_length_c                    13.124744
_cell_angle_alpha                 82.438689
_cell_angle_beta                  90.250334
_cell_angle_gamma                 101.794398
_cell_volume                      1688.7263499

loop_
_atom_site_label
_atom_site_type_symbol
_atom_type_description
_atom_site_fract_x
_atom_site_fract_y
_atom_site_fract_z
_atom_type_partial_charge
C1    C     C_R   0.489583 0.438928 0.691152 0.852062
C2    C     C_3   0.061419 0.594315 0.528134 0.068611
C3    C     C_3   0.958797 0.510322 0.595427 -0.209817
C4    C     C_3   0.876706 0.498660 0.499350 -0.064488
C5    C     C_R   0.694784 0.698649 0.066953 -0.192761
C6    C     C_R   0.544842 0.596592 0.200623 -0.056905
C7    C     C_R   0.395508 0.301949 0.836781 -0.187240
C8    C     C_R   0.366300 0.274454 0.941107 -0.140941
C9    C     C_R   0.416536 0.347357 0.009139 -0.188456
C10   C     C_R   0.502859 0.447439 0.973744 0.089302
C11   C     C_R   0.547507 0.466387 0.870723 0.097615
C12   C     C_R   0.741927 0.499956 0.499552 0.859125
C13   C     C_R   0.546549 0.529361 0.036992 0.085190
C14   C     C_R   0.648417 0.619575 0.002360 0.174108
C15   C     C_R   0.704158 0.628099 0.904812 -0.246430
C16   C     C_R   0.654484 0.552264 0.839689 -0.205757
C17   C     C_R   0.490270 0.524617 0.133559 -0.250787
C18   C     C_R   0.644682 0.686018 0.166960 -0.195040
C19   C     C_R   0.482519 0.399612 0.800819 -0.111621
C20   C     C_R   0.323042 0.091850 0.343259 -0.240316
C21   C     C_R   0.654256 0.799679 0.628922 0.038089
C22   C     C_R   0.684404 0.903709 0.657631 -0.227678
C23   C     C_R   0.516122 0.560924 0.308938 0.844411
C24   C     C_R   0.623950 0.984560 0.609499 -0.129829
C25   C     C_R   0.533084 0.961577 0.531309 0.014346
C26   C     C_R   0.506684 0.854477 0.504726 0.259192
C27   C     C_R   0.469085 0.040424 0.478088 -0.037420
C28   C     C_R   0.379138 0.010861 0.399483 0.154620
C29   C     C_R   0.351671 0.902324 0.376898 -0.068323
C30   C     C_R   0.418719 0.827679 0.427553 -0.302347
C31   C     C_R   0.492259 0.148929 0.499159 -0.024970
C32   C     C_R   0.350901 0.197248 0.367852 -0.002410
C33   C     C_R   0.258023 0.499927 0.500921 0.871353
C34   C     C_3   0.938340 0.405421 0.473298 0.073499
C35   C     C_3   0.022319 0.416183 0.569098 -0.137100
C36   C     C_3   0.123181 0.501178 0.501876 -0.026720
C37   C     C_3   0.040828 0.489442 0.405881 -0.281662
C38   C     C_3   0.977580 0.583653 0.432317 -0.265156
H1    H     H_    0.044429 0.348124 0.624366 0.161290
H2    H     H_    0.406877 0.462115 0.160850 0.138671
H3    H     H_    0.346649 0.248729 0.783946 0.162893
H4    H     H_    0.388790 0.322033 0.089045 0.128629
H5    H     H_    0.300019 0.198566 0.968873 0.149351
H6    H     H_    0.701543 0.560538 0.765113 0.147742
H7    H     H_    0.308031 0.260071 0.325239 0.132653
H8    H     H_    0.260729 0.076401 0.279023 0.195801
H9    H     H_    0.557094 0.178549 0.557459 0.135582
H10   H     H_    0.700965 0.736498 0.665719 0.128235
H11   H     H_    0.650946 0.063646 0.635058 0.155023
H12   H     H_    0.754238 0.921633 0.717043 0.153435
H13   H     H_    0.398011 0.747309 0.406519 0.204934
H14   H     H_    0.077912 0.480338 0.329093 0.144321
H15   H     H_    0.955848 0.651967 0.377155 0.174779
H16   H     H_    0.921613 0.519472 0.672176 0.144425
H17   H     H_    0.688427 0.742050 0.219225 0.167452
H18   H     H_    0.784837 0.694288 0.878215 0.147918
H19   H     H_    0.773328 0.767188 0.041700 0.146582
N1    N     N_R   0.432930 0.222190 0.444670 -0.106338
N2    N     N_R   0.566370 0.776980 0.554790 -0.119610
O1    O     O_R   0.467970 0.366730 0.627150 -0.618765
O2    O     O_R   0.510820 0.544830 0.662520 -0.597607
O3    O     O_R   0.664630 0.410960 0.482340 -0.632272
O4    O     O_R   0.707470 0.589060 0.517710 -0.624980
O5    O     O_R   0.489180 0.455170 0.337480 -0.616372
O6    O     O_R   0.532030 0.633270 0.372850 -0.642976
O7    O     O_R   0.292530 0.410940 0.482290 -0.613055
O8    O     O_R   0.335370 0.589040 0.517660 -0.609455
Zn1   Zn    Zn3+2 0.471390 0.381080 0.476380 0.943246
Zn2   Zn    Zn3+2 0.528610 0.618920 0.523620 0.955932
C39   C     C_2   0.252419 0.860356 0.302994 0.337712
H20   H     H_    0.267093 0.795290 0.260602 0.071144
O9    O     O_2   0.150006 0.891603 0.294006 -0.586458
C40   C     C_2   0.869008 0.299708 0.440491 0.415509
H21   H     H_    0.813719 0.300355 0.370543 0.068850
O10   O     O_2   0.874332 0.212860 0.491943 -0.581081
C41   C     C_2   0.127855 0.701118 0.560207 0.407248
H22   H     H_    0.122842 0.777050 0.512446 0.092132
O11   O     O_2   0.187345 0.703185 0.640176 -0.549865

loop_
_geom_bond_atom_site_label_1
_geom_bond_atom_site_label_2
_ccdc_geom_bond_type
O7    Zn1   S    
C30   H13   S    
C34   C37   S    
C40   H21   S    
C35   C36   S    
C8    H5    S    
C32   N1    A    
C7    C8    A    
C11   C19   A    
C9    H4    S    
C29   C30   A    
O5    Zn1   S    
C31   N1    A    
C28   C29   A    
C41   O11   D    
C21   N2    A    
C3    H16   S    
O2    Zn2   S    
C15   C16   A    
C33   C36   S    
C34   C35   S    
C32   H7    S    
O4    Zn2   S    
C8    C9    A    
C39   H20   S    
C4    C12   S    
C9    C10   A    
C16   H6    S    
C22   H12   S    
C21   H10   S    
C31   H9    S    
C21   C22   A    
C40   O10   D    
C33   O7    A    
C6    C18   A    
C4    C34   S    
C1    C19   S    
C27   C31   A    
C41   H22   S    
C1    O1    A    
C37   H14   S    
C5    C18   A    
C20   C28   A    
C25   C26   A    
O8    Zn2   S    
C17   H2    S    
C35   H1    S    
C37   C38   S    
C12   O3    A    
C11   C16   A    
C2    C38   S    
C3    C35   S    
C24   C25   A    
C5    C14   A    
C18   H17   S    
N2    Zn2   S    
N1    Zn1   S    
C23   O5    A    
C4    C38   S    
C26   C30   A    
C7    C19   A    
C22   C24   A    
C3    C4    S    
C2    C41   S    
C33   O8    A    
C29   C39   S    
C20   C32   A    
C2    C36   S    
C24   H11   S    
C12   O4    A    
C6    C17   A    
C36   C37   S    
C10   C13   A    
C1    O2    A    
C5    H19   S    
C25   C27   A    
C13   C17   A    
C15   H18   S    
C23   O6    A    
C2    C3    S    
C38   H15   S    
O6    Zn2   S    
C6    C23   S    
O3    Zn1   S    
C7    H3    S    
C10   C11   A    
C34   C40   S    
O1    Zn1   S    
C27   C28   A    
C14   C15   A    
C26   N2    A    
C39   O9    D    
C13   C14   A    
C20   H8    S    
