data_mof_unit_27176.cif
_audit_creation_date              2013-03-05T16:19:46-0500
_audit_creation_method            fapswitch 2.2
_symmetry_space_group_name_H-M    P1
_symmetry_Int_Tables_number       1
_space_group_crystal_system       triclinic
_cell_length_a                    10.740216
_cell_length_b                    9.893916
_cell_length_c                    26.991224
_cell_angle_alpha                 92.179779
_cell_angle_beta                  83.881406
_cell_angle_gamma                 89.973389
_cell_volume                      2849.73109946

loop_
_atom_site_label
_atom_site_type_symbol
_atom_site_description
_atom_site_fract_x
_atom_site_fract_y
_atom_site_fract_z
_atom_type_partial_charge
O1    O     O_R   0.314910 0.616040 0.499990 -0.618692
O2    O     O_R   0.314910 0.383960 0.499990 -0.604387
C1    C     C_R   0.257348 0.500222 0.501220 1.017662
O3    O     O_R   0.500140 0.616020 0.428740 -0.629188
O4    O     O_R   0.500140 0.383980 0.428740 -0.639827
C2    C     C_R   0.506094 0.497285 0.405469 0.823049
Zn1   Zn    Zn3+2 0.500150 0.654960 0.499980 1.043080
Zn2   Zn    Zn3+2 0.500150 0.345040 0.499980 1.041748
O5    O     O_R   0.685320 0.616040 0.499970 -0.586058
O6    O     O_R   0.685320 0.383960 0.499970 -0.545157
O7    O     O_R   0.500090 0.616050 0.571230 -0.524283
O8    O     O_R   0.500090 0.383950 0.571230 -0.571946
C3    C     C_R   0.742172 0.499878 0.498650 0.939544
C4    C     C_R   0.498955 0.501897 0.594784 1.061289
C5    C     C_R   0.617429 0.337297 0.173001 0.572951
O9    O     O_2   0.537376 0.253784 0.198585 -0.461454
N1    N     N_R   0.659802 0.449434 0.197005 -0.371190
C6    C     C_R   0.733762 0.543135 0.172309 0.616320
C7    C     C_R   0.657642 0.368283 0.281493 -0.073747
C8    C     C_R   0.614937 0.377289 0.331788 -0.203738
C9    C     C_R   0.511323 0.590104 0.320202 -0.210486
C10   C     C_R   0.551676 0.579020 0.269194 -0.052934
C11   C     C_R   0.624874 0.467612 0.249702 0.252773
C12   C     C_R   0.712537 0.418915 0.094646 -0.148868
C13   C     C_R   0.649540 0.314418 0.121622 -0.105942
C14   C     C_R   0.617708 0.194288 0.095394 0.441516
C15   C     C_R   0.765444 0.528722 0.120106 -0.193590
C16   C     C_R   0.541128 0.487790 0.351561 -0.032958
H1    H     H_    0.455909 0.676875 0.334982 0.158500
H2    H     H_    0.525027 0.655894 0.244791 0.181155
C17   C     C_R   0.535152 0.501815 0.645869 -0.291940
C18   C     C_R   0.627695 0.327192 0.968217 -0.134999
C19   C     C_R   0.788088 0.505367 0.960979 0.130963
C20   C     C_R   0.703597 0.417091 0.938769 0.052283
C21   C     C_R   0.527602 0.259271 0.947041 0.197168
C22   C     C_R   0.523541 0.258021 0.895430 0.628741
C23   C     C_R   0.604404 0.339925 0.865295 -0.243826
C24   C     C_R   0.693191 0.421079 0.887064 -0.129858
C25   C     C_R   0.770543 0.507844 0.857196 -0.009482
C26   C     C_R   0.750878 0.520183 0.807033 0.621134
N2    N     N_R   0.659640 0.445914 0.787331 -0.338149
C27   C     C_R   0.591692 0.351894 0.814407 0.633168
C28   C     C_R   0.503592 0.526790 0.736064 -0.230268
C29   C     C_R   0.455752 0.535409 0.690133 0.391456
C30   C     C_R   0.656395 0.453223 0.649916 -0.226312
C31   C     C_R   0.700716 0.439679 0.696000 0.806101
C32   C     C_R   0.623738 0.475698 0.739312 0.025745
O10   O     O_2   0.509715 0.273117 0.792112 -0.423804
C33   C     C_R   0.652886 0.312737 0.017979 0.088622
C34   C     C_R   0.718423 0.414894 0.042046 0.019514
C35   C     C_R   0.783952 0.515072 0.013956 -0.128301
C36   C     C_R   0.620580 0.195621 0.043751 -0.152007
H3    H     H_    0.444294 0.551557 0.770249 0.220641
H4    H     H_    0.596003 0.105183 0.023454 0.201963
O11   O     O_2   0.770337 0.652365 0.198198 -0.452149
C37   C     C_R   0.841299 0.622443 0.091918 0.333738
H5    H     H_    0.642116 0.298739 0.355439 0.159480
H6    H     H_    0.714677 0.282504 0.266900 0.172252
C38   C     C_R   0.873374 0.579623 0.929202 -0.100173
C39   C     C_R   0.863353 0.582480 0.878317 -0.121828
O12   O     O_2   0.819339 0.608443 0.778666 -0.476408
C40   C     C_R   0.841388 0.620860 0.039918 0.511056
H7    H     H_    0.951212 0.633542 0.942448 0.223649
H8    H     H_    0.715367 0.420259 0.616953 0.281087
H9    H     H_    0.928157 0.644519 0.855643 0.209225
C41   C     C_3   0.058551 0.617116 0.536280 0.568764
C42   C     C_3   0.062712 0.364341 0.520040 0.527737
H10   H     H_    0.093356 0.716642 0.522817 0.045145
H11   H     H_    0.110948 0.275977 0.499619 0.034225
C43   C     C_3   0.915766 0.612721 0.536422 0.450977
C44   C     C_3   0.924710 0.358474 0.512499 0.526546
H12   H     H_    0.884219 0.713374 0.525402 0.128250
H13   H     H_    0.912457 0.284238 0.481334 0.096667
H14   H     H_    0.130785 0.616860 0.433052 0.240183
H15   H     H_    0.125050 0.436837 0.422454 0.228690
H16   H     H_    0.917115 0.633979 0.436116 0.258917
H17   H     H_    0.913635 0.457726 0.418106 0.226710
C45   C     C_3   0.087039 0.522295 0.447602 -0.668818
C46   C     C_3   0.119769 0.500653 0.501533 -0.306309
C47   C     C_3   0.878302 0.500204 0.499011 -0.263632
C48   C     C_3   0.943582 0.531078 0.446776 -0.623733
C49   C     C_3   0.377928 0.083194 0.524483 0.099940
C50   C     C_3   0.383384 0.921410 0.528787 0.082044
H18   H     H_    0.304434 0.102351 0.499346 0.101313
H19   H     H_    0.301699 0.883204 0.510341 0.116848
H20   H     H_    0.439842 0.116695 0.425889 0.179311
H21   H     H_    0.414665 0.883291 0.431246 0.160283
C51   C     C_3   0.512562 0.075184 0.447574 -0.386720
C52   C     C_3   0.501178 0.914920 0.447777 -0.356536
C53   C     C_3   0.603313 0.081420 0.524613 0.536525
C54   C     C_3   0.611285 0.921833 0.519491 0.491022
N3    N     N_3   0.499750 0.138610 0.498940 -0.176042
N4    N     N_3   0.499750 0.861390 0.498940 -0.175043
H22   H     H_    0.590303 0.112971 0.564778 0.118884
H23   H     H_    0.623683 0.880400 0.555905 0.148543
H24   H     H_    0.604055 0.103462 0.427416 0.236310
H25   H     H_    0.579931 0.868829 0.422681 0.249599
S1    S     S_3+6 0.947049 0.735727 0.118587 0.176784
O13   O     O_2   0.876876 0.859020 0.140483 -0.116902
O14   O     O_2   0.007917 0.668392 0.158901 -0.252075
O15   O     O_3   0.060509 0.785175 0.075272 -0.416820
H26   H     H_    0.109542 0.702073 0.064978 0.359662
F1    F     F_    0.815939 0.385687 0.698506 -0.540343
F2    F     F_    0.887100 0.731380 0.016026 -0.608552
F3    F     F_    0.087412 0.606458 0.584643 -0.459265
F4    F     F_    0.071831 0.353579 0.570426 -0.445358
F5    F     F_    0.858564 0.592229 0.583955 -0.564454
F6    F     F_    0.856878 0.311501 0.554952 -0.534022
S2    S     S_3+6 0.307967 0.168238 0.582652 0.130010
O16   O     O_2   0.290767 0.316719 0.583710 -0.181321
O17   O     O_2   0.176091 0.116889 0.591599 -0.156325
O18   O     O_3   0.391115 0.135927 0.630359 -0.550020
H27   H     H_    0.341571 0.176106 0.660393 0.418050
S3    S     S_3+6 0.349976 0.852256 0.592124 0.134195
O19   O     O_2   0.250115 0.920123 0.627326 -0.131763
O20   O     O_2   0.297159 0.714781 0.586009 -0.174551
O21   O     O_3   0.478588 0.844045 0.622660 -0.566831
H28   H     H_    0.457788 0.892932 0.655177 0.414698
F7    F     F_    0.716791 0.133120 0.505220 -0.585426
F8    F     F_    0.719145 0.883545 0.489188 -0.627686
S4    S     S_3+6 0.578730 0.038831 0.123930 0.132573
O22   O     O_2   0.654237 0.020095 0.166974 -0.186284
O23   O     O_2   0.441816 0.039413 0.142767 -0.206896
O24   O     O_3   0.608731 0.907944 0.082640 -0.513093
H29   H     H_    0.530106 0.893284 0.067077 0.380344
S5    S     S_3+6 0.293980 0.570887 0.693152 0.146338
O25   O     O_2   0.273799 0.721027 0.698855 -0.198754
O26   O     O_2   0.239040 0.516468 0.647878 -0.119558
O27   O     O_3   0.220241 0.498657 0.743521 -0.514597
H30   H     H_    0.131386 0.526334 0.744217 0.422671
F9    F     F_    0.433872 0.183363 0.875341 -0.534689
S6    S     S_3+6 0.388772 0.204945 0.983154 0.108621
O28   O     O_2   0.394594 0.054706 0.989004 -0.215505
O29   O     O_2   0.372093 0.275398 0.033785 -0.283018
O30   O     O_3   0.262598 0.239123 0.953727 -0.411804
H31   H     H_    0.261090 0.338960 0.952039 0.351740

loop_
_geom_bond_atom_site_label_1
_geom_bond_atom_site_label_2
_geom_bond_distance
_ccdc_geom_bond_type
C41   H10   1.113562 S    
C51   H24   1.112552 S    
O15   H26   0.990752 S    
N2    C27   1.367702 A    
C21   C22   1.397959 A    
C12   C15   1.415084 A    
C37   S1    1.782828 S    
C4    C17   1.471970 S    
C1    C46   1.476755 S    
S3    O19   1.495845 D    
O30   H31   0.990761 S    
C30   C31   1.389455 A    
Zn1   O7    1.975520 S    
C41   C46   1.557322 S    
C29   S5    1.765140 S    
N1    C11   1.436268 S    
C22   C23   1.404530 A    
C43   F5    1.384346 S    
S2    O17   1.503205 D    
O4    C2    1.303995 A    
O7    C4    1.316398 A    
H20   C51   1.112071 S    
C5    C13   1.402642 A    
C5    O9    1.347695 S    
C50   N4    1.520509 S    
C49   N3    1.524789 S    
N1    C6    1.367337 A    
C23   C27   1.404146 A    
O5    C3    1.298682 A    
O18   H27   0.990783 S    
S4    O24   1.684073 S    
C28   H3    1.083698 S    
C2    C16   1.463019 S    
C51   N3    1.492653 S    
S6    O28   1.502749 D    
Zn2   N3    2.041540 S    
C14   S4    1.776547 S    
C49   H18   1.114963 S    
C3    C47   1.463137 S    
C38   C39   1.390386 A    
C19   C38   1.412624 A    
O1    Zn1   2.026589 S    
C9    C10   1.398794 A    
C50   S3    1.864883 S    
C35   C40   1.415627 A    
C54   F8    1.388705 S    
O3    Zn1   1.946662 S    
C44   C47   1.556969 S    
C36   H4    1.078973 S    
C53   H22   1.110917 S    
C40   F2    1.356192 S    
C7    H6    1.083203 S    
C12   C34   1.413453 A    
C24   C25   1.409825 A    
Zn1   N4    2.043671 S    
C17   C29   1.420348 A    
C43   C47   1.556390 S    
C18   C21   1.427023 A    
S6    O30   1.682572 S    
C42   C46   1.559063 S    
C12   C13   1.417655 A    
O3    C2    1.309160 A    
C22   F9    1.359640 S    
C25   C26   1.402207 A    
C44   H13   1.114015 S    
C15   C37   1.422905 A    
C8    C16   1.404679 A    
S5    O27   1.682590 S    
C13   C14   1.420802 A    
C9    H1    1.083165 S    
C49   C50   1.610772 S    
C26   O12   1.349396 S    
C52   H25   1.111859 S    
O1    C1    1.302135 A    
C18   C20   1.415556 A    
C7    C11   1.397905 A    
C28   C29   1.397145 A    
C49   S2    1.839852 S    
C23   C24   1.408385 A    
C14   C36   1.391537 A    
C54   N4    1.489092 S    
C53   N3    1.493688 S    
H17   C48   1.113353 S    
Zn2   O8    1.946803 S    
C33   C36   1.398994 A    
C34   C35   1.413008 A    
N2    C32   1.432088 S    
C27   O10   1.350073 S    
S4    O22   1.502980 D    
C6    O11   1.346096 S    
Zn2   O6    2.025852 S    
C26   N2    1.365653 A    
C50   H19   1.113363 S    
C9    C16   1.402228 A    
O8    C4    1.306917 A    
C39   H9    1.083484 S    
S1    O13   1.501568 D    
S1    O14   1.503853 D    
H21   C52   1.112834 S    
H14   C45   1.113279 S    
C37   C40   1.402934 A    
S2    O18   1.683452 S    
C41   F3    1.381253 S    
O27   H30   0.990764 S    
C5    N1    1.366192 A    
C31   C32   1.392548 A    
S5    O26   1.495106 D    
C10   H2    1.082746 S    
C20   C24   1.413891 A    
O2    Zn2   2.026234 S    
C6    C15   1.415600 A    
C47   C48   1.547550 S    
O6    C3    1.299455 A    
H16   C48   1.113348 S    
O4    Zn2   1.975399 S    
S3    O20   1.484134 D    
C42   F4    1.381983 S    
C19   C35   1.425446 A    
S1    O15   1.682703 S    
C31   F1    1.356964 S    
C30   H8    1.075522 S    
C38   H7    1.077467 S    
C53   F7    1.380579 S    
C7    C8    1.385375 A    
O2    C1    1.303274 A    
S2    O16   1.479357 D    
C45   C46   1.555999 S    
C45   C48   1.545748 S    
C53   C54   1.581207 S    
C41   C43   1.533783 S    
S5    O25   1.500827 D    
C25   C39   1.397751 A    
C19   C20   1.422161 A    
C42   C44   1.518265 S    
C52   N4    1.496288 S    
H15   C45   1.113220 S    
C18   C33   1.410555 A    
S4    O23   1.503753 D    
S3    O21   1.685719 S    
C54   H23   1.100122 S    
Zn1   O5    2.025496 S    
C51   C52   1.590572 S    
S6    O29   1.503590 D    
C33   C34   1.409688 A    
C17   C30   1.404450 A    
C10   C11   1.405967 A    
C43   H12   1.112971 S    
C42   H11   1.112930 S    
C8    H5    1.083497 S    
O21   H28   0.989942 S    
C28   C32   1.398293 A    
C21   S6    1.786909 S    
C44   F6    1.386595 S    
O24   H29   0.990796 S    
