data_mof_unit_45189.cif
_audit_creation_date              2012-12-11T14:21:02-0500
_audit_creation_method            fapswitch 2.2
_symmetry_space_group_name_H-M    P1
_symmetry_Int_Tables_number       1
_space_group_crystal_system       triclinic
_cell_length_a                    21.946284
_cell_length_b                    7.206946
_cell_length_c                    14.927058
_cell_angle_alpha                 89.706944
_cell_angle_beta                  107.004752
_cell_angle_gamma                 89.921548
_cell_volume                      2257.68919716

loop_
_atom_site_label
_atom_site_type_symbol
_atom_type_description
_atom_site_fract_x
_atom_site_fract_y
_atom_site_fract_z
_atom_type_partial_charge
O1    O     O_R   0.584770 0.505770 0.002090 -0.543715
O2    O     O_R   0.415230 0.005770 0.997910 -0.543416
O3    O     O_R   0.467060 0.173340 0.861950 -0.538664
O4    O     O_R   0.532940 0.673340 0.138050 -0.527778
C1    C     C_R   0.455433 0.344831 0.826017 0.678393
C2    C     C_R   0.544605 0.843721 0.174082 0.718520
O5    O     O_R   0.587510 0.175890 0.993210 -0.542078
O6    O     O_R   0.412490 0.675890 0.006790 -0.536751
O7    O     O_R   0.536540 0.008150 0.130100 -0.542711
O8    O     O_R   0.463460 0.508150 0.869900 -0.538216
C3    C     C_R   0.612933 0.344861 0.997292 0.725073
C4    C     C_R   0.387058 0.845016 0.002704 0.743181
O9    O     O_3   0.483140 0.340040 0.044760 -0.374953
O10   O     O_3   0.516860 0.840040 0.955240 -0.381875
V1    V     V_3+5 0.503130 0.064190 0.991700 1.416012
V2    V     V_3+5 0.496870 0.564190 0.008300 1.439368
C5    C     C_2   0.214214 0.727471 0.004182 -0.134687
C6    C     C_2   0.786049 0.227706 0.996447 -0.127554
C7    C     C_2   0.180328 0.886545 0.996259 -0.298318
C8    C     C_2   0.819673 0.386808 0.003818 -0.302056
H1    H     H_    0.191285 0.596683 0.010584 0.138708
H2    H     H_    0.809214 0.097006 0.990537 0.137264
H3    H     H_    0.201731 0.018742 0.988741 0.128716
H4    H     H_    0.798067 0.518919 0.010941 0.127330
C9    C     C_2   0.282108 0.714610 0.003924 -0.131632
C10   C     C_2   0.718167 0.214518 0.996714 -0.135969
C11   C     C_2   0.320003 0.861548 0.003899 -0.296793
C12   C     C_2   0.679967 0.361312 0.996028 -0.297744
H5    H     H_    0.301408 0.575640 0.004449 0.136488
H6    H     H_    0.699148 0.075505 0.996811 0.134890
H7    H     H_    0.302019 0.001368 0.004461 0.128108
H8    H     H_    0.697713 0.501140 0.994887 0.129631
C13   C     C_R   0.927319 0.890965 0.723602 -0.047761
C14   C     C_R   0.072864 0.382754 0.276012 -0.078873
C15   C     C_R   0.571720 0.848713 0.276045 -0.040468
C16   C     C_R   0.428205 0.354686 0.724238 -0.071265
C17   C     C_R   0.934775 0.943993 0.567214 -0.191060
C18   C     C_R   0.063674 0.343592 0.432291 -0.142023
C19   C     C_R   0.964391 0.931865 0.663802 0.197743
C20   C     C_R   0.034724 0.359386 0.336135 0.183320
C21   C     C_R   0.861649 0.862925 0.687179 -0.267577
C22   C     C_R   0.139225 0.389255 0.312317 -0.246559
C23   C     C_R   0.830447 0.879778 0.589958 0.100043
C24   C     C_R   0.169718 0.370290 0.409601 0.098458
C25   C     C_R   0.868693 0.919856 0.530396 0.104048
C26   C     C_R   0.130295 0.348691 0.469229 0.077288
C27   C     C_R   0.762783 0.861619 0.550177 0.032470
C28   C     C_R   0.237660 0.371534 0.449504 0.034670
C29   C     C_R   0.734970 0.881098 0.451240 0.064464
C30   C     C_R   0.264674 0.356245 0.548731 0.066535
C31   C     C_R   0.775590 0.920503 0.395414 -0.169358
C32   C     C_R   0.222958 0.335078 0.604636 -0.165112
C33   C     C_R   0.840826 0.938912 0.434333 -0.178612
C34   C     C_R   0.157410 0.331114 0.565497 -0.196418
C35   C     C_R   0.722144 0.826588 0.606251 -0.220075
C36   C     C_R   0.279283 0.384971 0.393273 -0.220572
C37   C     C_R   0.656202 0.810004 0.568060 0.196667
C38   C     C_R   0.345490 0.385755 0.431689 0.185600
C39   C     C_R   0.628526 0.826615 0.470741 0.085418
C40   C     C_R   0.372449 0.374694 0.529306 0.058833
C41   C     C_R   0.667513 0.861404 0.411323 0.039133
C42   C     C_R   0.332444 0.360647 0.588809 0.035718
C43   C     C_R   0.562028 0.807428 0.431863 -0.168041
C44   C     C_R   0.439277 0.377991 0.568445 -0.111882
C45   C     C_R   0.533450 0.817211 0.334961 0.181524
C46   C     C_R   0.467210 0.367184 0.664988 0.172740
C47   C     C_R   0.637399 0.872145 0.313589 -0.251426
C48   C     C_R   0.362024 0.352370 0.686713 -0.230102
H9    H     H_    0.869790 0.970232 0.388482 0.133958
H10   H     H_    0.127545 0.313744 0.611396 0.127420
H11   H     H_    0.663535 0.892625 0.263564 0.106246
H12   H     H_    0.335327 0.345436 0.736702 0.105592
H13   H     H_    0.963226 0.975487 0.520674 0.119444
H14   H     H_    0.033908 0.326001 0.478326 0.134393
H15   H     H_    0.836495 0.833589 0.737625 0.107885
H16   H     H_    0.165223 0.408953 0.262028 0.106944
H17   H     H_    0.758766 0.940634 0.320791 0.121953
H18   H     H_    0.239069 0.318583 0.679512 0.120275
H19   H     H_    0.740129 0.810694 0.680967 0.120629
H20   H     H_    0.261908 0.391774 0.318159 0.119501
H21   H     H_    0.531862 0.782688 0.476561 0.155890
H22   H     H_    0.470527 0.389224 0.524356 0.167504
O11   O     O_R   0.036450 0.233070 0.130130 -0.540065
O12   O     O_R   0.963550 0.733070 0.869870 -0.543845
O13   O     O_R   0.912470 0.560570 0.006790 -0.546570
O14   O     O_R   0.087530 0.060570 0.993210 -0.540778
C49   C     C_R   0.886992 0.391986 0.002624 0.725449
C50   C     C_R   0.113016 0.891832 0.997417 0.742530
O15   O     O_R   0.032920 0.562940 0.138050 -0.540030
O16   O     O_R   0.967080 0.062940 0.861950 -0.528097
O17   O     O_R   0.084790 0.730500 0.002090 -0.538898
O18   O     O_R   0.915210 0.230500 0.997910 -0.539484
C51   C     C_R   0.044734 0.393798 0.174424 0.686431
C52   C     C_R   0.955237 0.895090 0.825463 0.726807
O19   O     O_3   0.016820 0.396170 0.955260 -0.374852
O20   O     O_3   0.983180 0.896170 0.044740 -0.383494
V3    V     V_3+5 0.996880 0.672090 0.008300 1.409638
V4    V     V_3+5 0.003120 0.172090 0.991700 1.434497
N1    N     N_3   0.031693 0.963382 0.701819 -0.674639
H23   H     H_    0.052744 0.837512 0.729861 0.216166
H24   H     H_    0.051658 0.000152 0.648637 0.224841
N2    N     N_3   0.966645 0.351018 0.301059 -0.675288
H25   H     H_    0.954448 0.240071 0.254392 0.222858
H26   H     H_    0.950339 0.473479 0.263829 0.222623
N3    N     N_3   0.465856 0.792730 0.295761 -0.663411
H27   H     H_    0.446743 0.919415 0.265921 0.210122
H28   H     H_    0.444683 0.763114 0.348492 0.247646
N4    N     N_3   0.535297 0.369713 0.701364 -0.679113
H29   H     H_    0.548317 0.482453 0.746728 0.223868
H30   H     H_    0.549989 0.248085 0.740220 0.232723
N5    N     N_3   0.617010 0.773576 0.628476 -0.670283
H31   H     H_    0.603456 0.634250 0.619938 0.248137
H32   H     H_    0.642874 0.789821 0.698898 0.227914
N6    N     N_3   0.385773 0.397443 0.371091 -0.678606
H33   H     H_    0.405007 0.265403 0.368623 0.226661
H34   H     H_    0.359308 0.431526 0.302577 0.236651

loop_
_geom_bond_atom_site_label_1
_geom_bond_atom_site_label_2
_ccdc_geom_bond_type
C43   C45   A    
N5    H31   S    
C14   C22   A    
C14   C51   S    
O2    C4    A    
C13   C52   S    
C2    O7    A    
N6    H33   S    
O19   V4    S    
O18   V4    S    
C27   C29   A    
C2    C15   S    
O5    C3    A    
N3    H28   S    
C13   C19   A    
C43   H21   S    
C14   C20   A    
O12   V3    S    
C16   C46   A    
C37   C39   A    
C15   C45   A    
C38   C40   A    
O11   C51   A    
C1    C16   S    
N4    H29   S    
C40   C42   A    
C8    H4    S    
C32   C34   A    
C29   C31   A    
O11   V4    S    
C6    C10   S    
C30   C32   A    
C47   H11   S    
C48   H12   S    
O5    V1    S    
C33   H9    S    
O6    V2    S    
C49   O18   A    
C21   C23   A    
C22   C24   A    
C32   H18   S    
C45   N3    S    
C10   C12   D    
C24   C26   A    
O16   C52   A    
O13   C49   A    
C9    H5    S    
C39   C41   A    
C29   C41   A    
O14   C50   A    
C11   H7    S    
C12   H8    S    
O4    C2    A    
C7    C50   S    
C4    C11   S    
C20   N2    S    
C5    H1    S    
O15   V3    S    
C31   C33   A    
C44   C46   A    
O4    V2    S    
C7    H3    S    
C31   H17   S    
C21   H15   S    
C35   H19   S    
C41   C47   A    
C19   N1    S    
N1    H23   S    
C34   H10   S    
C50   O17   A    
C15   C47   A    
O6    C4    A    
O20   V3    S    
C26   C34   A    
N5    H32   S    
O1    V2    S    
O12   C52   A    
O17   V3    S    
N2    H26   S    
O2    V1    S    
C23   C25   A    
C44   H22   S    
N1    H24   S    
C10   H6    S    
C35   C37   A    
C30   C42   A    
C17   C25   A    
O3    V1    S    
C27   C35   A    
C18   H14   S    
C28   C36   A    
C17   H13   S    
C6    H2    S    
C39   C43   A    
C46   N4    S    
O3    C1    A    
N6    H34   S    
C16   C48   A    
C9    C11   D    
N3    H27   S    
C22   H16   S    
C36   H20   S    
C42   C48   A    
C40   C44   A    
C13   C21   A    
O7    V1    S    
C5    C9    S    
C1    O8    A    
C17   C19   A    
O8    V2    S    
C18   C20   A    
C8    C49   S    
C37   N5    S    
N4    H30   S    
C3    C12   S    
C28   C30   A    
C5    C7    D    
C36   C38   A    
C6    C8    D    
O15   C51   A    
N2    H25   S    
O14   V4    S    
C18   C26   A    
O13   V3    S    
C25   C33   A    
O9    V2    S    
C38   N6    S    
O10   V1    S    
O1    C3    A    
C23   C27   A    
O16   V4    S    
C24   C28   A    
