data_mof_unit_9336.cif
_audit_creation_date              2012-12-10T16:41:51-0500
_audit_creation_method            fapswitch 2.2
_symmetry_space_group_name_H-M    P1
_symmetry_Int_Tables_number       1
_space_group_crystal_system       triclinic
_cell_length_a                    10.996877
_cell_length_b                    8.751428
_cell_length_c                    7.647367
_cell_angle_alpha                 102.966679
_cell_angle_beta                  97.941813
_cell_angle_gamma                 98.356705
_cell_volume                      698.368428787

loop_
_atom_site_label
_atom_site_type_symbol
_atom_type_description
_atom_site_fract_x
_atom_site_fract_y
_atom_site_fract_z
_atom_type_partial_charge
C1    C     C_R   0.498544 0.200333 0.453044 0.840312
C2    C     C_2   0.513524 0.969803 0.572284 -0.339749
C3    C     C_R   0.265668 0.500277 0.495342 0.810934
C4    C     C_R   0.506590 0.800457 0.547147 0.871716
C5    C     C_R   0.734515 0.497507 0.504405 0.806560
C6    C     C_2   0.914024 0.445256 0.363517 -0.270744
C7    C     C_2   0.864273 0.473991 0.516475 -0.186806
C8    C     C_2   0.041270 0.413628 0.364717 0.052004
C9    C     C_2   0.135484 0.515454 0.484658 -0.309513
C10   C     C_2   0.497835 0.031970 0.427754 -0.350901
Cu1   Cu    Cu3+1 0.513740 0.517380 0.684380 0.982897
Cu2   Cu    Cu3+1 0.486260 0.482620 0.315620 0.950896
H1    H     H_    0.858552 0.437288 0.231607 0.213908
H2    H     H_    0.115804 0.620003 0.573738 0.123664
H3    H     H_    0.482128 0.958396 0.288938 0.183484
H4    H     H_    0.529703 0.043529 0.711061 0.194344
H5    H     H_    0.597344 0.635479 0.051839 0.223497
N1    N     N_2   0.465540 0.456420 0.038510 -0.149845
N2    N     N_2   0.534460 0.543580 0.961490 -0.201147
O1    O     O_R   0.508930 0.286130 0.619780 -0.596712
O2    O     O_R   0.485720 0.256780 0.308360 -0.609858
O3    O     O_R   0.333540 0.514670 0.655670 -0.595141
O4    O     O_R   0.310330 0.485320 0.344250 -0.617944
O5    O     O_R   0.514280 0.743220 0.691640 -0.577368
O6    O     O_R   0.491070 0.713870 0.380220 -0.584332
O7    O     O_R   0.689670 0.514680 0.655750 -0.545248
O8    O     O_R   0.666460 0.485330 0.344330 -0.583827
C11   C     C_2   0.931613 0.463525 0.696135 0.874187
O9    O     O_2   0.927924 0.562504 0.835532 -0.586913
O10   O     O_R   0.997584 0.339556 0.705495 -0.718191
H6    H     H_    0.041945 0.348215 0.833558 0.357271
C12   C     C_2   0.053329 0.255031 0.260066 0.870788
O11   O     O_2   0.998439 0.202803 0.102651 -0.591268
O12   O     O_R   0.115464 0.158295 0.348808 -0.801574
H7    H     H_    0.096658 0.042887 0.276783 0.321217
C13   C     C_R   0.367862 0.306152 0.944777 0.294409
C14   C     C_R   0.306053 0.213183 0.049854 -0.115479
C15   C     C_R   0.254222 0.050828 0.989114 -0.151422
C16   C     C_R   0.236046 0.976638 0.807851 -0.079589
C17   C     C_R   0.261404 0.068649 0.689526 -0.169072
C18   C     C_R   0.318682 0.229798 0.756039 -0.093917
H8    H     H_    0.296253 0.252671 0.184943 0.202599
H9    H     H_    0.225726 0.982984 0.083072 0.142998
H10   H     H_    0.194779 0.852302 0.759631 0.139073
H11   H     H_    0.237626 0.014205 0.544554 0.167231
H12   H     H_    0.316736 0.274649 0.642299 0.202576

loop_
_geom_bond_atom_site_label_1
_geom_bond_atom_site_label_2
_ccdc_geom_bond_type
C2    C4    S    
C9    H2    S    
C1    O2    A    
C14   C15   A    
C3    C9    S    
C2    H4    S    
Cu1   O3    S    
C3    O4    A    
Cu2   O6    S    
C18   H12   S    
C12   O11   D    
C11   O10   S    
C4    O6    A    
C15   H9    S    
C6    H1    S    
Cu2   O4    S    
Cu1   N2    S    
C13   C18   A    
C6    C7    D    
C6    C8    S    
C11   O9    D    
H5    N2    S    
N1    N2    D    
C10   H3    S    
O10   H6    S    
C4    O5    A    
Cu1   O1    S    
C1    C10   S    
C16   H10   S    
C5    O7    A    
C8    C12   S    
Cu1   O5    S    
C16   C17   A    
C15   C16   A    
C17   H11   S    
O12   H7    S    
Cu2   N1    S    
C14   H8    S    
C5    C7    S    
C13   C14   A    
C3    O3    A    
C17   C18   A    
Cu2   O8    S    
Cu1   O7    S    
C5    O8    A    
N1    C13   S    
Cu2   O2    S    
C7    C11   S    
Cu1   Cu2   S    
C12   O12   S    
C8    C9    D    
C1    O1    A    
C2    C10   D    
