data_mof_unit_41638.cif
_audit_creation_date              2012-10-26T19:52:45-0400
_audit_creation_method            fapswitch 2.2
_symmetry_space_group_name_H-M    P1
_symmetry_Int_Tables_number       1
_space_group_crystal_system       triclinic
_cell_length_a                    15.097741
_cell_length_b                    10.840268
_cell_length_c                    9.536258
_cell_angle_alpha                 90.551673
_cell_angle_beta                  90.189226
_cell_angle_gamma                 90.363438
_cell_volume                      1560.62534688

loop_
_atom_site_label
_atom_site_type_symbol
_atom_type_description
_atom_site_fract_x
_atom_site_fract_y
_atom_site_fract_z
_atom_type_partial_charge
C1    C     C_R   0.497817 0.262387 0.499314 0.549761
C2    C     C_R   0.186002 0.485797 0.626337 -0.132969
C3    C     C_R   0.231868 0.498112 0.499526 -0.010937
C4    C     C_R   0.328635 0.499575 0.499792 0.548360
C5    C     C_R   0.185079 0.508426 0.372809 -0.138417
C6    C     C_R   0.480275 0.065457 0.623115 0.019057
C7    C     C_R   0.488095 0.129506 0.497696 0.009338
C8    C     C_R   0.483369 0.063167 0.370527 -0.159080
C9    C     C_R   0.483998 0.934483 0.371397 -0.158817
C10   C     C_R   0.489447 0.871141 0.499418 0.010222
C11   C     C_R   0.480970 0.938437 0.624216 0.023828
C12   C     C_R   0.907062 0.505442 0.373382 -0.003064
C13   C     C_3   0.535090 0.936527 0.755559 -0.278232
C14   C     C_3   0.533758 0.076284 0.754394 -0.257006
C15   C     C_R   0.574754 0.531324 0.074559 0.170030
C16   C     C_R   0.498461 0.737875 0.500320 0.546099
C17   C     C_R   0.429378 0.456282 0.073529 -0.021569
C18   C     C_R   0.429344 0.456365 0.924735 -0.023622
C19   C     C_R   0.575011 0.530434 0.927081 0.216937
C20   C     C_3   0.623876 0.650035 0.922938 -0.270086
C21   C     C_3   0.623023 0.651484 0.081928 -0.283622
C22   C     C_R   0.671506 0.498170 0.500399 0.572496
C23   C     C_R   0.955635 0.469010 0.754448 -0.104610
C24   C     C_R   0.814820 0.505820 0.374801 -0.193636
C25   C     C_R   0.768606 0.494615 0.501530 -0.003204
C26   C     C_R   0.815571 0.479839 0.628197 0.345464
C27   C     C_R   0.908074 0.480664 0.628506 0.032302
C28   C     C_R   0.953926 0.493694 0.500685 0.007767
C29   C     C_R   0.047878 0.470869 0.753895 -0.154736
C30   C     C_R   0.093797 0.483771 0.627479 0.014302
C31   C     C_R   0.046838 0.494803 0.500126 0.065742
C32   C     C_R   0.092730 0.507092 0.372262 0.018388
C33   C     C_R   0.045540 0.517953 0.246187 -0.129407
C34   C     C_R   0.953183 0.517253 0.246760 -0.116706
Cu1   Cu    Cu3+1 0.500000 0.499980 0.640670 0.974654
Cu2   Cu    Cu3+1 0.500000 0.500020 0.359330 0.936369
F1    F     F_    0.771893 0.462951 0.751017 -0.663293
H1    H     H_    0.779130 0.515192 0.276834 0.136598
H2    H     H_    0.583330 0.723511 0.876618 0.129571
H3    H     H_    0.690117 0.642672 0.128573 0.128073
H4    H     H_    0.582218 0.726955 0.127083 0.143322
H5    H     H_    0.921770 0.459074 0.853727 0.168265
H6    H     H_    0.083296 0.462235 0.852332 0.101906
H7    H     H_    0.221922 0.477275 0.724378 0.117366
H8    H     H_    0.220367 0.518000 0.274619 0.118975
H9    H     H_    0.080030 0.527272 0.147319 0.099800
H10   H     H_    0.917832 0.526164 0.148301 0.114744
H11   H     H_    0.483972 0.109970 0.270693 0.136975
H12   H     H_    0.484731 0.885480 0.271917 0.131094
H13   H     H_    0.497444 0.897542 0.844951 0.133759
H14   H     H_    0.602399 0.898264 0.738339 0.136002
H15   H     H_    0.495230 0.117072 0.842312 0.141017
H16   H     H_    0.600100 0.118559 0.737057 0.160088
H17   H     H_    0.371706 0.422297 0.128163 0.115819
H18   H     H_    0.371654 0.422376 0.868851 0.114012
H19   H     H_    0.691363 0.640762 0.878320 0.191274
N1    N     N_R   0.500570 0.500930 0.147930 -0.236179
N2    N     N_R   0.500570 0.500890 0.852020 -0.237819
O1    O     O_R   0.500000 0.319640 0.618810 -0.498033
O2    O     O_R   0.500010 0.319680 0.381230 -0.506602
O3    O     O_R   0.370250 0.499950 0.618800 -0.517761
O4    O     O_R   0.370260 0.499990 0.381220 -0.515265
O5    O     O_R   0.499990 0.680320 0.618770 -0.504613
O6    O     O_R   0.500000 0.680360 0.381190 -0.510893
O7    O     O_R   0.629740 0.500010 0.618780 -0.430865
O8    O     O_R   0.629750 0.500050 0.381200 -0.518733

loop_
_geom_bond_atom_site_label_1
_geom_bond_atom_site_label_2
_ccdc_geom_bond_type
C24   H1    S    
C24   C25   A    
C8    H11   S    
C26   F1    S    
C29   C30   A    
C16   O5    A    
C23   C27   A    
C6    C14   S    
C11   C13   S    
C9    C10   A    
C12   C24   A    
Cu2   O6    S    
C31   C32   A    
C14   H15   S    
C2    C30   A    
C20   H19   S    
C5    C32   A    
C32   C33   A    
Cu1   O5    S    
C17   C18   A    
C7    C8    A    
C22   O7    A    
C13   H14   S    
C13   C14   S    
C29   H6    S    
C15   C19   A    
C33   H9    S    
C15   N1    A    
C6    C11   A    
C26   C27   A    
C6    C7    A    
C23   H5    S    
C18   H18   S    
C12   C28   A    
Cu1   N2    S    
Cu2   O4    S    
C23   C29   A    
Cu1   O1    S    
C33   C34   A    
C2    C3    A    
C1    O1    A    
C19   N2    A    
C30   C31   A    
Cu2   O8    S    
Cu1   Cu2   S    
C10   C11   A    
Cu1   O7    S    
C12   C34   A    
C13   H13   S    
C4    O4    A    
C15   C21   S    
C14   H16   S    
C9    H12   S    
C20   C21   S    
Cu1   O3    S    
Cu2   N1    S    
C21   H4    S    
C1    O2    A    
C2    H7    S    
C27   C28   A    
C20   H2    S    
C22   O8    A    
C10   C16   S    
C34   H10   S    
C16   O6    A    
C3    C5    A    
C25   C26   A    
C1    C7    S    
C5    H8    S    
C4    O3    A    
C18   N2    A    
C28   C31   A    
C17   H17   S    
C3    C4    S    
C19   C20   S    
C17   N1    A    
C8    C9    A    
Cu2   O2    S    
C22   C25   S    
C21   H3    S    
