data_mof_unit_21308.cif
_audit_creation_date              2013-03-05T16:31:22-0500
_audit_creation_method            fapswitch 2.2
_symmetry_space_group_name_H-M    P1
_symmetry_Int_Tables_number       1
_space_group_crystal_system       triclinic
_cell_length_a                    13.061932
_cell_length_b                    14.267173
_cell_length_c                    14.920626
_cell_angle_alpha                 91.328098
_cell_angle_beta                  92.213434
_cell_angle_gamma                 69.27682
_cell_volume                      2598.58617273

loop_
_atom_site_label
_atom_site_type_symbol
_atom_site_description
_atom_site_fract_x
_atom_site_fract_y
_atom_site_fract_z
_atom_type_partial_charge
O1    O     O_R   0.499990 0.420530 0.630930 -0.636333
O2    O     O_R   0.499990 0.579480 0.630940 -0.526837
C1    C     C_R   0.500045 0.500722 0.671984 0.972764
O3    O     O_R   0.653620 0.381060 0.499970 -0.638468
O4    O     O_R   0.653620 0.540010 0.499980 -0.592481
C2    C     C_R   0.704545 0.443986 0.494970 0.869193
Zn1   Zn    Zn3+2 0.500000 0.393860 0.499990 1.016014
Zn2   Zn    Zn3+2 0.500000 0.606140 0.500010 1.083030
O5    O     O_R   0.500010 0.420520 0.369060 -0.612322
O6    O     O_R   0.500010 0.579470 0.369070 -0.558877
O7    O     O_R   0.346380 0.459990 0.500020 -0.540174
O8    O     O_R   0.346380 0.618940 0.500030 -0.584902
C3    C     C_R   0.497423 0.499801 0.327958 0.953268
C4    C     C_R   0.295248 0.556215 0.503319 0.996646
C5    C     C_R   0.010831 0.694617 0.420254 -0.179538
H1    H     H_    0.151297 0.736294 0.439895 0.222008
H2    H     H_    0.820295 0.694955 0.350662 0.148594
H3    H     H_    0.965929 0.762154 0.383398 0.157415
C6    C     C_R   0.175925 0.592535 0.499154 -0.144115
C7    C     C_R   0.887819 0.310596 0.514265 -0.163076
C8    C     C_R   0.002598 0.281232 0.519386 0.200431
C9    C     C_R   0.049705 0.353701 0.505007 -0.138500
C10   C     C_R   0.984558 0.452937 0.482692 0.098066
C11   C     C_R   0.874374 0.473186 0.457479 0.092004
C12   C     C_R   0.026553 0.531516 0.479760 -0.008279
C13   C     C_R   0.967264 0.619039 0.429967 0.139199
C14   C     C_R   0.865209 0.630014 0.390778 -0.188618
C15   C     C_R   0.818355 0.558706 0.405474 -0.164345
C16   C     C_R   0.124091 0.527776 0.525847 0.351349
C17   C     C_R   0.116140 0.680286 0.452983 -0.166315
C18   C     C_R   0.823469 0.407216 0.485408 -0.156618
H4    H     H_    0.847822 0.259792 0.533383 0.170761
H5    H     H_    0.137757 0.331295 0.508562 0.197557
H6    H     H_    0.739039 0.570033 0.373859 0.155347
C19   C     C_R   0.580413 0.415232 0.905187 0.456746
C20   C     C_R   0.576295 0.417411 0.812348 -0.256446
H7    H     H_    0.629619 0.354704 0.774282 0.195752
C21   C     C_R   0.503511 0.500517 0.767813 -0.139920
C22   C     C_R   0.433245 0.582008 0.814360 -0.198104
H8    H     H_    0.374492 0.643787 0.777930 0.224706
C23   C     C_R   0.437424 0.583141 0.907215 0.412830
C24   C     C_R   0.510844 0.498802 0.952419 -0.201719
C25   C     C_R   0.585452 0.522372 0.100311 0.015441
H9    H     H_    0.647815 0.543361 0.069397 0.179506
C26   C     C_R   0.580258 0.522913 0.192427 -0.200671
H10   H     H_    0.640105 0.543099 0.232940 0.154782
C27   C     C_R   0.498233 0.497696 0.232062 -0.153517
C28   C     C_R   0.419682 0.472066 0.179380 0.337344
C29   C     C_R   0.427931 0.469222 0.086982 -0.114781
H11   H     H_    0.369468 0.449329 0.044404 0.200681
C30   C     C_R   0.509279 0.495486 0.048383 0.127114
C31   C     C_R   0.591226 0.867280 0.540632 -0.030073
C32   C     C_R   0.571319 0.776597 0.556738 0.423390
N1    N     N_R   0.500000 0.747530 0.500020 -0.201729
C33   C     C_R   0.433107 0.819569 0.441162 0.474670
C34   C     C_R   0.426933 0.920050 0.449160 -0.363978
H12   H     H_    0.362925 0.978101 0.413351 0.203294
C35   C     C_R   0.509235 0.945049 0.494057 0.018679
C36   C     C_R   0.506877 0.104419 0.412605 0.050459
C37   C     C_R   0.505595 0.204052 0.419490 0.007885
H13   H     H_    0.510102 0.243078 0.359587 0.177338
N2    N     N_R   0.499940 0.252470 0.500020 -0.101923
C38   C     C_R   0.498574 0.203672 0.577106 0.050683
H14   H     H_    0.495522 0.241547 0.641066 0.160163
C39   C     C_R   0.501625 0.104131 0.574840 -0.306239
H15   H     H_    0.499441 0.067924 0.637368 0.179837
C40   C     C_R   0.506303 0.052058 0.492830 0.153030
S1    S     S_3+6 0.349291 0.689779 0.964688 0.063954
O9    O     O_2   0.414178 0.723671 0.035326 -0.264577
O10   O     O_2   0.295523 0.774108 0.900551 -0.246092
O11   O     O_3   0.251896 0.659101 0.013815 -0.510676
H16   H     H_    0.222294 0.711524 0.060279 0.400916
S2    S     S_3+6 0.306832 0.449688 0.224341 0.045825
O12   O     O_2   0.265703 0.516194 0.304351 -0.302037
O13   O     O_2   0.215011 0.470370 0.155095 -0.243564
O14   O     O_3   0.345288 0.329513 0.255589 -0.550341
H17   H     H_    0.370297 0.290043 0.199951 0.352776
C41   C     C_3   0.698262 0.879294 0.573396 -0.275462
C42   C     C_3   0.760702 0.905604 0.499350 -0.912973
H18   H     H_    0.769397 0.853528 0.441493 0.253908
H19   H     H_    0.720094 0.984069 0.477583 0.274586
H20   H     H_    0.844120 0.898006 0.525248 0.266462
H21   H     H_    0.682753 0.936370 0.627929 0.235712
H22   H     H_    0.756233 0.807194 0.599611 0.263939
S3    S     S_3+6 0.608566 0.724978 0.666204 0.054982
O15   O     O_2   0.681033 0.616637 0.661864 -0.254214
O16   O     O_2   0.666538 0.780263 0.723226 -0.315547
O17   O     O_3   0.491888 0.738696 0.717638 -0.546411
H23   H     H_    0.509061 0.742788 0.782553 0.397384
S4    S     S_3+6 0.371973 0.792954 0.339645 0.049303
O18   O     O_2   0.291412 0.888382 0.301398 -0.301738
O19   O     O_2   0.461263 0.750167 0.273668 -0.277306
O20   O     O_3   0.305416 0.713229 0.350030 -0.545535
H24   H     H_    0.279119 0.704215 0.288396 0.393985
C43   C     C_3   0.507314 0.059570 0.319010 -0.378229
C44   C     C_3   0.612508 0.972110 0.300006 -0.782362
H25   H     H_    0.685076 0.993807 0.315036 0.251328
H26   H     H_    0.617917 0.905614 0.339431 0.265817
H27   H     H_    0.612577 0.950898 0.227927 0.278288
H28   H     H_    0.435811 0.036018 0.307188 0.242862
H29   H     H_    0.498320 0.117219 0.267464 0.216884
S5    S     S_3+6 0.164192 0.469722 0.632751 0.024180
O21   O     O_2   0.206887 0.535069 0.692321 -0.298786
O22   O     O_2   0.067767 0.457165 0.675909 -0.248922
O23   O     O_3   0.264094 0.357209 0.622268 -0.588532
H30   H     H_    0.281742 0.331605 0.684234 0.382963
C45   C     C_3   0.078435 0.176282 0.543718 -0.384606
C46   C     C_3   0.022756 0.099444 0.554691 -0.816901
H31   H     H_    0.967248 0.120347 0.612180 0.270096
H32   H     H_    0.976151 0.093524 0.492267 0.256445
H33   H     H_    0.086053 0.024792 0.568369 0.268024
H34   H     H_    0.139382 0.148145 0.490363 0.214062
H35   H     H_    0.124033 0.180277 0.607297 0.240171
S6    S     S_3+6 0.671473 0.307277 0.960234 0.039774
O24   O     O_2   0.608660 0.267983 0.022527 -0.308459
O25   O     O_2   0.727452 0.226812 0.893261 -0.263598
O26   O     O_3   0.766574 0.338603 0.019984 -0.542247
H36   H     H_    0.806263 0.279077 0.056886 0.395416

loop_
_geom_bond_atom_site_label_1
_geom_bond_atom_site_label_2
_geom_bond_distance
_ccdc_geom_bond_type
C5    H3    1.083758 S    
C33   C34   1.409571 A    
C38   C39   1.406226 A    
O20   H24   0.990759 S    
C23   C24   1.411908 A    
C43   C44   1.525022 S    
S6    O24   1.503305 D    
C22   C23   1.384368 A    
C26   H10   1.083597 S    
C34   H12   1.079992 S    
Zn1   O7    1.891230 S    
C13   C14   1.392743 A    
C19   S6    1.774323 S    
C20   H7    1.083572 S    
C33   S4    1.780637 S    
C21   C22   1.390353 A    
O7    C4    1.297583 A    
H1    C17   1.077685 S    
C44   H27   1.110418 S    
C46   H31   1.110654 S    
S5    O23   1.681000 S    
C37   N2    1.363321 A    
S2    O12   1.500127 D    
C19   C24   1.409887 A    
O5    C3    1.288473 A    
C45   H35   1.111658 S    
C36   C40   1.427262 A    
C41   H21   1.109716 S    
C19   C20   1.384821 A    
C1    C21   1.428833 S    
C46   H32   1.110930 S    
S1    O9    1.503464 D    
C29   C30   1.392907 A    
C44   H26   1.107383 S    
C45   C46   1.529481 S    
S4    O20   1.670929 S    
C24   C30   1.434882 S    
C26   C27   1.399526 A    
C2    C18   1.464747 S    
C15   H6    1.081316 S    
C36   C37   1.417030 A    
O1    Zn1   1.981737 S    
C8    C9    1.401547 A    
S2    O13   1.503651 D    
C36   C43   1.521922 S    
O3    Zn1   1.949461 S    
C31   C41   1.528391 S    
C4    C6    1.457405 S    
C23   S1    1.775270 S    
S3    O16   1.503741 D    
C12   C16   1.408831 A    
H2    C14   1.083869 S    
O14   H17   0.990985 S    
O3    C2    1.297535 A    
Zn2   N1    2.017232 S    
C22   H8    1.082862 S    
C42   H19   1.106052 S    
C43   H28   1.105878 S    
C5    C13   1.398363 A    
C39   C40   1.408700 A    
C12   C13   1.423082 A    
S3    O15   1.501355 D    
C38   H14   1.080789 S    
C37   H13   1.078277 S    
O1    C1    1.285411 A    
C25   H9    1.083527 S    
Zn1   N2    2.017523 S    
N2    C38   1.362129 A    
C42   H20   1.110912 S    
S4    O19   1.502979 D    
C27   C28   1.412164 A    
Zn2   O8    1.949462 S    
C44   H25   1.110225 S    
C45   H34   1.112028 S    
O17   H23   0.990821 S    
S5    O22   1.503585 D    
C25   C26   1.378424 A    
C8    C45   1.517499 S    
C31   C35   1.413603 A    
S1    O10   1.503334 D    
C28   C29   1.385537 A    
O8    C4    1.294955 A    
C39   H15   1.082996 S    
S2    O14   1.678942 S    
C6    C16   1.396867 A    
C31   C32   1.434076 A    
C5    C17   1.387837 A    
C3    C27   1.430819 S    
C7    H4    1.081093 S    
S3    O17   1.679946 S    
Zn1   O5    1.998892 S    
C9    H5    1.078738 S    
N1    C33   1.392140 A    
C41   C42   1.527155 S    
C28   S2    1.773164 S    
O2    Zn2   1.998889 S    
C11   C15   1.412237 A    
O6    C3    1.289442 A    
O4    Zn2   1.891227 S    
S6    O25   1.503444 D    
C32   N1    1.397204 A    
O23   H30   0.990462 S    
C46   H33   1.110605 S    
C20   C21   1.393263 A    
O2    C1    1.291875 A    
C11   C18   1.408576 A    
O11   H16   0.990726 S    
O26   H36   0.990557 S    
C25   C30   1.390750 A    
S4    O18   1.504104 D    
O4    C2    1.295803 A    
S1    O11   1.681731 S    
C34   C35   1.391513 A    
C16   S5    1.787273 S    
C10   C12   1.413868 A    
S5    O21   1.503821 D    
S6    O26   1.681223 S    
C10   C11   1.401888 A    
C42   H18   1.108268 S    
C41   H22   1.108619 S    
C35   C40   1.514110 S    
C7    C8    1.406135 A    
Zn2   O6    1.981738 S    
C29   H11   1.083894 S    
C14   C15   1.385291 A    
C9    C10   1.409551 A    
C32   S3    1.785369 S    
C6    C17   1.399405 A    
C43   H29   1.111636 S    
C7    C18   1.404175 A    
