data_mof_unit_23474.cif
_audit_creation_date              2012-10-26T18:51:46-0400
_audit_creation_method            fapswitch 2.2
_symmetry_space_group_name_H-M    P1
_symmetry_Int_Tables_number       1
_space_group_crystal_system       triclinic
_cell_length_a                    11.672933
_cell_length_b                    14.720617
_cell_length_c                    15.164515
_cell_angle_alpha                 64.613536
_cell_angle_beta                  105.475861
_cell_angle_gamma                 102.62736
_cell_volume                      2252.47567121

loop_
_atom_site_label
_atom_site_type_symbol
_atom_type_description
_atom_site_fract_x
_atom_site_fract_y
_atom_site_fract_z
_atom_type_partial_charge
C1    C     C_R   0.480279 0.119963 0.312806 0.513801
C2    C     C_R   0.603875 0.625525 0.098561 0.266268
C3    C     C_R   0.729139 0.303113 0.635685 0.252256
C4    C     C_R   0.263882 0.687798 0.382321 0.233624
C5    C     C_R   0.681189 0.209448 0.627190 0.377613
C6    C     C_R   0.309745 0.782788 0.387647 0.361146
C7    C     C_R   0.507553 0.284003 0.512751 0.353320
C8    C     C_R   0.500662 0.723760 0.470356 0.320333
C9    C     C_R   0.545280 0.370607 0.536765 -0.070497
C10   C     C_R   0.456802 0.627780 0.462774 -0.124125
C11   C     C_R   0.666717 0.387708 0.576574 -0.024418
C12   C     C_R   0.513359 0.880268 0.686830 0.501835
C13   C     C_R   0.331892 0.606409 0.436564 -0.035617
C14   C     C_R   0.472650 0.448203 0.508798 -0.048561
C15   C     C_R   0.528490 0.549878 0.486010 -0.073101
C16   C     C_R   0.284436 0.999190 0.501154 0.512967
C17   C     C_R   0.715676 0.000809 0.499173 0.539928
C18   C     C_R   0.652837 0.568199 0.484858 0.051379
C19   C     C_R   0.349990 0.425774 0.515607 -0.002670
C20   C     C_R   0.724415 0.488288 0.546890 0.293676
C21   C     C_R   0.276662 0.505313 0.466987 0.279826
C22   C     C_1   0.162853 0.999025 0.501821 -0.055077
C23   C     C_R   0.440457 0.331961 0.008334 0.033281
C24   C     C_1   0.837660 0.001413 0.499304 -0.013241
C25   C     C_1   0.060328 0.999785 0.501364 -0.049931
C26   C     C_1   0.940409 0.000946 0.500146 -0.037644
C27   C     C_R   0.467184 0.188961 0.206122 -0.042109
C28   C     C_R   0.520572 0.813392 0.794072 -0.056119
C29   C     C_R   0.388900 0.231266 0.030250 -0.075151
C30   C     C_R   0.564049 0.789118 0.967475 -0.097579
C31   C     C_R   0.399461 0.159498 0.127908 -0.017723
C32   C     C_R   0.530790 0.851825 0.867272 -0.016464
C33   C     C_R   0.520035 0.290080 0.183062 -0.148113
C34   C     C_R   0.575406 0.686621 0.997207 -0.005527
C35   C     C_R   0.520333 0.708714 0.824559 -0.115245
C36   C     C_R   0.498759 0.365562 0.085976 -0.036450
C37   C     C_R   0.547045 0.643539 0.926195 0.008853
C38   C     C_3   0.296361 0.404950 0.773982 -0.030684
C39   C     C_3   0.188290 0.324813 0.792911 -0.332961
C40   C     C_3   0.770713 0.703792 0.169519 0.021336
C41   C     C_3   0.797979 0.812031 0.164068 -0.362506
C42   C     C_2   0.700523 0.662065 0.407326 0.332628
C43   C     C_2   0.306676 0.324669 0.587745 0.200008
C44   C     C_2   0.495002 0.952250 0.842729 0.211603
C45   C     C_R   0.536447 0.472508 0.061294 -0.074894
C46   C     C_2   0.343762 0.054575 0.142467 0.255085
C47   C     C_2   0.589641 0.522031 0.815948 0.186029
C48   C     C_2   0.559375 0.466836 0.236090 0.253899
C49   C     C_3   0.902262 0.563590 0.610550 0.031709
C50   C     C_3   0.033474 0.594026 0.602336 -0.333704
C51   C     C_3   0.087002 0.449186 0.402311 0.025759
C52   C     C_3   0.955491 0.452935 0.395036 -0.286645
C53   C     C_3   0.651593 0.698060 0.608748 0.032059
C54   C     C_3   0.766897 0.753102 0.648060 -0.332120
C55   C     C_3   0.325601 0.271116 0.401351 0.020769
C56   C     C_R   0.535848 0.536157 0.958879 0.005646
C57   C     C_3   0.259019 0.355294 0.316202 -0.418078
C58   C     C_3   0.132379 0.853507 0.346390 0.029947
C59   C     C_3   0.079722 0.953683 0.289562 -0.359511
C60   C     C_3   0.777970 0.088823 0.769620 0.006034
C61   C     C_3   0.818951 0.985144 0.805951 -0.354321
C62   C     C_3   0.804983 0.315291 0.784528 -0.030148
C63   C     C_3   0.917255 0.315676 0.863301 -0.374977
C64   C     C_3   0.190335 0.700205 0.224002 -0.014123
C65   C     C_3   0.076667 0.701608 0.146161 -0.378682
C66   C     C_R   0.514230 0.490091 0.890462 0.030472
C67   C     C_R   0.572788 0.519907 0.131514 0.001346
C68   C     C_R   0.444770 0.396590 0.909488 0.232739
Cu1   Cu    Cu3+1 0.469550 0.918260 0.475690 1.008117
Cu2   Cu    Cu3+1 0.530450 0.081740 0.524310 1.022481
H1    H     H_    0.493612 0.678363 0.768048 0.120331
H2    H     H_    0.806134 0.701890 0.108800 0.099536
H3    H     H_    0.821125 0.653666 0.240968 0.207355
H4    H     H_    0.768314 0.866366 0.086968 0.135544
H5    H     H_    0.752315 0.821277 0.214624 0.190323
H6    H     H_    0.895757 0.830750 0.185844 0.104991
H7    H     H_    0.640439 0.716220 0.353288 0.133085
H8    H     H_    0.368838 0.269804 0.635150 0.104494
H9    H     H_    0.438603 0.991020 0.771898 0.142484
H10   H     H_    0.389367 0.989884 0.194911 0.171386
H11   H     H_    0.559615 0.501392 0.752079 0.112000
H12   H     H_    0.583597 0.306771 0.241686 0.158554
H13   H     H_    0.479088 0.416407 0.252365 0.148395
H14   H     H_    0.896921 0.520762 0.690052 0.124763
H15   H     H_    0.860636 0.634059 0.582986 0.147741
H16   H     H_    0.041057 0.639429 0.523342 0.195417
H17   H     H_    0.078119 0.640068 0.646703 0.068759
H18   H     H_    0.079510 0.525666 0.630582 0.176539
H19   H     H_    0.099622 0.369193 0.425137 0.166754
H20   H     H_    0.108929 0.493959 0.327242 0.128866
H21   H     H_    0.899437 0.427904 0.335885 0.097801
H22   H     H_    0.928382 0.402152 0.467103 0.223987
H23   H     H_    0.344056 0.206535 0.970508 0.195343
H24   H     H_    0.940437 0.531440 0.376798 0.216344
H25   H     H_    0.668105 0.619838 0.628743 0.105791
H26   H     H_    0.580448 0.694233 0.646322 0.156127
H27   H     H_    0.827633 0.784478 0.593938 0.151693
H28   H     H_    0.746224 0.815318 0.661937 0.143633
H29   H     H_    0.815428 0.700651 0.718946 0.149041
H30   H     H_    0.287562 0.243417 0.469065 0.138330
H31   H     H_    0.307860 0.209026 0.375013 0.174269
H32   H     H_    0.285774 0.427517 0.326676 0.152443
H33   H     H_    0.278922 0.366826 0.244268 0.132620
H34   H     H_    0.571372 0.818540 0.023300 0.196819
H35   H     H_    0.161090 0.333489 0.311314 0.090103
H36   H     H_    0.132046 0.826860 0.426957 0.135452
H37   H     H_    0.071143 0.799144 0.317993 0.189155
H38   H     H_    0.065087 0.974053 0.208226 0.178370
H39   H     H_    0.992489 0.946832 0.309616 0.105574
H40   H     H_    0.141494 0.015284 0.306995 0.165934
H41   H     H_    0.699050 0.080347 0.801502 0.148681
H42   H     H_    0.853752 0.135229 0.798323 0.175773
H43   H     H_    0.903967 0.993321 0.781998 0.159744
H44   H     H_    0.833951 0.948784 0.888508 0.102908
H45   H     H_    0.303477 0.432745 0.695028 0.183912
H46   H     H_    0.750905 0.935549 0.775034 0.169272
H47   H     H_    0.741558 0.248178 0.819141 0.120721
H48   H     H_    0.762721 0.384621 0.762867 0.137291
H49   H     H_    0.981812 0.383028 0.832867 0.144122
H50   H     H_    0.893404 0.318304 0.928257 0.123844
H51   H     H_    0.959738 0.245871 0.888641 0.148706
H52   H     H_    0.242581 0.641841 0.230720 0.120783
H53   H     H_    0.243585 0.776205 0.197033 0.170378
H54   H     H_    0.027966 0.764675 0.132382 0.153691
H55   H     H_    0.099774 0.713263 0.075317 0.115811
H56   H     H_    0.280766 0.471941 0.784018 0.093174
H57   H     H_    0.017972 0.628819 0.171834 0.139170
H58   H     H_    0.172102 0.305139 0.868190 0.119850
H59   H     H_    0.107668 0.353698 0.736614 0.177522
H60   H     H_    0.204473 0.255354 0.788689 0.213199
N1    N     N_R   0.576230 0.204580 0.560790 -0.244000
N2    N     N_R   0.423770 0.795420 0.439210 -0.235699
O1    O     O_R   0.459870 0.022090 0.338120 -0.493630
O2    O     O_3   0.646653 0.670433 0.166790 -0.545581
O3    O     O_2   0.805297 0.678615 0.399814 -0.532790
O4    O     O_2   0.202703 0.301631 0.597969 -0.504528
O5    O     O_2   0.524677 0.991643 0.903101 -0.542483
O6    O     O_2   0.246888 0.039447 0.091792 -0.529900
O7    O     O_2   0.690173 0.565675 0.829566 -0.562500
O8    O     O_2   0.636660 0.479127 0.303691 -0.466350
O9    O     O_3   0.847856 0.503393 0.555242 -0.491163
O10   O     O_3   0.156753 0.487660 0.473263 -0.504866
O11   O     O_3   0.620521 0.748599 0.504536 -0.550203
O12   O     O_R   0.540130 0.977910 0.661880 -0.502354
O13   O     O_3   0.449829 0.303197 0.414756 -0.530648
O14   O     O_3   0.249948 0.867691 0.329388 -0.526951
O15   O     O_3   0.751793 0.131366 0.664551 -0.499408
O16   O     O_3   0.834802 0.311555 0.701401 -0.535819
O17   O     O_3   0.159868 0.676988 0.316199 -0.570483
O18   O     O_R   0.511290 0.160150 0.379180 -0.467011
O19   O     O_R   0.488710 0.839850 0.620820 -0.519703
O20   O     O_R   0.311490 0.930960 0.479480 -0.475465
O21   O     O_R   0.688510 0.069040 0.520520 -0.437323
O22   O     O_R   0.362910 0.069020 0.520540 -0.526668
O23   O     O_R   0.637090 0.930980 0.479460 -0.443746
O24   O     O_3   0.401732 0.361107 0.834326 -0.594486

loop_
_geom_bond_atom_site_label_1
_geom_bond_atom_site_label_2
_ccdc_geom_bond_type
C15   C18   A    
C57   H35   S    
C44   O5    D    
C63   H50   S    
C53   H25   S    
C34   C37   A    
C66   C68   A    
Cu2   O18   S    
C38   O24   S    
C17   O21   A    
C59   H40   S    
C60   C61   S    
C53   C54   S    
C27   C33   A    
C43   H8    S    
C4    O17   S    
C2    O2    S    
C12   C28   S    
C36   C45   A    
C23   C29   A    
C49   H14   S    
C35   C37   A    
C24   C26   T    
C21   O10   S    
C10   C15   A    
C18   C42   S    
C51   H20   S    
C38   C39   S    
C6    O14   S    
C56   C66   A    
C55   O13   S    
Cu2   O21   S    
C33   C36   A    
C40   H3    S    
C58   H37   S    
C65   H54   S    
C4    C13   A    
C62   H47   S    
C63   H51   S    
C41   H4    S    
C37   C56   A    
C28   C35   A    
C31   C46   S    
C49   O9    S    
C55   H30   S    
C45   C67   A    
Cu1   O1    S    
C54   H27   S    
C52   H24   S    
C60   O15   S    
C33   H12   S    
C47   C66   S    
C7    N1    A    
C50   H18   S    
C46   O6    D    
C2    C34   A    
C35   H1    S    
C3    O16   S    
C62   O16   S    
C53   H26   S    
C12   O19   A    
Cu1   Cu2   S    
C1    O1    A    
C14   C19   A    
C38   H56   S    
C19   C43   S    
C57   H33   S    
C11   C20   A    
C17   C24   S    
C30   C34   A    
C29   H23   S    
C27   C31   A    
C51   C52   S    
Cu1   O19   S    
C49   H15   S    
C28   C32   A    
C45   C56   A    
C4    C6    A    
C2    C67   A    
C48   O8    D    
C39   H59   S    
C68   O24   S    
C25   C26   S    
C16   O22   A    
C40   O2    S    
C22   C25   T    
C12   O12   A    
C42   O3    D    
C53   O11   S    
C65   H55   S    
C23   C68   A    
C9    C14   A    
C8    N2    A    
C62   C63   S    
C60   H42   S    
C41   H5    S    
C63   H49   S    
C61   H46   S    
C32   C44   S    
C13   C21   A    
C1    O18   A    
C16   O20   A    
Cu1   O23   S    
C9    C11   A    
C57   H32   S    
C50   H17   S    
C6    N2    A    
C40   C41   S    
C49   C50   S    
C55   C57   S    
C61   H43   S    
C54   H29   S    
C52   H22   S    
C47   O7    D    
C17   O23   A    
C65   H57   S    
C51   O10   S    
C7    C9    A    
C16   C22   S    
C39   H58   S    
C40   H2    S    
C19   C21   A    
Cu2   O22   S    
Cu1   O20   S    
C20   O9    S    
C44   H9    S    
C3    C5    A    
C10   C13   A    
C58   O14   S    
C39   H60   S    
C64   H53   S    
C55   H31   S    
Cu2   O12   S    
C59   H38   S    
C48   H13   S    
C64   O17   S    
C64   C65   S    
C58   C59   S    
C29   C31   A    
C60   H41   S    
C51   H19   S    
C41   H6    S    
C30   C32   A    
C38   H45   S    
C5    O15   S    
Cu1   N2    S    
C64   H52   S    
Cu2   N1    S    
C59   H39   S    
C8    O11   S    
C18   C20   A    
C47   H11   S    
C48   C67   S    
C43   O4    D    
C62   H48   S    
C3    C11   A    
C50   H16   S    
C5    N1    A    
C42   H7    S    
C8    C10   A    
C23   C36   A    
C30   H34   S    
C61   H44   S    
C1    C27   S    
C14   C15   A    
C54   H28   S    
C52   H21   S    
C46   H10   S    
C58   H36   S    
C7    O13   S    
