data_mof_unit_9687.cif
_audit_creation_date              2012-12-11T15:07:07-0500
_audit_creation_method            fapswitch 2.2
_symmetry_space_group_name_H-M    P1
_symmetry_Int_Tables_number       1
_space_group_crystal_system       triclinic
_cell_length_a                    19.681414
_cell_length_b                    11.334514
_cell_length_c                    18.64251
_cell_angle_alpha                 90.000037
_cell_angle_beta                  90.851054
_cell_angle_gamma                 90.0
_cell_volume                      4158.29861283

loop_
_atom_site_label
_atom_site_type_symbol
_atom_type_description
_atom_site_fract_x
_atom_site_fract_y
_atom_site_fract_z
_atom_type_partial_charge
C1    C     C_R   0.761030 0.523922 0.639450 0.529394
C2    C     C_R   0.238967 0.523909 0.360560 0.533978
C3    C     C_R   0.261033 0.023909 0.639440 0.533980
C4    C     C_R   0.738970 0.023922 0.360550 0.529394
C5    C     C_3   0.810823 0.131017 0.449706 -0.264329
C6    C     C_3   0.189182 0.130960 0.550246 -0.263672
C7    C     C_3   0.310818 0.630960 0.449754 -0.263672
C8    C     C_3   0.689177 0.631017 0.550294 -0.264329
C9    C     C_3   0.747332 0.056865 0.436540 0.069735
C10   C     C_3   0.252678 0.056820 0.563431 0.068901
C11   C     C_3   0.247322 0.556820 0.436569 0.068901
C12   C     C_3   0.752668 0.556865 0.563460 0.069735
C13   C     C_3   0.759683 0.090554 0.574312 0.066326
C14   C     C_3   0.240331 0.090500 0.425654 0.067223
C15   C     C_3   0.259669 0.590500 0.574346 0.067223
C16   C     C_3   0.740317 0.590554 0.425688 0.066325
C17   C     C_3   0.753236 0.958186 0.561926 -0.264208
C18   C     C_3   0.246777 0.958134 0.438028 -0.265363
C19   C     C_3   0.253223 0.458134 0.561972 -0.265363
C20   C     C_3   0.746764 0.458186 0.438074 -0.264208
C21   C     C_3   0.822709 0.133850 0.531079 -0.213484
C22   C     C_3   0.177300 0.133789 0.468877 -0.213148
C23   C     C_3   0.322700 0.633789 0.531123 -0.213148
C24   C     C_3   0.677291 0.633850 0.468921 -0.213484
C25   C     C_3   0.004007 0.205209 0.458928 -0.232167
C26   C     C_3   0.995977 0.205216 0.541040 -0.232109
C27   C     C_3   0.504023 0.705216 0.458960 -0.232109
C28   C     C_3   0.495993 0.705209 0.541072 -0.232167
C29   C     C_3   0.064658 0.405940 0.475509 -0.212269
C30   C     C_3   0.935307 0.405939 0.524449 -0.212545
C31   C     C_3   0.564693 0.905939 0.475551 -0.212545
C32   C     C_3   0.435342 0.905940 0.524490 -0.212269
C33   C     C_3   0.941841 0.390411 0.443214 -0.262736
C34   C     C_3   0.058122 0.390439 0.556741 -0.262479
C35   C     C_3   0.441878 0.890439 0.443259 -0.262479
C36   C     C_3   0.558159 0.890411 0.556786 -0.262736
C37   C     C_3   0.010747 0.333294 0.430878 0.066442
C38   C     C_3   0.989220 0.333303 0.569087 0.065489
C39   C     C_3   0.510780 0.833303 0.430913 0.065489
C40   C     C_3   0.489253 0.833294 0.569122 0.066442
C41   C     C_3   0.821339 0.034085 0.050395 -0.227808
C42   C     C_3   0.179022 0.041442 0.948845 -0.236088
C43   C     C_3   0.320979 0.541442 0.051155 -0.236087
C44   C     C_3   0.678661 0.534085 0.949605 -0.227808
C45   C     C_R   0.773762 0.120668 0.649751 0.542117
C46   C     C_R   0.226253 0.120625 0.350223 0.538619
C47   C     C_R   0.273746 0.620625 0.649777 0.538621
C48   C     C_R   0.726238 0.620668 0.350249 0.542117
C49   C     C_3   0.822185 0.042119 0.970079 -0.238950
C50   C     C_3   0.176230 0.050611 0.028775 -0.243289
C51   C     C_3   0.323771 0.550611 0.971225 -0.243289
C52   C     C_3   0.677815 0.542119 0.029921 -0.238951
C53   C     C_3   0.694287 0.058997 0.031095 -0.258707
C54   C     C_3   0.307971 0.046759 0.973320 -0.262248
C55   C     C_3   0.192029 0.546758 0.026680 -0.262247
C56   C     C_3   0.805713 0.558997 0.968904 -0.258707
C57   C     C_3   0.758695 0.226515 0.075212 -0.088004
C58   C     C_3   0.253405 0.219028 0.924380 -0.098699
C59   C     C_3   0.246594 0.719028 0.075619 -0.098698
C60   C     C_3   0.741305 0.726515 0.924788 -0.088005
C61   C     C_3   0.754649 0.090733 0.080928 0.086270
C62   C     C_3   0.250163 0.084859 0.921192 0.079121
C63   C     C_3   0.249837 0.584859 0.078808 0.079122
C64   C     C_3   0.745351 0.590733 0.919071 0.086270
C65   C     C_3   0.774497 0.143401 0.943894 0.043848
C66   C     C_3   0.228439 0.143328 0.056276 0.044146
C67   C     C_3   0.271561 0.643327 0.943724 0.044146
C68   C     C_3   0.725503 0.643401 0.056106 0.043848
C69   C     C_3   0.701689 0.100821 0.953344 -0.240323
C70   C     C_3   0.299766 0.092934 0.050013 -0.234374
C71   C     C_3   0.200235 0.592930 0.949986 -0.234375
C72   C     C_3   0.798310 0.600821 0.046656 -0.240323
C73   C     C_3   0.780096 0.253362 0.995409 -0.239326
C74   C     C_3   0.231103 0.251177 0.002761 -0.254215
C75   C     C_3   0.268896 0.751176 0.997238 -0.254214
C76   C     C_3   0.719903 0.753362 0.004592 -0.239326
C77   C     C_3   0.970398 0.460067 0.049101 -0.241276
C78   C     C_3   0.955583 0.452648 0.969228 -0.229592
C79   C     C_3   0.544416 0.952648 0.030772 -0.229592
C80   C     C_3   0.529602 0.960067 0.950899 -0.241276
C81   C     C_3   0.072551 0.337220 0.032025 -0.215830
C82   C     C_3   0.963293 0.230499 0.967063 -0.231183
C83   C     C_3   0.536706 0.730499 0.032937 -0.231184
C84   C     C_3   0.427448 0.837220 0.967975 -0.215829
C85   C     C_3   0.965565 0.237108 0.050077 -0.264688
C86   C     C_3   0.064098 0.354681 0.949693 -0.263961
C87   C     C_3   0.435902 0.854682 0.050307 -0.263961
C88   C     C_3   0.534434 0.737108 0.949923 -0.264689
C89   C     C_R   0.968792 0.342207 0.645004 0.536250
C90   C     C_R   0.031180 0.342202 0.354972 0.533299
C91   C     C_R   0.468820 0.842202 0.645028 0.533299
C92   C     C_R   0.531208 0.842207 0.354995 0.536251
C93   C     C_3   0.006599 0.346692 0.072738 0.067985
C94   C     C_3   0.989301 0.347293 0.932320 0.054421
C95   C     C_3   0.510698 0.847294 0.067680 0.054421
C96   C     C_3   0.493400 0.846692 0.927262 0.067986
C97   C     C_R   0.759607 0.537131 0.847227 0.532589
C98   C     C_R   0.238661 0.532699 0.151021 0.538261
C99   C     C_R   0.261339 0.032698 0.848979 0.538261
C100  C     C_R   0.740393 0.037130 0.152773 0.532590
C101  C     C_R   0.788353 0.168967 0.865353 0.536980
C102  C     C_R   0.212107 0.169328 0.134457 0.539182
C103  C     C_R   0.287893 0.669327 0.865543 0.539182
C104  C     C_R   0.711647 0.668967 0.134647 0.536980
C105  C     C_R   0.969790 0.352331 0.853923 0.526617
C106  C     C_R   0.027179 0.351780 0.149251 0.526255
C107  C     C_R   0.472820 0.851780 0.850749 0.526256
C108  C     C_R   0.530210 0.852331 0.146077 0.526617
C109  C     C_3   0.687340 0.132036 0.464186 -0.233451
C110  C     C_3   0.312665 0.132000 0.535793 -0.234078
C111  C     C_3   0.187335 0.632000 0.464207 -0.234078
C112  C     C_3   0.812660 0.632036 0.535814 -0.233450
C113  C     C_3   0.692308 0.145188 0.545631 -0.233375
C114  C     C_3   0.307702 0.145145 0.454346 -0.232744
C115  C     C_3   0.192298 0.645145 0.545654 -0.232743
C116  C     C_3   0.807692 0.645188 0.454369 -0.233375
C117  C     C_3   0.756762 0.939374 0.480477 -0.215375
C118  C     C_3   0.243260 0.939322 0.519486 -0.214986
C119  C     C_3   0.256740 0.439322 0.480514 -0.214985
C120  C     C_3   0.743238 0.439374 0.519523 -0.215375
Cr1   Cr    Cr6+3 0.885690 0.492860 0.745310 0.986843
Cr2   Cr    Cr6+3 0.114310 0.492860 0.254690 0.978028
Cr3   Cr    Cr6+3 0.385690 0.992860 0.745310 0.978027
Cr4   Cr    Cr6+3 0.614310 0.992860 0.254690 0.986843
Cr5   Cr    Cr6+3 0.729880 0.332270 0.748190 0.983750
Cr6   Cr    Cr6+3 0.270120 0.332270 0.251810 0.987939
Cr7   Cr    Cr6+3 0.229880 0.832270 0.748190 0.987939
Cr8   Cr    Cr6+3 0.770120 0.832270 0.251810 0.983750
Cr9   Cr    Cr6+3 0.888120 0.178590 0.753010 0.985934
Cr10  Cr    Cr6+3 0.111880 0.178590 0.246990 0.976144
Cr11  Cr    Cr6+3 0.388120 0.678590 0.753010 0.976144
Cr12  Cr    Cr6+3 0.611880 0.678590 0.246990 0.985934
H1    H     H_    0.638438 0.095168 0.448449 0.134046
H2    H     H_    0.361567 0.095137 0.551535 0.134083
H3    H     H_    0.138433 0.595137 0.448465 0.134083
H4    H     H_    0.861562 0.595168 0.551551 0.134046
H5    H     H_    0.863217 0.068274 0.542189 0.127859
H6    H     H_    0.136788 0.068219 0.457762 0.127921
H7    H     H_    0.363212 0.568219 0.542238 0.127921
H8    H     H_    0.636783 0.568274 0.457811 0.127859
H9    H     H_    0.809272 0.909288 0.470483 0.124936
H10   H     H_    0.190755 0.909218 0.529479 0.124724
H11   H     H_    0.309245 0.409218 0.470521 0.124724
H12   H     H_    0.690728 0.409288 0.529516 0.124936
H13   H     H_    0.795212 0.910200 0.589754 0.120109
H14   H     H_    0.204807 0.910146 0.410185 0.118108
H15   H     H_    0.295193 0.410146 0.589815 0.118108
H16   H     H_    0.704788 0.410200 0.410246 0.120109
H17   H     H_    0.046594 0.151088 0.443096 0.129871
H18   H     H_    0.953409 0.151068 0.556887 0.129670
H19   H     H_    0.546591 0.651068 0.443113 0.129670
H20   H     H_    0.453406 0.651088 0.556904 0.129871
H21   H     H_    0.959660 0.161516 0.433242 0.106206
H22   H     H_    0.040337 0.161550 0.566720 0.106940
H23   H     H_    0.459663 0.661550 0.433280 0.106940
H24   H     H_    0.540340 0.661516 0.566758 0.106206
H25   H     H_    0.616611 0.890549 0.458176 0.111643
H26   H     H_    0.383422 0.890514 0.541859 0.112073
H27   H     H_    0.116578 0.390514 0.458141 0.112072
H28   H     H_    0.883389 0.390549 0.541824 0.111643
H29   H     H_    0.599782 0.835003 0.578944 0.101597
H30   H     H_    0.400244 0.835052 0.421106 0.102787
H31   H     H_    0.099756 0.335052 0.578894 0.102787
H32   H     H_    0.900218 0.335004 0.421056 0.101597
H33   H     H_    0.938618 0.477469 0.416042 0.121857
H34   H     H_    0.061335 0.477508 0.583901 0.122062
H35   H     H_    0.438665 0.977508 0.416099 0.122062
H36   H     H_    0.561382 0.977469 0.583958 0.121857
H37   H     H_    0.947213 0.499875 0.534969 0.129251
H38   H     H_    0.052757 0.499875 0.464977 0.129372
H39   H     H_    0.447243 0.999875 0.535023 0.129372
H40   H     H_    0.552787 0.999875 0.465031 0.129251
H41   H     H_    0.829188 0.939758 0.063319 0.132338
H42   H     H_    0.165740 0.949006 0.935470 0.135721
H43   H     H_    0.334260 0.449007 0.064530 0.135722
H44   H     H_    0.670812 0.439758 0.936681 0.132338
H45   H     H_    0.687647 0.220325 0.438776 0.106107
H46   H     H_    0.312353 0.220289 0.561207 0.104952
H47   H     H_    0.187647 0.720289 0.438793 0.104952
H48   H     H_    0.812353 0.720325 0.561224 0.106107
H49   H     H_    0.866484 0.076852 0.073845 0.121597
H50   H     H_    0.137329 0.094666 0.924612 0.116115
H51   H     H_    0.362671 0.594666 0.075388 0.116114
H52   H     H_    0.633516 0.576852 0.926154 0.121597
H53   H     H_    0.875472 0.045907 0.952779 0.126112
H54   H     H_    0.123025 0.069484 0.043640 0.122163
H55   H     H_    0.376975 0.569485 0.956360 0.122163
H56   H     H_    0.624528 0.545907 0.047221 0.126112
H57   H     H_    0.803630 0.957871 0.946782 0.124285
H58   H     H_    0.188400 0.963415 0.053114 0.134632
H59   H     H_    0.311602 0.463415 0.946887 0.134629
H60   H     H_    0.696369 0.457871 0.053218 0.124285
H61   H     H_    0.693876 0.964947 0.030200 0.105451
H62   H     H_    0.303269 0.954718 0.976884 0.107751
H63   H     H_    0.196731 0.454717 0.023118 0.107750
H64   H     H_    0.806123 0.464947 0.969799 0.105451
H65   H     H_    0.690080 0.029539 0.915094 0.115868
H66   H     H_    0.308401 0.025020 0.090574 0.121798
H67   H     H_    0.191601 0.525014 0.909427 0.121799
H68   H     H_    0.809919 0.529539 0.084906 0.115868
H69   H     H_    0.705608 0.259651 0.080281 0.118133
H70   H     H_    0.307195 0.248632 0.919336 0.138210
H71   H     H_    0.192804 0.748631 0.080662 0.138208
H72   H     H_    0.794392 0.759651 0.919719 0.118133
H73   H     H_    0.830890 0.290070 0.995443 0.096358
H74   H     H_    0.182028 0.285315 0.995571 0.114872
H75   H     H_    0.317972 0.785315 0.004428 0.114871
H76   H     H_    0.669110 0.790069 0.004557 0.096358
H77   H     H_    0.744514 0.318593 0.973653 0.099554
H78   H     H_    0.266584 0.316482 0.025242 0.104186
H79   H     H_    0.233416 0.816481 0.974757 0.104186
H80   H     H_    0.755486 0.818593 0.026347 0.099554
H81   H     H_    0.646803 0.096797 0.052844 0.122668
H82   H     H_    0.358508 0.074463 0.953212 0.121807
H83   H     H_    0.141492 0.574463 0.046788 0.121806
H84   H     H_    0.853197 0.596797 0.947156 0.122668
H85   H     H_    0.687153 0.237352 0.561049 0.138021
H86   H     H_    0.312854 0.237313 0.438932 0.138046
H87   H     H_    0.187146 0.737313 0.561068 0.138046
H88   H     H_    0.812847 0.737352 0.438951 0.138021
H89   H     H_    0.664551 0.172794 0.941819 0.127333
H90   H     H_    0.338964 0.161728 0.061264 0.127170
H91   H     H_    0.161035 0.661722 0.938734 0.127171
H92   H     H_    0.835449 0.672794 0.058181 0.127333
H93   H     H_    0.003264 0.538613 0.058901 0.142498
H94   H     H_    0.903419 0.431141 0.961546 0.117131
H95   H     H_    0.596581 0.931141 0.038454 0.117131
H96   H     H_    0.496736 0.038613 0.941099 0.142498
H97   H     H_    0.923244 0.473475 0.079569 0.102519
H98   H     H_    0.968202 0.538963 0.944187 0.137312
H99   H     H_    0.531798 0.038963 0.055813 0.137312
H100  H     H_    0.576755 0.973476 0.920431 0.102519
H101  H     H_    0.587995 0.715171 0.052714 0.132890
H102  H     H_    0.392739 0.898380 0.943293 0.116082
H103  H     H_    0.107260 0.398381 0.056706 0.116083
H104  H     H_    0.912004 0.215171 0.947286 0.132889
H105  H     H_    0.585097 0.744014 0.928321 0.121011
H106  H     H_    0.415149 0.941058 0.067352 0.118771
H107  H     H_    0.084851 0.441056 0.932648 0.118771
H108  H     H_    0.914903 0.244014 0.071679 0.121011
H109  H     H_    0.988360 0.154464 0.071864 0.124145
H110  H     H_    0.089247 0.282233 0.920819 0.099861
H111  H     H_    0.410752 0.782235 0.079181 0.099860
H112  H     H_    0.511639 0.654465 0.928136 0.124145
H113  H     H_    0.994325 0.154231 0.948916 0.119048
H114  H     H_    0.092192 0.248160 0.043020 0.123121
H115  H     H_    0.407808 0.748160 0.956980 0.123121
H116  H     H_    0.505674 0.654231 0.051084 0.119048
H117  H     H_    0.722572 0.869199 0.462651 0.110259
H118  H     H_    0.277460 0.869164 0.537310 0.110159
H119  H     H_    0.222540 0.369164 0.462690 0.110159
H120  H     H_    0.777428 0.369199 0.537349 0.110260
H121  H     H_    0.704882 0.924208 0.583470 0.102978
H122  H     H_    0.295128 0.924166 0.416469 0.101703
H123  H     H_    0.204872 0.424166 0.583531 0.101702
H124  H     H_    0.795118 0.424208 0.416530 0.102978
H125  H     H_    0.855172 0.090868 0.422869 0.121322
H126  H     H_    0.144829 0.090800 0.577069 0.122157
H127  H     H_    0.355171 0.590800 0.422931 0.122157
H128  H     H_    0.644828 0.590868 0.577131 0.121322
H129  H     H_    0.804216 0.221201 0.427897 0.102106
H130  H     H_    0.195779 0.221154 0.572046 0.102695
H131  H     H_    0.304221 0.721154 0.427954 0.102694
H132  H     H_    0.695784 0.721201 0.572103 0.102106
H133  H     H_    0.841383 0.219752 0.549329 0.113477
H134  H     H_    0.158625 0.219698 0.450630 0.113995
H135  H     H_    0.341375 0.719698 0.549370 0.113995
H136  H     H_    0.658617 0.719752 0.450671 0.113477
O1    O     O_R   0.957210 0.449410 0.665480 -0.532288
O2    O     O_R   0.042790 0.449410 0.334520 -0.533374
O3    O     O_R   0.457210 0.949410 0.665480 -0.533374
O4    O     O_R   0.542790 0.949410 0.334520 -0.532288
O5    O     O_R   0.736260 0.212010 0.826560 -0.506152
O6    O     O_R   0.263740 0.212010 0.173440 -0.506250
O7    O     O_R   0.236260 0.712010 0.826560 -0.506250
O8    O     O_R   0.763740 0.712010 0.173440 -0.506152
O9    O     O_R   0.832520 0.095300 0.836000 -0.533451
O10   O     O_R   0.167480 0.095300 0.164000 -0.539440
O11   O     O_R   0.332520 0.595300 0.836000 -0.539444
O12   O     O_R   0.667480 0.595300 0.164000 -0.533451
O13   O     O_R   0.946380 0.253940 0.826940 -0.522684
O14   O     O_R   0.053620 0.253940 0.173060 -0.524397
O15   O     O_R   0.446380 0.753940 0.826940 -0.524397
O16   O     O_R   0.553620 0.753940 0.173060 -0.522684
O17   O     O_3   0.834560 0.334570 0.748840 -0.281556
O18   O     O_3   0.165440 0.334570 0.251160 -0.280186
O19   O     O_3   0.334560 0.834570 0.748840 -0.280186
O20   O     O_3   0.665440 0.834570 0.251160 -0.281556
O21   O     O_R   0.820730 0.541240 0.668250 -0.516883
O22   O     O_R   0.179270 0.541240 0.331750 -0.520401
O23   O     O_R   0.320730 0.041240 0.668250 -0.520400
O24   O     O_R   0.679270 0.041240 0.331750 -0.516883
O25   O     O_R   0.714240 0.455060 0.663710 -0.535065
O26   O     O_R   0.285760 0.455060 0.336290 -0.531648
O27   O     O_R   0.214240 0.955060 0.663710 -0.531648
O28   O     O_R   0.785760 0.955060 0.336290 -0.535064
O29   O     O_R   0.736780 0.204870 0.675910 -0.511121
O30   O     O_R   0.263220 0.204870 0.324090 -0.510981
O31   O     O_R   0.236780 0.704870 0.675910 -0.510981
O32   O     O_R   0.763220 0.704870 0.324090 -0.511120
O33   O     O_R   0.833070 0.087590 0.673490 -0.528582
O34   O     O_R   0.166930 0.087590 0.326510 -0.531218
O35   O     O_R   0.333070 0.587590 0.673490 -0.531218
O36   O     O_R   0.666930 0.587590 0.326510 -0.528583
O37   O     O_R   0.946890 0.246800 0.676300 -0.512665
O38   O     O_R   0.053110 0.246800 0.323700 -0.513953
O39   O     O_R   0.446890 0.746800 0.676300 -0.513953
O40   O     O_R   0.553110 0.746800 0.323700 -0.512666
O41   O     O_R   0.956650 0.457120 0.827980 -0.525998
O42   O     O_R   0.043350 0.457120 0.172020 -0.529355
O43   O     O_R   0.456650 0.957120 0.827980 -0.529355
O44   O     O_R   0.543350 0.957120 0.172020 -0.525998
O45   O     O_R   0.820220 0.548390 0.818890 -0.512089
O46   O     O_R   0.179780 0.548390 0.181110 -0.517483
O47   O     O_R   0.320220 0.048390 0.818890 -0.517484
O48   O     O_R   0.679780 0.048390 0.181110 -0.512089
O49   O     O_R   0.713680 0.462770 0.826210 -0.544151
O50   O     O_R   0.286320 0.462770 0.173790 -0.539739
O51   O     O_R   0.213680 0.962770 0.826210 -0.539738
O52   O     O_R   0.786320 0.962770 0.173790 -0.544151
C121  C     C_3   0.797725 0.299866 0.134051 -0.303543
C122  C     C_3   0.828786 0.235927 0.198997 -0.412702
H137  H     H_    0.788477 0.203270 0.234912 0.166574
H138  H     H_    0.859991 0.299480 0.230692 0.129516
H139  H     H_    0.862734 0.163121 0.182858 0.159804
H140  H     H_    0.838077 0.352127 0.109786 0.128723
H141  H     H_    0.762463 0.367200 0.155937 0.155766
C123  C     C_3   0.212470 0.277716 0.861578 -0.305666
C124  C     C_3   0.257192 0.320664 0.800359 -0.428603
H142  H     H_    0.279339 0.245362 0.770953 0.175693
H143  H     H_    0.226007 0.372979 0.761714 0.143891
H144  H     H_    0.298818 0.377472 0.821200 0.178090
H145  H     H_    0.173499 0.217601 0.838243 0.153353
H146  H     H_    0.184761 0.353628 0.881023 0.135352
C125  C     C_3   0.287528 0.777719 0.138420 -0.305665
C126  C     C_3   0.242806 0.820664 0.199640 -0.428589
H147  H     H_    0.201170 0.877454 0.178799 0.178080
H148  H     H_    0.273988 0.872998 0.238279 0.143897
H149  H     H_    0.220671 0.745357 0.229054 0.175688
H150  H     H_    0.326501 0.717607 0.161754 0.153348
H151  H     H_    0.315234 0.853632 0.118974 0.135353
C127  C     C_3   0.702275 0.799866 0.865950 -0.303544
C128  C     C_3   0.671213 0.735927 0.801003 -0.412702
H152  H     H_    0.637265 0.663122 0.817142 0.159804
H153  H     H_    0.640009 0.799480 0.769308 0.129516
H154  H     H_    0.711523 0.703271 0.765089 0.166574
H155  H     H_    0.661922 0.852127 0.890215 0.128723
H156  H     H_    0.737536 0.867200 0.844063 0.155766
H157  H     H_    0.648355 0.101411 0.570777 0.106179
H158  H     H_    0.351658 0.101374 0.429203 0.106076
H159  H     H_    0.148342 0.601374 0.570797 0.106076
H160  H     H_    0.851645 0.601411 0.429223 0.106179

loop_
_geom_bond_atom_site_label_1
_geom_bond_atom_site_label_2
_ccdc_geom_bond_type
C78   H94   S    
C122  H138  S    
C82   C94   S    
C119  H11   S    
C10   C110  S    
C7    H127  S    
C120  H12   S    
C41   C61   S    
C53   C69   S    
C104  O12   A    
C43   C63   S    
Cr5   O5    S    
C44   C64   S    
Cr11  O39   S    
C84   H115  S    
C112  H4    S    
C63   C98   S    
C127  H155  S    
C122  H139  S    
C31   H40   S    
C28   C40   S    
C72   H92   S    
C36   H36   S    
C30   C38   S    
Cr8   O28   S    
C113  H85   S    
C75   H75   S    
C56   C72   S    
C116  H160  S    
C105  O13   A    
C21   H5    S    
C8    H132  S    
C18   C118  S    
C81   C86   S    
C108  O16   A    
C83   C88   S    
C87   H106  S    
C111  H47   S    
C90   O2    A    
C41   C49   S    
Cr8   O32   S    
Cr5   O17   S    
Cr2   O46   S    
C109  H1    S    
Cr7   O19   S    
Cr8   O20   S    
C118  H118  S    
C18   H14   S    
C127  C128  S    
C26   C38   S    
Cr10  O38   S    
C14   C114  S    
C60   C76   S    
C24   H8    S    
C111  H3    S    
C120  H120  S    
C30   H37   S    
C6    C10   S    
C123  H145  S    
C22   H134  S    
C54   C70   S    
C68   C72   S    
C75   H79   S    
C97   O49   A    
C13   C21   S    
C98   O46   A    
C102  O6    A    
C99   O51   A    
C79   H99   S    
C31   H25   S    
C19   H123  S    
C64   C97   S    
C36   H29   S    
C15   C115  S    
C20   C120  S    
C32   C40   S    
Cr7   O27   S    
C54   H82   S    
C77   H97   S    
C46   O30   A    
Cr7   O7    S    
C126  H147  S    
Cr4   O24   S    
C57   C61   S    
C82   C85   S    
C59   C63   S    
C60   C64   S    
Cr9   O17   S    
C13   C45   S    
C66   C70   S    
C78   C94   S    
C43   H51   S    
C69   H89   S    
C95   C108  S    
C114  H86   S    
C62   C99   S    
C5    C21   S    
C58   H70   S    
C121  C122  S    
C109  H45   S    
C110  H46   S    
C31   C36   S    
C106  O14   A    
C48   O32   A    
C55   C71   S    
C76   H76   S    
Cr6   O26   S    
C91   O39   A    
C54   H62   S    
Cr2   O22   S    
C65   C101  S    
Cr10  O18   S    
C43   C51   S    
Cr11  O15   S    
C67   C103  S    
C18   H122  S    
C37   C90   S    
C73   H77   S    
C55   H83   S    
C66   C74   S    
C25   H17   S    
C57   C73   S    
C105  O41   A    
C85   C93   S    
C60   H72   S    
C83   H101  S    
C107  O43   A    
C87   C95   S    
C123  H146  S    
C56   C64   S    
C7    H131  S    
C45   O33   A    
C116  H88   S    
C42   C62   S    
C112  H48   S    
C76   H80   S    
Cr6   O6    S    
C70   H66   S    
C124  H143  S    
C58   C123  S    
C1    C12   S    
Cr9   O37   S    
C80   H100  S    
C126  H149  S    
C2    C11   S    
C7    C11   S    
Cr12  O12   S    
C42   H42   S    
C15   C47   S    
C25   C26   S    
C125  C126  S    
C23   H135  S    
C8    H128  S    
C84   H102  S    
C5    C9    S    
C119  H119  S    
C93   C106  S    
C104  O8    A    
C8    C12   S    
C5    H125  S    
C6    H130  S    
C51   C67   S    
C42   C50   S    
Cr6   O18   S    
Cr3   O47   S    
C110  H2    S    
C61   C100  S    
C67   C75   S    
C50   H54   S    
Cr1   O1    S    
C12   C112  S    
C51   H59   S    
C58   C74   S    
Cr3   O3    S    
C41   H41   S    
Cr4   O4    S    
C53   H81   S    
C81   H114  S    
C33   H33   S    
C44   H44   S    
C123  C124  S    
C68   C76   S    
C13   C17   S    
C98   O50   A    
C85   H108  S    
C2    O22   A    
C99   O47   A    
C103  O7    A    
C127  H156  S    
C114  H158  S    
C7    C23   S    
C8    C24   S    
C40   C91   S    
C56   H84   S    
Cr7   O31   S    
C49   H53   S    
Cr1   O41   S    
C57   H69   S    
C60   C127  S    
Cr3   O43   S    
C52   H56   S    
C4    C9    S    
Cr10  O34   S    
C86   H110  S    
C58   C62   S    
C5    H129  S    
C88   C96   S    
C94   C105  S    
C77   H93   S    
C82   H104  S    
C53   H61   S    
C55   H63   S    
C125  H151  S    
C14   C46   S    
C77   C78   S    
C42   H50   S    
C15   C19   S    
Cr9   O33   S    
C101  O9    A    
C101  O5    A    
C125  H150  S    
C92   O4    A    
C112  C116  S    
C108  O44   A    
C121  H140  S    
C6    C22   S    
C66   C102  S    
Cr5   O49   S    
C21   H133  S    
C56   H64   S    
Cr7   O51   S    
Cr8   O52   S    
C103  O11   A    
Cr3   O23   S    
Cr11  O11   S    
C82   H113  S    
C17   C117  S    
C122  H137  S    
C19   C119  S    
C24   H136  S    
C9    C109  S    
C41   H49   S    
C81   H103  S    
C2    O26   A    
Cr12  O40   S    
C16   C116  S    
C100  O48   A    
C20   H124  S    
C27   H23   S    
C25   H21   S    
C26   H18   S    
C126  H148  S    
C117  H117  S    
C106  O42   A    
C54   C62   S    
C48   O36   A    
C11   C111  S    
C29   C34   S    
C33   C37   S    
C45   O29   A    
C117  H9    S    
C4    O24   A    
C79   C95   S    
C89   O37   A    
Cr5   O29   S    
C85   H109  S    
C86   H107  S    
Cr1   O17   S    
C80   H96   S    
Cr3   O19   S    
Cr4   O20   S    
Cr12  O16   S    
C32   H39   S    
C39   C92   S    
Cr11  O35   S    
C27   H19   S    
C107  O15   A    
C68   C104  S    
C17   H13   S    
C88   H112  S    
C71   H67   S    
C1    O25   A    
C78   H98   S    
C92   O40   A    
C22   H6    S    
C6    H126  S    
C121  H141  S    
C14   C22   S    
C128  H153  S    
C65   C69   S    
C77   C93   S    
C70   H90   S    
Cr4   O44   S    
C67   C71   S    
C50   H58   S    
C19   H15   S    
C51   H55   S    
Cr2   O2    S    
C3    O27   A    
C59   H71   S    
Cr12  O36   S    
C29   C37   S    
C34   H34   S    
C43   H43   S    
C128  H152  S    
C9    C117  S    
C124  H142  S    
C14   C18   S    
C35   C39   S    
C84   C87   S    
C3    O23   A    
C11   C119  S    
C16   C48   S    
C29   H27   S    
C30   H28   S    
C38   C89   S    
C17   H121  S    
C49   C65   S    
C74   H78   S    
C89   O1    A    
C23   H7    S    
C91   O3    A    
C52   H60   S    
C49   H57   S    
Cr1   O45   S    
Cr2   O42   S    
C65   C73   S    
C84   C96   S    
Cr4   O48   S    
Cr8   O8    S    
C86   C94   S    
C25   C37   S    
C12   C120  S    
C27   C39   S    
C83   H116  S    
C35   H35   S    
Cr9   O9    S    
C29   H38   S    
C80   C96   S    
C44   H52   S    
C52   C68   S    
C16   C20   S    
C15   C23   S    
C16   C24   S    
C69   H65   S    
C115  H87   S    
C53   C61   S    
C102  O10   A    
C79   H95   S    
C32   H26   S    
C35   H30   S    
C71   H91   S    
C1    O21   A    
C32   C35   S    
C36   C40   S    
C33   H32   S    
C34   H31   S    
C57   C121  S    
Cr6   O50   S    
C73   H73   S    
C55   C63   S    
Cr10  O10   S    
C46   O34   A    
C10   C118  S    
C72   H68   S    
C81   C93   S    
C87   H111  S    
C83   C95   S    
C20   H16   S    
Cr9   O13   S    
C50   C66   S    
C100  O52   A    
C28   H20   S    
C113  H157  S    
C124  H144  S    
C26   H22   S    
C59   C75   S    
C74   H74   S    
C110  C114  S    
C30   C33   S    
C34   C38   S    
C96   C107  S    
C47   O35   A    
C4    O28   A    
C118  H10   S    
Cr5   O25   S    
C90   O38   A    
Cr6   O30   S    
C109  C113  S    
Cr1   O21   S    
Cr2   O18   S    
Cr10  O14   S    
C3    C10   S    
Cr11  O19   S    
C44   C52   S    
Cr12  O20   S    
C88   H105  S    
C115  H159  S    
C31   C39   S    
C97   O45   A    
C79   C80   S    
C128  H154  S    
C59   C125  S    
C27   C28   S    
C28   H24   S    
C111  C115  S    
C13   C113  S    
C47   O31   A    
