data_mof_unit_53509.cif
_audit_creation_date              2012-12-11T14:49:43-0500
_audit_creation_method            fapswitch 2.2
_symmetry_space_group_name_H-M    P1
_symmetry_Int_Tables_number       1
_space_group_crystal_system       triclinic
_cell_length_a                    10.942011
_cell_length_b                    10.928544
_cell_length_c                    18.889063
_cell_angle_alpha                 89.999107
_cell_angle_beta                  90.000451
_cell_angle_gamma                 120.090375
_cell_volume                      1954.35869581

loop_
_atom_site_label
_atom_site_type_symbol
_atom_type_description
_atom_site_fract_x
_atom_site_fract_y
_atom_site_fract_z
_atom_type_partial_charge
C1    C     C_R   0.528396 0.468201 0.646698 0.547734
C2    C     C_R   0.463442 0.530630 0.355485 0.549699
C3    C     C_R   0.468815 0.931383 0.144256 0.550658
C4    C     C_R   0.060326 0.532064 0.353361 0.548576
C5    C     C_R   0.399983 0.028989 0.535298 -0.130319
C6    C     C_R   0.625192 0.607591 0.963417 -0.140563
C7    C     C_R   0.992595 0.381362 0.535870 -0.136471
C8    C     C_R   0.400007 0.029014 0.964703 -0.130348
C9    C     C_R   0.625105 0.607720 0.536607 -0.140614
C10   C     C_R   0.992473 0.381280 0.964133 -0.136499
C11   C     C_R   0.008658 0.387636 0.037416 -0.134608
C12   C     C_R   0.933825 0.469766 0.855209 0.550373
C13   C     C_R   0.613986 0.613320 0.463415 -0.149074
C14   C     C_R   0.393636 0.009535 0.037636 -0.136620
C15   C     C_R   0.008797 0.387690 0.462589 -0.134507
C16   C     C_R   0.614038 0.613205 0.036605 -0.149087
C17   C     C_R   0.393615 0.009516 0.462365 -0.136582
C18   C     C_R   0.479417 0.964217 0.430514 0.036665
C19   C     C_R   0.486954 0.518386 0.069964 0.037287
C20   C     C_R   0.002320 0.494437 0.424245 0.033906
C21   C     C_R   0.479403 0.964194 0.069483 0.036665
C22   C     C_R   0.486981 0.518355 0.430030 0.037310
C23   C     C_R   0.531962 0.060685 0.646605 0.548787
C24   C     C_R   0.002480 0.494576 0.075717 0.033942
C25   C     C_R   0.972590 0.483357 0.929397 0.036451
C26   C     C_R   0.508742 0.507917 0.576173 0.032869
C27   C     C_R   0.490704 0.001000 0.923760 0.030672
C28   C     C_R   0.972367 0.483262 0.570562 0.036491
C29   C     C_R   0.508778 0.507933 0.923828 0.032827
C30   C     C_R   0.490711 0.001007 0.576239 0.030679
C31   C     C_R   0.562914 0.928316 0.472343 -0.123907
C32   C     C_R   0.369635 0.424250 0.029384 -0.128070
C33   C     C_R   0.971168 0.588516 0.458932 -0.130566
C34   C     C_R   0.528404 0.468197 0.853305 0.547747
C35   C     C_R   0.562859 0.928249 0.027651 -0.123926
C36   C     C_R   0.369701 0.424060 0.470590 -0.128093
C37   C     C_R   0.971756 0.588906 0.040979 -0.130565
C38   C     C_R   0.962099 0.586568 0.968696 -0.126348
C39   C     C_R   0.379359 0.421598 0.542910 -0.136446
C40   C     C_R   0.566574 0.944175 0.955351 -0.132799
C41   C     C_R   0.961451 0.586197 0.531217 -0.126247
C42   C     C_R   0.379334 0.421769 0.957065 -0.136470
C43   C     C_R   0.566620 0.944228 0.544644 -0.132776
C44   C     C_R   0.933765 0.469744 0.644774 0.550367
C45   C     C_R   0.531960 0.060681 0.853394 0.548787
C46   C     C_R   0.463431 0.530639 0.144512 0.549698
C47   C     C_R   0.468818 0.931390 0.355742 0.550666
C48   C     C_R   0.060354 0.532087 0.146629 0.548558
Cr1   Cr    Cr6+3 0.776430 0.541680 0.750000 1.010641
Cr2   Cr    Cr6+3 0.765250 0.223570 0.750000 1.016568
Cr3   Cr    Cr6+3 0.458320 0.234750 0.750000 1.012935
Cr4   Cr    Cr6+3 0.541680 0.776430 0.250000 1.013193
Cr5   Cr    Cr6+3 0.223570 0.765250 0.250000 1.017560
Cr6   Cr    Cr6+3 0.234750 0.458320 0.250000 1.012079
H1    H     H_    0.340486 0.073358 0.558855 0.133632
H2    H     H_    0.031373 0.313107 0.436430 0.118546
H3    H     H_    0.704066 0.689832 0.066959 0.111703
H4    H     H_    0.324867 0.032640 0.430899 0.120509
H5    H     H_    0.625258 0.886678 0.449331 0.138423
H6    H     H_    0.268485 0.352884 0.053235 0.130113
H7    H     H_    0.963466 0.670875 0.430846 0.130156
H8    H     H_    0.625166 0.886568 0.050662 0.138449
H9    H     H_    0.268606 0.352554 0.446725 0.130031
H10   H     H_    0.964320 0.671448 0.069022 0.130225
H11   H     H_    0.942855 0.664730 0.944006 0.129995
H12   H     H_    0.725919 0.676073 0.938406 0.118812
H13   H     H_    0.287335 0.345053 0.572181 0.125827
H14   H     H_    0.635624 0.920011 0.924748 0.129435
H15   H     H_    0.941898 0.664181 0.555878 0.129995
H16   H     H_    0.287283 0.345334 0.927773 0.125837
H17   H     H_    0.635696 0.920090 0.575243 0.129434
H18   H     H_    0.996394 0.298159 0.565196 0.118647
H19   H     H_    0.340541 0.073418 0.941149 0.133657
H20   H     H_    0.725767 0.676353 0.561645 0.118662
H21   H     H_    0.995966 0.297886 0.934842 0.118731
H22   H     H_    0.030939 0.312884 0.063613 0.118522
H23   H     H_    0.703977 0.690065 0.433079 0.111661
H24   H     H_    0.324919 0.032692 0.069104 0.120504
O1    O     O_R   0.916700 0.566820 0.669930 -0.527552
O2    O     O_R   0.566820 0.916700 0.330070 -0.525641
O3    O     O_R   0.083300 0.650120 0.169930 -0.525075
O4    O     O_R   0.349880 0.433180 0.330070 -0.526349
O5    O     O_R   0.649840 0.534790 0.674920 -0.510209
O6    O     O_R   0.884950 0.350160 0.825080 -0.504100
O7    O     O_R   0.465210 0.115050 0.674920 -0.507826
O8    O     O_R   0.649840 0.534790 0.825080 -0.510198
O9    O     O_R   0.884950 0.350160 0.674920 -0.504094
O10   O     O_R   0.465210 0.115050 0.825080 -0.507826
O11   O     O_R   0.534790 0.649840 0.174920 -0.509097
O12   O     O_R   0.650120 0.083300 0.830070 -0.523513
O13   O     O_R   0.350160 0.884950 0.325080 -0.502832
O14   O     O_R   0.115050 0.465210 0.174920 -0.509667
O15   O     O_R   0.534790 0.649840 0.325080 -0.509091
O16   O     O_R   0.350160 0.884950 0.174920 -0.502856
O17   O     O_R   0.115050 0.465210 0.325080 -0.509662
O18   O     O_3   0.666667 0.333333 0.750000 -0.244004
O19   O     O_3   0.333333 0.666667 0.250000 -0.249286
O20   O     O_R   0.433180 0.349880 0.669930 -0.526728
O21   O     O_R   0.916700 0.566820 0.830070 -0.527570
O22   O     O_R   0.650120 0.083300 0.669930 -0.523512
O23   O     O_R   0.433180 0.349880 0.830070 -0.526710
O24   O     O_R   0.566820 0.916700 0.169930 -0.525639
O25   O     O_R   0.083300 0.650120 0.330070 -0.525011
O26   O     O_R   0.349880 0.433180 0.169930 -0.526342

loop_
_geom_bond_atom_site_label_1
_geom_bond_atom_site_label_2
_ccdc_geom_bond_type
C29   C42   A    
Cr4   O19   S    
C18   C47   S    
Cr3   O7    S    
C19   C46   S    
Cr2   O6    S    
C46   O11   A    
Cr4   O24   S    
C31   C43   A    
C14   C21   A    
Cr6   O26   S    
C11   H22   S    
C26   C39   A    
C5    C17   A    
C4    O25   A    
C11   C24   A    
C42   H16   S    
C48   O3    A    
C12   O6    A    
Cr5   O3    S    
C34   O8    A    
C31   H5    S    
C9    C13   A    
C12   O21   A    
Cr2   O12   S    
Cr5   O13   S    
C8    C14   A    
Cr6   O19   S    
C35   H8    S    
C36   H9    S    
C2    O15   A    
C17   H4    S    
C27   C45   S    
Cr3   O20   S    
C7    C15   A    
C23   O22   A    
Cr4   O11   S    
C47   O13   A    
C47   O2    A    
C19   C32   A    
C9    C26   A    
C24   C37   A    
C36   C39   A    
C15   C20   A    
C13   H23   S    
C34   O23   A    
C24   C48   S    
C23   C30   S    
C45   O10   A    
C48   O14   A    
C7    H18   S    
Cr5   O19   S    
C46   O26   A    
C29   C34   S    
C28   C44   S    
C7    C28   A    
Cr1   O1    S    
C1    O20   A    
Cr6   O14   S    
C37   C38   A    
C25   C38   A    
Cr1   O21   S    
C4    O17   A    
C10   H21   S    
C38   H11   S    
C27   C40   A    
C17   C18   A    
Cr4   O15   S    
C45   O12   A    
Cr6   O17   S    
Cr2   O9    S    
C20   C33   A    
C3    O24   A    
C23   O7    A    
C1    C26   S    
C30   C43   A    
C3    C21   S    
Cr3   O23   S    
C9    H20   S    
C32   H6    S    
C44   O9    A    
Cr6   O4    S    
C37   H10   S    
C10   C25   A    
C41   H15   S    
C5    C30   A    
C43   H17   S    
Cr5   O16   S    
C39   H13   S    
Cr1   O8    S    
C5    H1    S    
C44   O1    A    
Cr3   O10   S    
C21   C35   A    
C1    O5    A    
C22   C36   A    
Cr3   O18   S    
Cr2   O22   S    
C12   C25   S    
C33   C41   A    
C15   H2    S    
Cr1   O5    S    
C35   C40   A    
C2    C22   S    
Cr2   O18   S    
Cr5   O25   S    
C16   C19   A    
C8    H19   S    
C13   C22   A    
C3    O16   A    
C16   H3    S    
C14   H24   S    
Cr1   O18   S    
C2    O4    A    
C10   C11   A    
C6    C16   A    
C4    C20   S    
C6    H12   S    
C6    C29   A    
C33   H7    S    
C40   H14   S    
C8    C27   A    
C32   C42   A    
C18   C31   A    
Cr4   O2    S    
C28   C41   A    
