data_mof_unit_58524.cif
_audit_creation_date              2013-03-05T15:54:21-0500
_audit_creation_method            fapswitch 2.2
_symmetry_space_group_name_H-M    P1
_symmetry_Int_Tables_number       1
_space_group_crystal_system       triclinic
_cell_length_a                    15.099694
_cell_length_b                    14.918783
_cell_length_c                    14.882518
_cell_angle_alpha                 108.830314
_cell_angle_beta                  109.193181
_cell_angle_gamma                 110.177463
_cell_volume                      2587.27464169

loop_
_atom_site_label
_atom_site_type_symbol
_atom_site_description
_atom_site_fract_x
_atom_site_fract_y
_atom_site_fract_z
_atom_type_partial_charge
C1    C     C_R   0.005108 0.804528 0.096827 -0.174983
H1    H     H_    0.983625 0.831142 0.158765 0.169788
N1    N     N_R   0.995640 0.706130 0.053910 -0.057242
C2    C     C_R   0.796282 0.196880 0.702986 -0.141814
H2    H     H_    0.826081 0.171853 0.648068 0.121648
N2    N     N_R   0.848310 0.293860 0.791110 -0.058933
C3    C     C_R   0.020703 0.591545 0.778530 -0.082746
H3    H     H_    0.042250 0.675368 0.800950 0.130876
N3    N     N_R   0.054010 0.556790 0.847890 -0.036575
C4    C     C_R   0.686650 0.408248 0.931322 0.351743
N4    N     N_R   0.789940 0.443190 0.997130 -0.089085
C5    C     C_R   0.936019 0.408548 0.685302 -0.060071
H4    H     H_    0.885419 0.323964 0.621212 0.095811
N5    N     N_R   0.997630 0.443170 0.791110 -0.047378
C6    C     C_R   0.778443 0.591895 0.021863 -0.122554
H5    H     H_    0.801359 0.677244 0.056334 0.129866
N6    N     N_R   0.846320 0.556810 0.053910 -0.048705
C7    C     C_R   0.707648 0.191039 0.795142 0.004000
H6    H     H_    0.659181 0.156392 0.827342 0.170269
N7    N     N_R   0.791080 0.293860 0.847890 -0.063731
C8    C     C_R   0.103108 0.808286 0.013369 0.263433
N8    N     N_R   0.052880 0.706130 0.997130 -0.095164
C9    C     C_R   0.069930 0.870622 0.071002 -0.079162
C10   C     C_R   0.708327 0.131362 0.704132 0.004997
C11   C     C_R   0.949100 0.500912 0.675400 0.024773
C12   C     C_R   0.675140 0.500663 0.946669 -0.126844
C13   C     C_R   0.983800 0.590476 0.291588 0.286833
N9    N     N_R   0.002370 0.556830 0.208890 -0.080924
C14   C     C_R   0.210432 0.408780 0.907946 -0.081227
H7    H     H_    0.181648 0.324405 0.852934 0.104272
N10   N     N_R   0.153680 0.443190 0.946090 -0.055557
C15   C     C_R   0.313532 0.754485 0.224309 0.377747
N11   N     N_R   0.208920 0.706140 0.152110 -0.096608
C16   C     C_R   0.975781 0.253857 0.068493 -0.144907
H8    H     H_    0.948970 0.250786 0.126602 0.114527
N12   N     N_R   0.947120 0.293870 0.002870 -0.047883
C17   C     C_R   0.064604 0.249824 0.973821 -0.110401
H9    H     H_    0.116086 0.238666 0.940929 0.085517
N13   N     N_R   0.004360 0.293870 0.946090 -0.047220
C18   C     C_R   0.221532 0.752447 0.315366 -0.162852
H10   H     H_    0.201797 0.766926 0.380243 0.162382
N14   N     N_R   0.151690 0.706140 0.208890 -0.050147
C19   C     C_R   0.903950 0.408929 0.209466 -0.166286
H11   H     H_    0.846847 0.324525 0.180171 0.129663
N15   N     N_R   0.945990 0.443210 0.152110 -0.064477
C20   C     C_R   0.299349 0.590291 0.995297 0.025028
H12   H     H_    0.348161 0.671488 0.012017 0.158372
N16   N     N_R   0.210060 0.556810 0.002870 -0.057785
Ni1   Ni    Ni4+2 0.999010 0.630300 0.130220 0.282429
Ni2   Ni    Ni4+2 0.000990 0.369700 0.869780 0.222244
Ni3   Ni    Ni4+2 0.130280 0.630280 0.000000 0.313485
Ni4   Ni    Ni4+2 0.869720 0.369720 0.000000 0.239958
C21   C     C_R   0.927770 0.500085 0.298381 -0.064877
C22   C     C_R   0.304002 0.500058 0.940531 0.039933
C23   C     C_R   0.323509 0.784125 0.326692 -0.107670
C24   C     C_R   0.049302 0.224892 0.052095 0.081511
C25   C     C_3   0.474776 0.420285 0.823789 -0.493708
H13   H     H_    0.460773 0.337148 0.794969 0.211849
H14   H     H_    0.491364 0.445137 0.765749 0.219543
C26   C     C_3   0.368889 0.412706 0.821329 0.216330
H15   H     H_    0.317643 0.330951 0.807693 0.058564
H16   H     H_    0.559711 0.403411 0.019502 0.200770
C27   C     C_3   0.561485 0.480559 0.029341 -0.481632
C28   C     C_3   0.588694 0.618698 0.965491 -0.417664
C29   C     C_3   0.575870 0.504002 0.939638 0.250096
H17   H     H_    0.656037 0.682086 0.049851 0.188797
H18   H     H_    0.610753 0.643190 0.909346 0.163672
C30   C     C_3   0.400517 0.501559 0.935960 -0.030143
C31   C     C_3   0.460024 0.480181 0.032373 0.361932
C32   C     C_3   0.483494 0.617525 0.957915 -0.060528
H19   H     H_    0.506966 0.680996 0.039144 0.199835
H20   H     H_    0.636886 0.540870 0.109357 0.227591
C33   C     C_R   0.588421 0.035007 0.512675 0.133849
C34   C     C_R   0.618509 0.032716 0.610054 0.066009
C35   C     C_R   0.553843 0.942002 0.614385 -0.190754
H21   H     H_    0.577153 0.939378 0.690120 0.134907
C36   C     C_R   0.455493 0.856748 0.520283 -0.155885
H22   H     H_    0.404055 0.786682 0.522329 0.142568
C37   C     C_R   0.422773 0.866191 0.425511 0.054749
C38   C     C_R   0.490979 0.955445 0.423790 0.198535
C39   C     C_3   0.473570 0.034453 0.388273 -0.084583
C40   C     C_3   0.583373 0.123890 0.488578 -0.570073
H23   H     H_    0.477515 0.021292 0.312260 0.223474
H24   H     H_    0.646412 0.158930 0.467524 0.187272
H25   H     H_    0.582520 0.186615 0.552860 0.218925
C41   C     C_R   0.956213 0.602701 0.481808 0.270786
C42   C     C_R   0.898577 0.504031 0.383333 0.076554
C43   C     C_R   0.827272 0.408744 0.376968 -0.177206
H26   H     H_    0.777169 0.331602 0.301097 0.142320
C44   C     C_R   0.831846 0.409642 0.473013 -0.182424
H27   H     H_    0.785335 0.332955 0.468451 0.129536
C45   C     C_R   0.908127 0.505679 0.574802 0.040793
C46   C     C_R   0.960475 0.603917 0.575774 0.111994
C47   C     C_3   0.077391 0.693894 0.644120 -0.495591
C48   C     C_3   0.072161 0.692584 0.540885 -0.504595
H28   H     H_    0.088601 0.771304 0.702390 0.207813
H29   H     H_    0.133678 0.667359 0.680317 0.225564
H30   H     H_    0.080303 0.769353 0.540443 0.234998
H31   H     H_    0.124971 0.665087 0.517764 0.185932
C49   C     C_R   0.067368 0.041131 0.168379 0.148541
C50   C     C_R   0.103660 0.986643 0.106170 0.072934
C51   C     C_R   0.157318 0.040552 0.061737 -0.132531
H32   H     H_    0.185087 0.003777 0.010388 0.169259
C52   C     C_R   0.158290 0.134755 0.064569 -0.243923
H33   H     H_    0.191786 0.166579 0.020680 0.142313
C53   C     C_R   0.095994 0.170334 0.101191 0.046001
C54   C     C_R   0.062212 0.130935 0.164695 0.177031
C55   C     C_3   0.958270 0.096797 0.167885 -0.514932
C56   C     C_3   0.964088 0.999427 0.172631 -0.494534
H34   H     H_    0.968078 0.155601 0.244123 0.212203
H35   H     H_    0.887431 0.071413 0.090806 0.196153
H36   H     H_    0.977771 0.002247 0.251861 0.219962
H37   H     H_    0.896234 0.920572 0.098556 0.192168
N17   N     N_R   0.401348 0.789336 0.202595 0.199643
O1    O     O_R   0.488362 0.787679 0.254475 -0.348139
O2    O     O_R   0.404109 0.842931 0.149040 -0.400099
N18   N     N_R   0.301457 0.418658 0.727775 0.239851
O3    O     O_R   0.206244 0.405074 0.710020 -0.420810
O4    O     O_R   0.324583 0.415151 0.650211 -0.414046
C57   C     C_3   0.392924 0.370681 0.031418 -0.440361
C58   C     C_3   0.358635 0.257581 0.940183 -0.381461
C59   C     C_3   0.385428 0.186500 0.986332 -0.732349
H38   H     H_    0.474772 0.224501 0.035445 0.280966
H39   H     H_    0.350406 0.177498 0.039695 0.240030
H40   H     H_    0.352450 0.103817 0.918291 0.255240
H41   H     H_    0.269659 0.212946 0.883532 0.192722
H42   H     H_    0.399116 0.264501 0.891153 0.244515
H43   H     H_    0.444904 0.380436 0.111118 0.232107
H44   H     H_    0.320421 0.365999 0.037148 0.196994
C60   C     C_3   0.438505 0.654644 0.875196 -0.369765
C61   C     C_3   0.500472 0.779976 0.925288 -0.307359
C62   C     C_3   0.455736 0.814756 0.843057 -0.814446
H45   H     H_    0.463969 0.778639 0.770376 0.246394
H46   H     H_    0.368753 0.787664 0.816669 0.276255
H47   H     H_    0.501925 0.905515 0.881519 0.253516
H48   H     H_    0.492971 0.819052 0.997750 0.253773
H49   H     H_    0.588007 0.810126 0.952186 0.203243
H50   H     H_    0.444953 0.617731 0.801533 0.241825
H51   H     H_    0.351350 0.627017 0.847276 0.226029
N19   N     N_R   0.494447 0.571379 0.139297 0.242756
O5    O     O_R   0.428374 0.564555 0.178528 -0.385921
O6    O     O_R   0.590259 0.659328 0.196831 -0.359950
C63   C     C_3   0.373455 0.045072 0.381832 -0.344394
C64   C     C_3   0.361221 0.068361 0.484437 -0.257418
C65   C     C_3   0.253485 0.064597 0.462288 -0.819753
H52   H     H_    0.249329 0.127375 0.439132 0.263013
H53   H     H_    0.184397 0.982271 0.395192 0.279925
H54   H     H_    0.246198 0.081660 0.537094 0.263552
H55   H     H_    0.363832 0.007087 0.510325 0.218537
H56   H     H_    0.427506 0.151077 0.552954 0.237440
H57   H     H_    0.376964 0.111910 0.362661 0.211594
H58   H     H_    0.299732 0.967833 0.311227 0.214457
N20   N     N_R   0.601885 0.298442 0.885542 0.195645
O7    O     O_R   0.602598 0.252962 0.946894 -0.469475
O8    O     O_R   0.541526 0.236498 0.779942 -0.487232
N21   N     N_R   0.208239 0.853600 0.021842 0.225961
O9    O     O_R   0.289579 0.943647 0.109684 -0.413171
O10   O     O_R   0.228520 0.794844 0.954397 -0.427521
N22   N     N_R   0.971489 0.685528 0.322551 0.218536
O11   O     O_R   0.028645 0.768719 0.316049 -0.465691
O12   O     O_R   0.888002 0.679883 0.333569 -0.393863

loop_
_geom_bond_atom_site_label_1
_geom_bond_atom_site_label_2
_geom_bond_distance
_ccdc_geom_bond_type
C42   C43   1.406853 A    
C27   C29   1.546404 S    
C16   C24   1.385533 A    
C46   C47   1.502084 S    
C33   C34   1.384789 A    
N3    Ni3   1.861621 S    
N3    N5    1.385255 A    
C52   C53   1.399433 A    
N17   O1    1.300286 A    
N1    Ni1   1.844799 S    
C48   H30   1.111371 S    
C3    H3    1.076866 S    
N5    Ni2   1.844582 S    
C36   H22   1.082991 S    
C5    H4    1.079194 S    
H16   C27   1.101915 S    
C7    C10   1.365399 A    
N11   N14   1.393189 A    
N21   O9    1.301762 A    
C17   H9    1.076344 S    
N19   O6    1.303276 A    
C58   H42   1.102316 S    
N18   O4    1.302245 A    
C65   H52   1.111100 S    
C16   H8    1.075585 S    
C48   H31   1.112446 S    
C63   C64   1.540739 S    
C25   H14   1.109624 S    
C22   C30   1.473997 S    
C14   C22   1.371750 A    
C13   N22   1.440182 S    
C6    H5    1.077896 S    
C32   C60   1.559933 S    
C55   C56   1.507668 S    
C3    N3    1.330930 A    
C7    H6    1.077938 S    
C35   C36   1.401452 A    
C45   C46   1.397345 A    
C64   H56   1.108587 S    
N4    Ni4   1.887244 S    
C65   H53   1.110562 S    
C17   C24   1.395041 A    
C19   C21   1.384838 A    
N16   Ni3   1.887244 S    
N4    N6    1.385255 A    
C27   C31   1.545595 S    
C62   H45   1.110958 S    
C49   C54   1.385856 A    
C54   C55   1.496029 S    
N22   O12   1.301833 A    
C32   H19   1.109724 S    
C28   C32   1.548582 S    
N20   O8    1.301622 A    
C15   C23   1.381358 A    
C7    N7    1.340015 A    
N12   Ni4   1.886514 S    
C56   H37   1.112512 S    
C4    C12   1.404050 A    
C31   N19   1.491385 S    
C18   N14   1.338807 A    
C49   C56   1.498034 S    
C8    N8    1.341887 A    
C47   C48   1.505625 S    
C60   H51   1.109125 S    
C4    N20   1.430283 S    
C52   H33   1.076859 S    
C39   H23   1.109429 S    
C39   C40   1.522638 S    
C36   C37   1.404063 A    
C17   N13   1.330488 A    
C20   N16   1.323490 A    
N9    N15   1.385256 A    
C34   C35   1.405422 A    
C57   H44   1.105963 S    
C50   C51   1.409473 A    
N19   O5    1.303037 A    
C2    N2    1.320625 A    
C61   H48   1.111621 S    
C41   C48   1.497866 S    
C56   H36   1.112033 S    
N6    Ni1   1.881032 S    
C41   C42   1.398963 A    
C30   C31   1.616578 S    
C6    C12   1.393690 A    
C47   H29   1.112647 S    
C27   H20   1.110902 S    
C26   H15   1.101569 S    
C1    N1    1.331643 A    
C28   H17   1.111459 S    
C51   C52   1.387179 A    
C35   H21   1.083027 S    
C28   H18   1.113000 S    
C14   H7    1.080298 S    
C61   H49   1.111452 S    
C41   C46   1.372510 A    
C23   C37   1.425055 S    
N9    Ni1   1.844582 S    
C44   C45   1.409795 A    
N22   O11   1.299254 A    
C39   C63   1.548959 S    
C14   N10   1.324891 A    
C18   C23   1.377928 A    
C25   C29   1.557860 S    
C20   C22   1.369678 A    
C57   H43   1.114353 S    
C26   N18   1.480963 S    
C21   C42   1.460316 S    
N2    Ni2   1.880577 S    
C47   H28   1.111998 S    
C19   N15   1.344355 A    
C24   C53   1.461004 S    
C58   C59   1.530803 S    
C30   C32   1.593833 S    
C18   H10   1.080120 S    
C43   C44   1.403638 A    
C1    C9    1.379923 A    
C40   H24   1.111791 S    
N10   N16   1.385255 A    
C8    C9    1.393027 A    
C19   H11   1.081003 S    
C8    N21   1.437320 S    
N10   Ni2   1.881030 S    
C59   H39   1.106528 S    
C61   C62   1.526900 S    
C60   H50   1.109971 S    
C33   C40   1.500505 S    
C65   H54   1.110527 S    
C57   C58   1.553992 S    
C6    N6    1.327309 A    
C20   H12   1.068387 S    
C63   H58   1.111534 S    
C11   C45   1.455797 S    
C64   H55   1.108092 S    
C12   C29   1.487286 S    
N12   N13   1.393314 A    
C5    N5    1.338716 A    
C38   C39   1.504142 S    
C25   C26   1.550672 S    
N17   O2    1.298665 A    
C13   C21   1.379024 A    
N11   Ni3   1.862028 S    
C40   H25   1.108864 S    
N2    N7    1.393190 A    
C31   C57   1.590325 S    
C3    C11   1.383352 A    
C55   H35   1.112121 S    
C5    C11   1.386339 A    
C64   C65   1.526658 S    
N15   Ni4   1.861620 S    
C59   H40   1.110568 S    
N21   O10   1.299618 A    
C60   C61   1.536874 S    
C59   H38   1.110029 S    
C58   H41   1.111256 S    
N7    Ni4   1.862030 S    
N18   O3    1.300954 A    
C15   N11   1.329557 A    
C10   C34   1.417731 S    
C25   H13   1.087687 S    
C9    C50   1.470074 S    
C62   H47   1.110472 S    
C2    C10   1.360011 A    
C1    H1    1.077866 S    
C28   C29   1.552717 S    
C63   H57   1.111605 S    
C49   C50   1.404746 A    
C33   C38   1.351114 A    
C55   H34   1.111870 S    
C16   N12   1.331950 A    
C51   H32   1.076828 S    
C4    N4    1.329913 A    
N14   Ni1   1.880577 S    
C37   C38   1.388415 A    
C2    H2    1.081935 S    
N13   Ni2   1.844798 S    
C43   H26   1.081962 S    
C26   C30   1.569527 S    
C62   H46   1.111223 S    
C53   C54   1.402729 A    
C13   N9    1.330624 A    
N1    N8    1.393313 A    
C15   N17   1.430948 S    
N20   O7    1.301033 A    
C44   H27   1.082107 S    
N8    Ni3   1.886515 S    
