data_mof_unit_7603.cif
_audit_creation_date              2013-03-05T16:37:44-0500
_audit_creation_method            fapswitch 2.2
_symmetry_space_group_name_H-M    P1
_symmetry_Int_Tables_number       1
_space_group_crystal_system       triclinic
_cell_length_a                    18.552959
_cell_length_b                    18.690461
_cell_length_c                    18.793418
_cell_angle_alpha                 109.561147
_cell_angle_beta                  109.241509
_cell_angle_gamma                 109.109638
_cell_volume                      5047.42791133

loop_
_atom_site_label
_atom_site_type_symbol
_atom_site_description
_atom_site_fract_x
_atom_site_fract_y
_atom_site_fract_z
_atom_type_partial_charge
O1    O     O_R   0.408360 0.551710 0.460090 -0.608445
O2    O     O_R   0.408390 0.448280 0.356670 -0.603985
C1    C     C_R   0.380994 0.501691 0.380173 0.870877
O3    O     O_R   0.591600 0.643340 0.551710 -0.611712
O4    O     O_R   0.591630 0.539900 0.448290 -0.622644
C2    C     C_R   0.621535 0.620102 0.501313 0.841996
Zn1   Zn    Zn3+2 0.499980 0.569070 0.569050 0.986768
Zn2   Zn    Zn3+2 0.500020 0.430930 0.430950 1.018454
O5    O     O_R   0.591610 0.551720 0.643330 -0.622796
O6    O     O_R   0.591640 0.448290 0.539910 -0.609246
O7    O     O_R   0.408370 0.460100 0.551710 -0.620086
O8    O     O_R   0.408400 0.356660 0.448290 -0.614553
C3    C     C_R   0.622579 0.502100 0.619272 0.875111
C4    C     C_R   0.379106 0.380208 0.499356 0.882523
H1    H     H_    0.756442 0.813006 0.878425 0.146574
C5    C     C_R   0.742694 0.855276 0.783614 -0.067013
H2    H     H_    0.726591 0.903322 0.814257 0.182399
C6    C     C_R   0.745338 0.843241 0.707155 -0.134362
H3    H     H_    0.730782 0.882075 0.678901 0.125913
C7    C     C_R   0.763895 0.779300 0.665950 0.098800
C8    C     C_R   0.781525 0.729085 0.703024 -0.092833
H4    H     H_    0.796632 0.680390 0.672311 0.126878
C9    C     C_R   0.778360 0.740965 0.779193 -0.035211
H5    H     H_    0.789754 0.700574 0.806311 0.129526
C10   C     C_R   0.759123 0.804105 0.819589 -0.078693
C11   C     C_R   0.821972 0.822614 0.577907 -0.234758
H6    H     H_    0.877204 0.879800 0.637915 0.161251
C12   C     C_R   0.812607 0.812670 0.497896 -0.076264
C13   C     C_R   0.738521 0.741851 0.419262 0.013069
C14   C     C_R   0.678708 0.677078 0.422279 -0.244239
H7    H     H_    0.621862 0.621461 0.362260 0.167661
C15   C     C_R   0.688628 0.686406 0.502289 -0.088960
C16   C     C_R   0.758457 0.761353 0.580965 -0.004461
C17   C     C_R   0.668506 0.772377 0.303653 -0.105247
H8    H     H_    0.642581 0.802099 0.341195 0.136349
C18   C     C_R   0.652524 0.771180 0.225194 -0.186490
H9    H     H_    0.614047 0.799400 0.202124 0.164568
C19   C     C_R   0.686213 0.733803 0.176480 -0.162408
H10   H     H_    0.672766 0.733306 0.115676 0.180536
C20   C     C_R   0.735574 0.696214 0.205421 0.371236
C21   C     C_R   0.751719 0.698090 0.284818 -0.238813
H11   H     H_    0.789966 0.670308 0.308666 0.152467
C22   C     C_R   0.719074 0.736757 0.334310 0.076937
H12   H     H_    0.573609 0.897140 0.597538 0.130914
C23   C     C_R   0.435062 0.805708 0.525260 -0.131251
H13   H     H_    0.419764 0.847439 0.566367 0.151348
C24   C     C_R   0.368005 0.723878 0.454550 -0.136627
H14   H     H_    0.301100 0.703048 0.441520 0.184786
C25   C     C_R   0.387505 0.669090 0.401373 0.119038
C26   C     C_R   0.474774 0.698198 0.418913 -0.103781
H15   H     H_    0.490906 0.657540 0.377755 0.106804
C27   C     C_R   0.541570 0.780202 0.489482 -0.120532
H16   H     H_    0.608630 0.802351 0.502698 0.132965
C28   C     C_R   0.521793 0.833757 0.542835 -0.116956
C29   C     C_R   0.249747 0.579152 0.261012 -0.171749
H17   H     H_    0.247869 0.638559 0.268507 0.142680
C30   C     C_R   0.186606 0.499848 0.185341 -0.014937
C31   C     C_R   0.189264 0.422554 0.172051 0.063400
C32   C     C_R   0.253131 0.424848 0.238030 -0.157388
H18   H     H_    0.254466 0.364937 0.229060 0.177562
C33   C     C_R   0.316256 0.503897 0.314392 -0.101607
C34   C     C_R   0.316436 0.582580 0.325887 0.001797
C35   C     C_R   0.049929 0.281908 0.072972 -0.260610
H19   H     H_    0.032136 0.298136 0.123261 0.194446
C36   C     C_R   0.992328 0.203212 0.993944 0.385652
C37   C     C_R   0.017101 0.183475 0.929935 -0.270509
H20   H     H_    0.974149 0.123323 0.868394 0.192336
C38   C     C_R   0.097635 0.241153 0.944504 -0.269722
H21   H     H_    0.114840 0.223938 0.893965 0.196049
C39   C     C_R   0.155057 0.320020 0.023036 0.487106
C40   C     C_R   0.130647 0.340511 0.087806 -0.106426
C41   C     C_R   0.210569 0.514500 0.514628 -0.202610
H22   H     H_    0.226111 0.574113 0.567502 0.187870
C42   C     C_R   0.231830 0.455477 0.533630 -0.174623
H23   H     H_    0.263311 0.470519 0.600465 0.142826
C43   C     C_R   0.212716 0.377760 0.466721 0.118367
C44   C     C_R   0.172079 0.359571 0.380575 -0.228129
H24   H     H_    0.156951 0.299743 0.328203 0.162479
C45   C     C_R   0.150038 0.418141 0.361418 -0.208994
H25   H     H_    0.117917 0.402184 0.294325 0.180545
C46   C     C_R   0.169039 0.496301 0.428232 0.396950
C47   C     C_R   0.171047 0.248739 0.485863 -0.221124
H26   H     H_    0.110020 0.248286 0.476873 0.172365
C48   C     C_R   0.186714 0.183984 0.497332 -0.077307
C49   C     C_R   0.265170 0.182951 0.507758 0.000979
C50   C     C_R   0.328346 0.249781 0.509756 -0.247127
H27   H     H_    0.389311 0.250526 0.517765 0.156262
C51   C     C_R   0.312741 0.314605 0.499262 -0.071188
C52   C     C_R   0.233700 0.314366 0.486193 -0.003518
C53   C     C_R   0.355273 0.129124 0.582360 -0.104616
H28   H     H_    0.400539 0.195272 0.635547 0.162530
C54   C     C_R   0.370997 0.061607 0.585168 -0.057112
H29   H     H_    0.427898 0.075735 0.640322 0.133983
C55   C     C_R   0.313473 0.975965 0.516712 -0.079445
H30   H     H_    0.325779 0.923771 0.518856 0.136917
C56   C     C_R   0.240289 0.957748 0.445228 -0.146145
H31   H     H_    0.196310 0.891541 0.391873 0.133920
C57   C     C_R   0.223941 0.024953 0.442483 -0.113552
H32   H     H_    0.167265 0.010014 0.386471 0.101309
C58   C     C_R   0.281051 0.111142 0.511425 0.118391
H33   H     H_    0.613185 0.479965 0.745223 0.191351
C59   C     C_R   0.782809 0.521720 0.614265 -0.150380
H34   H     H_    0.739353 0.530646 0.567568 0.136956
C60   C     C_R   0.856924 0.524742 0.609428 -0.090594
H35   H     H_    0.868573 0.534803 0.559896 0.128774
C61   C     C_R   0.915003 0.513093 0.667113 -0.028244
H36   H     H_    0.971199 0.512753 0.661656 0.142362
C62   C     C_R   0.900534 0.500973 0.731421 -0.034142
H37   H     H_    0.945513 0.487810 0.771305 0.157829
C63   C     C_R   0.827752 0.501914 0.740414 0.074662
C64   C     C_R   0.766445 0.508647 0.678657 0.112196
C65   C     C_R   0.690365 0.502047 0.683148 -0.173759
C66   C     C_R   0.673852 0.487817 0.745350 -0.268826
C67   C     C_R   0.733665 0.482753 0.807455 0.276527
C68   C     C_R   0.812770 0.493510 0.807457 -0.274979
O9    O     O_R   0.051730 0.908360 0.460070 -0.621178
O10   O     O_R   0.948280 0.908380 0.356650 -0.614553
C69   C     C_R   0.998605 0.877685 0.380546 0.855786
O11   O     O_R   0.960110 0.908350 0.551690 -0.610727
O12   O     O_R   0.856660 0.908370 0.448270 -0.621383
C70   C     C_R   0.879574 0.878877 0.498737 0.860483
Zn3   Zn    Zn3+2 0.069080 0.999960 0.569030 1.075719
Zn4   Zn    Zn3+2 0.930920 0.999990 0.430930 0.997143
O13   O     O_R   0.051720 0.091580 0.643310 -0.628751
O14   O     O_R   0.948270 0.091600 0.539890 -0.606305
O15   O     O_R   0.143340 0.091590 0.551680 -0.588199
O16   O     O_R   0.039890 0.091610 0.448270 -0.624048
C71   C     C_R   0.000771 0.121073 0.619611 0.862595
C72   C     C_R   0.120387 0.119151 0.498985 0.857187
O17   O     O_R   0.051710 0.460040 0.908380 -0.615823
O18   O     O_R   0.948270 0.356620 0.908410 -0.626454
C73   C     C_R   0.998680 0.379797 0.878220 0.858625
O19   O     O_R   0.143330 0.551680 0.091590 -0.595495
O20   O     O_R   0.039890 0.448260 0.091620 -0.616832
C74   C     C_R   0.120195 0.499813 0.119765 0.896310
Zn5   Zn    Zn3+2 0.069060 0.569020 0.999970 1.022558
Zn6   Zn    Zn3+2 0.930920 0.430910 0.000010 1.086430
O21   O     O_R   0.051700 0.643310 0.091570 -0.632776
O22   O     O_R   0.948260 0.539890 0.091600 -0.565790
O23   O     O_R   0.960080 0.551670 0.908360 -0.638247
O24   O     O_R   0.856640 0.448250 0.908390 -0.563783
C75   C     C_R   0.998529 0.620140 0.118686 0.872112
C76   C     C_R   0.879528 0.497687 0.877710 0.880123
H38   H     H_    0.026119 0.691022 0.593706 0.181154
C77   C     C_R   0.095411 0.768817 0.550088 0.379225
C78   C     C_R   0.088770 0.780317 0.478377 -0.128889
H39   H     H_    0.144351 0.830502 0.484601 0.165866
C79   C     C_R   0.010376 0.727645 0.398438 0.046019
C80   C     C_R   0.940597 0.658584 0.388650 -0.134003
H40   H     H_    0.881887 0.613631 0.326145 0.181361
C81   C     C_R   0.946545 0.646463 0.459316 -0.181195
H41   H     H_    0.891847 0.593792 0.451510 0.156973
C82   C     C_R   0.023107 0.701640 0.539840 -0.152883
C83   C     C_R   0.999816 0.676253 0.254864 -0.139405
H42   H     H_    0.000603 0.619583 0.258109 0.191496
C84   C     C_R   0.998156 0.686501 0.184251 -0.057943
C85   C     C_R   0.001605 0.761621 0.180391 0.053795
C86   C     C_R   0.000928 0.822909 0.246192 -0.218898
H43   H     H_    0.001210 0.880064 0.243387 0.157935
C87   C     C_R   0.001128 0.812074 0.316182 -0.093773
C88   C     C_R   0.004042 0.739886 0.322967 0.009719
C89   C     C_R   0.075022 0.855577 0.129311 -0.245593
H44   H     H_    0.124875 0.903567 0.196121 0.155153
C90   C     C_R   0.080693 0.870690 0.062781 -0.189290
H45   H     H_    0.134334 0.930363 0.079061 0.187548
C91   C     C_R   0.017910 0.808708 0.975826 0.531089
C92   C     C_R   0.948522 0.732409 0.956160 -0.240255
H46   H     H_    0.899667 0.683780 0.889511 0.162667
C93   C     C_R   0.942217 0.717848 0.022600 -0.145895
H47   H     H_    0.888049 0.659060 0.006287 0.198839
C94   C     C_R   0.006177 0.778351 0.109614 0.124046
H48   H     H_    0.375025 0.330367 0.729507 0.189301
C95   C     C_R   0.288169 0.263774 0.767214 0.491766
C96   C     C_R   0.211793 0.248789 0.773094 -0.107408
H49   H     H_    0.189710 0.206169 0.797684 0.177866
C97   C     C_R   0.162796 0.287147 0.745690 0.032199
C98   C     C_R   0.192437 0.342918 0.714766 -0.157223
H50   H     H_    0.155500 0.373132 0.693433 0.161655
C99   C     C_R   0.269266 0.358760 0.709919 -0.205407
H51   H     H_    0.291719 0.401322 0.685570 0.163980
C100  C     C_R   0.316607 0.318705 0.735224 -0.177839
C101  C     C_R   0.076370 0.330263 0.809393 -0.183351
H52   H     H_    0.136201 0.391290 0.858583 0.210313
C102  C     C_R   0.997289 0.313974 0.809770 -0.075998
C103  C     C_R   0.918667 0.235730 0.744736 0.079498
C104  C     C_R   0.921793 0.172901 0.682803 -0.189983
H53   H     H_    0.862127 0.111942 0.632798 0.142033
C105  C     C_R   0.001332 0.188235 0.684751 -0.078312
C106  C     C_R   0.079312 0.267400 0.747148 0.007337
C107  C     C_R   0.803123 0.175229 0.778954 -0.157538
H54   H     H_    0.842583 0.153374 0.812786 0.174545
C108  C     C_R   0.724113 0.160505 0.778138 -0.110375
H55   H     H_    0.702865 0.127286 0.810786 0.171708
C109  C     C_R   0.672822 0.189033 0.735827 -0.157271
H56   H     H_    0.611713 0.177981 0.735665 0.158708
C110  C     C_R   0.699649 0.231146 0.692975 -0.179839
H57   H     H_    0.657907 0.251844 0.660107 0.184474
C111  C     C_R   0.778879 0.246156 0.692077 0.309242
C112  C     C_R   0.832259 0.219228 0.737894 -0.016720
N1    N     N_R   0.768584 0.656070 0.154283 0.218782
O25   O     O_R   0.769232 0.669144 0.090640 -0.368837
O26   O     O_R   0.795645 0.603859 0.169096 -0.380166
N2    N     N_R   0.909326 0.143645 0.978920 0.208235
O27   O     O_R   0.857472 0.069178 0.907175 -0.443912
O28   O     O_R   0.884824 0.163176 0.036850 -0.383829
S1    S     S_3+6 0.256416 0.391873 0.038813 0.018728
O29   O     O_2   0.268572 0.352741 0.962664 -0.287306
O30   O     O_2   0.258019 0.475864 0.049589 -0.331106
O31   O     O_3   0.339214 0.412394 0.128652 -0.529504
H58   H     H_    0.388557 0.469187 0.147985 0.384561
N3    N     N_R   0.145608 0.556256 0.408491 0.188660
O32   O     O_R   0.162461 0.628216 0.470243 -0.425450
O33   O     O_R   0.105945 0.538848 0.328497 -0.438623
N4    N     N_R   0.711591 0.464996 0.868501 0.229751
O34   O     O_R   0.762310 0.518471 0.951486 -0.332823
O35   O     O_R   0.633830 0.403436 0.840826 -0.351119
N5    N     N_R   0.175087 0.824731 0.632525 0.214034
O36   O     O_R   0.181576 0.813799 0.698774 -0.337435
O37   O     O_R   0.241739 0.887482 0.642314 -0.371480
S2    S     S_3+6 0.025747 0.827182 0.892054 0.019524
O38   O     O_2   0.120365 0.871793 0.915369 -0.248065
O39   O     O_2   0.975918 0.742095 0.808375 -0.340011
O40   O     O_3   0.983119 0.891848 0.880127 -0.542770
H59   H     H_    0.979544 0.891353 0.826173 0.385698
S3    S     S_3+6 0.346121 0.211541 0.797669 0.049114
O41   O     O_2   0.354870 0.217962 0.882284 -0.220390
O42   O     O_2   0.295554 0.117060 0.728726 -0.293236
O43   O     O_3   0.446366 0.258110 0.808530 -0.540222
H60   H     H_    0.468952 0.217555 0.812538 0.388627
N6    N     N_R   0.801658 0.286205 0.643162 0.185348
O44   O     O_R   0.876695 0.307806 0.645093 -0.415691
O45   O     O_R   0.745420 0.299207 0.593501 -0.397437

loop_
_geom_bond_atom_site_label_1
_geom_bond_atom_site_label_2
_geom_bond_distance
_ccdc_geom_bond_type
C109  C110  1.395685 A    
N2    O27   1.300921 A    
C35   C36   1.404709 A    
C20   C21   1.407468 A    
C107  H54   1.081680 S    
O10   C69   1.284316 A    
H33   C66   1.085475 S    
C93   H47   1.076857 S    
C67   N4    1.438643 S    
C83   C88   1.382837 A    
C69   C87   1.432052 S    
C64   C65   1.409333 A    
O23   C76   1.280399 A    
Zn5   O23   2.014912 S    
O20   Zn6   2.014787 S    
S2    O39   1.503767 D    
C77   C78   1.406972 A    
C97   C106  1.482042 S    
C92   C93   1.396352 A    
C95   C96   1.400936 A    
O12   C70   1.273552 A    
Zn1   O7    2.016700 S    
Zn6   O22   2.018279 S    
C11   H6    1.085508 S    
C85   C86   1.382986 A    
C47   C52   1.382877 A    
O9    Zn3   2.021153 S    
O4    C2    1.280105 A    
C79   C88   1.484249 S    
C12   C13   1.409013 A    
S3    O41   1.502921 D    
C6    H3    1.083327 S    
C3    C65   1.424517 S    
O24   C76   1.275833 A    
C49   C50   1.384344 A    
C14   H7    1.085421 S    
O7    C4    1.275087 A    
S1    O30   1.502938 D    
C31   C40   1.479300 S    
H1    C10   1.082256 S    
C61   H36   1.082559 S    
C29   C34   1.386732 A    
C48   C72   1.434461 S    
S3    O43   1.682034 S    
C62   H37   1.079074 S    
C17   H8    1.083462 S    
C21   H11   1.077724 S    
H38   C82   1.082506 S    
O5    C3    1.278287 A    
C96   H49   1.083329 S    
S2    O38   1.502947 D    
C47   C48   1.399810 A    
C66   C67   1.375413 A    
S3    O42   1.503094 D    
C63   C64   1.406449 A    
C53   C54   1.398501 A    
H48   C100  1.082338 S    
C103  C104  1.382370 A    
C89   C94   1.405460 A    
O40   H59   0.990781 S    
C62   C63   1.419930 A    
N1    O25   1.301428 A    
C98   C99   1.398231 A    
C56   C57   1.398193 A    
O19   Zn5   2.017622 S    
C26   C27   1.398485 A    
C81   H41   1.082379 S    
C111  C112  1.424790 A    
C101  C106  1.384056 A    
C14   C15   1.395097 A    
C83   C84   1.394949 A    
C41   C46   1.407005 A    
O12   Zn4   2.015346 S    
C43   C52   1.479142 S    
O13   C71   1.274282 A    
C77   C82   1.406423 A    
C1    C33   1.435430 S    
C109  H56   1.082611 S    
C104  H53   1.085471 S    
C95   C100  1.400582 A    
C32   H18   1.085092 S    
O1    Zn1   2.021794 S    
C8    H4    1.077922 S    
C13   C22   1.477922 S    
C86   C87   1.395295 A    
C21   C22   1.400706 A    
C59   C64   1.417001 A    
C59   H34   1.080636 S    
O3    Zn1   2.011364 S    
C53   C58   1.404772 A    
C60   H35   1.082509 S    
C27   C28   1.397423 A    
C107  C112  1.404543 A    
C67   C68   1.414605 A    
C78   C79   1.404813 A    
C23   C24   1.398721 A    
C8    C9    1.397491 A    
O2    Zn2   2.010933 S    
C32   C33   1.397675 A    
C42   H23   1.081827 S    
C50   C51   1.393812 A    
C37   H20   1.082547 S    
C48   C49   1.410855 A    
C41   H22   1.082306 S    
C41   C42   1.398567 A    
O21   C75   1.272717 A    
C92   H46   1.080070 S    
C45   C46   1.406348 A    
S1    O29   1.501233 D    
C5    H2    1.081695 S    
C20   N1    1.437928 S    
O15   C72   1.278561 A    
C26   H15   1.083163 S    
C31   C32   1.380625 A    
C44   H24   1.083228 S    
C47   H26   1.085020 S    
C89   H44   1.083398 S    
C103  C112  1.481723 S    
C99   H51   1.080827 S    
C105  C106  1.405648 A    
O1    C1    1.278253 A    
C108  C109  1.392697 A    
Zn3   O15   2.015597 S    
C55   C56   1.397511 A    
O16   C72   1.278173 A    
N3    O32   1.301474 A    
C13   C14   1.381342 A    
O18   Zn6   2.013044 S    
H12   C28   1.082538 S    
N6    O45   1.301852 A    
O14   C71   1.277141 A    
N2    O28   1.301519 A    
C11   C16   1.381374 A    
Zn4   O16   2.012764 S    
C24   H14   1.082453 S    
C36   N2    1.439091 S    
Zn2   O8    2.011364 S    
C56   H31   1.082244 S    
C7    C8    1.400705 A    
C29   H17   1.085242 S    
C54   C55   1.397818 A    
O31   H58   0.991518 S    
C85   C94   1.486512 S    
C44   C45   1.398273 A    
C77   N5    1.439593 S    
C55   H30   1.082363 S    
C96   C97   1.403899 A    
C43   C44   1.401500 A    
C59   C60   1.391827 A    
C83   H42   1.085634 S    
C39   C40   1.413587 A    
O11   C70   1.280751 A    
C42   C43   1.400940 A    
C98   H50   1.083124 S    
C7    C16   1.478681 S    
C5    C6    1.398225 A    
C97   C98   1.402744 A    
C46   N3    1.439917 S    
O8    C4    1.275793 A    
C23   C28   1.398079 A    
C25   C26   1.406241 A    
C57   C58   1.405842 A    
C29   C30   1.394745 A    
C86   H43   1.085450 S    
C45   H25   1.081909 S    
O3    C2    1.274085 A    
C39   S1    1.772029 S    
C104  C105  1.393401 A    
O18   C73   1.278014 A    
C91   S2    1.760959 S    
Zn3   O13   2.010372 S    
C27   H16   1.082257 S    
C50   H27   1.085495 S    
Zn5   O21   2.013168 S    
C78   H39   1.081930 S    
C93   C94   1.401858 A    
O11   Zn3   2.012677 S    
C5    C10   1.397413 A    
Zn1   O5    2.010932 S    
Zn6   O24   2.017705 S    
C90   H45   1.082593 S    
C2    C15   1.430134 S    
C107  C108  1.393899 A    
C25   C34   1.483476 S    
N3    O33   1.301539 A    
C71   C105  1.424279 S    
C38   H21   1.081642 S    
Zn2   O6    2.021794 S    
O17   Zn5   2.018197 S    
C17   C22   1.401768 A    
C35   C40   1.402308 A    
C110  H57   1.082524 S    
O6    C3    1.272307 A    
O4    Zn2   2.016700 S    
C111  N6    1.446962 S    
O20   C74   1.275673 A    
C37   C38   1.395593 A    
N5    O37   1.301732 A    
C65   C66   1.386364 A    
C11   C12   1.394740 A    
O17   C73   1.278926 A    
C15   C16   1.410379 A    
C80   C81   1.395878 A    
C60   C61   1.387635 A    
N5    O36   1.301559 A    
N4    O35   1.301389 A    
C4    C51   1.424116 S    
N6    O44   1.300511 A    
C36   C37   1.404512 A    
C89   C90   1.399262 A    
C95   S3    1.758555 S    
C24   C25   1.404949 A    
C108  H55   1.082414 S    
C18   C19   1.396988 A    
C19   C20   1.406040 A    
S1    O31   1.681867 S    
C53   H28   1.082734 S    
C19   H10   1.082401 S    
C91   C92   1.399635 A    
C61   C62   1.393313 A    
C18   H9    1.082347 S    
N4    O34   1.299940 A    
C90   C91   1.401270 A    
C54   H29   1.082400 S    
O22   C75   1.280059 A    
C17   C18   1.395696 A    
O9    C69   1.272445 A    
O2    C1    1.278646 A    
C6    C7    1.404222 A    
C79   C80   1.402082 A    
C81   C82   1.396552 A    
C68   C76   1.439857 S    
O10   Zn4   2.010244 S    
C33   C34   1.411728 A    
C87   C88   1.413519 A    
C101  C102  1.400423 A    
C110  C111  1.410413 A    
Zn4   O14   2.021238 S    
C9    H5    1.079563 S    
O43   H60   0.990552 S    
C35   H19   1.083244 S    
C23   H13   1.082445 S    
C9    C10   1.396727 A    
C84   C85   1.411773 A    
C51   C52   1.402981 A    
N1    O26   1.300919 A    
C57   H32   1.083099 S    
O19   C74   1.274950 A    
C38   C39   1.401684 A    
C30   C74   1.426532 S    
C102  C103  1.411225 A    
C12   C70   1.429150 S    
C75   C84   1.429880 S    
C30   C31   1.401780 A    
C80   H40   1.081124 S    
C49   C58   1.483368 S    
C63   C68   1.422751 A    
S2    O40   1.681376 S    
C73   C102  1.437586 S    
C101  H52   1.084610 S    
C99   C100  1.397036 A    
