data_mof_unit_60228.cif
_audit_creation_date              2012-12-10T19:48:42-0500
_audit_creation_method            fapswitch 2.2
_symmetry_space_group_name_H-M    P1
_symmetry_Int_Tables_number       1
_space_group_crystal_system       triclinic
_cell_length_a                    26.061697
_cell_length_b                    25.938306
_cell_length_c                    22.215926
_cell_angle_alpha                 89.99988
_cell_angle_beta                  54.19054
_cell_angle_gamma                 89.999976
_cell_volume                      12179.0110464

loop_
_atom_site_label
_atom_site_type_symbol
_atom_type_description
_atom_site_fract_x
_atom_site_fract_y
_atom_site_fract_z
_atom_type_partial_charge
Br1   Br    Br    0.478838 0.725726 0.664259 -0.340726
Br2   Br    Br    0.575845 0.247547 0.076355 -0.249521
Br3   Br    Br    0.075367 0.237988 0.076370 -0.240484
Br4   Br    Br    0.075426 0.761403 0.076375 -0.241367
Br5   Br    Br    0.675815 0.936107 0.667551 -0.361453
Br6   Br    Br    0.675813 0.063893 0.667552 -0.361559
Br7   Br    Br    0.175882 0.436109 0.667549 -0.361562
Br8   Br    Br    0.175882 0.563890 0.667549 -0.361605
Br9   Br    Br    0.629691 0.563911 0.508803 -0.330320
Br10  Br    Br    0.629691 0.436089 0.508804 -0.330354
Br11  Br    Br    0.157752 0.063888 0.667425 -0.369142
Br12  Br    Br    0.478841 0.274341 0.664241 -0.339699
Br13  Br    Br    0.157752 0.936111 0.667425 -0.369176
Br14  Br    Br    0.533856 0.727925 0.305997 -0.328796
Br15  Br    Br    0.533872 0.271983 0.305968 -0.329183
Br16  Br    Br    0.034194 0.230472 0.305305 -0.329690
Br17  Br    Br    0.034198 0.769510 0.305297 -0.330067
Br18  Br    Br    0.662344 0.731055 0.305557 -0.303700
Br19  Br    Br    0.662357 0.268853 0.305534 -0.304125
Br20  Br    Br    0.162678 0.233726 0.304866 -0.303370
Br21  Br    Br    0.162683 0.766252 0.304856 -0.305385
Br22  Br    Br    0.632269 0.851429 0.351187 -0.393896
Br23  Br    Br    0.978880 0.224579 0.663993 -0.348016
Br24  Br    Br    0.632220 0.148501 0.351288 -0.394035
Br25  Br    Br    0.130733 0.353424 0.354049 -0.371208
Br26  Br    Br    0.130719 0.646562 0.354075 -0.371750
Br27  Br    Br    0.978881 0.775431 0.663990 -0.347648
Br28  Br    Br    0.504688 0.854130 0.090494 -0.304117
Br29  Br    Br    0.499568 0.143510 0.090465 -0.304635
Br30  Br    Br    0.012525 0.349835 0.090367 -0.301286
Br31  Br    Br    0.011997 0.649856 0.090363 -0.301693
Br32  Br    Br    0.575846 0.746819 0.076314 -0.249034
C1    C     C_R   0.849435 0.750059 0.301096 0.835102
C2    C     C_R   0.443359 0.248435 0.504438 -0.169648
C3    C     C_R   0.297457 0.973547 0.444029 -0.115235
C4    C     C_R   0.749270 0.554163 0.492319 -0.199975
C5    C     C_R   0.749270 0.445837 0.492319 -0.199979
C6    C     C_R   0.251763 0.054235 0.506740 -0.174871
C7    C     C_R   0.251763 0.945765 0.506739 -0.174866
C8    C     C_R   0.698376 0.527274 0.499955 0.237564
C9    C     C_R   0.698376 0.472726 0.499955 0.237560
C10   C     C_R   0.211539 0.027292 0.574646 0.231648
C11   C     C_R   0.211539 0.972708 0.574646 0.231636
C12   C     C_3   0.841818 0.470522 0.502127 0.257033
C13   C     C_R   0.943320 0.251620 0.504503 -0.166924
C14   C     C_3   0.841817 0.529478 0.502127 0.257049
C15   C     C_3   0.320849 0.970452 0.364129 0.269994
C16   C     C_3   0.320850 0.029550 0.364129 0.270201
C17   C     C_R   0.748490 0.890151 0.501343 0.863747
C18   C     C_R   0.748490 0.109849 0.501343 0.863720
C19   C     C_R   0.248488 0.390151 0.501345 0.864126
C20   C     C_R   0.248488 0.609848 0.501345 0.864196
C21   C     C_R   0.889658 0.749755 0.500751 0.891915
C22   C     C_R   0.889658 0.250245 0.500751 0.891833
C23   C     C_R   0.389672 0.249776 0.500727 0.894659
C24   C     C_R   0.943321 0.748381 0.504502 -0.167026
C25   C     C_R   0.389672 0.750224 0.500728 0.894674
C26   C     C_R   0.609342 0.750896 0.501415 0.909297
C27   C     C_R   0.609342 0.249103 0.501416 0.909285
C28   C     C_R   0.109310 0.250940 0.501477 0.899398
C29   C     C_R   0.109310 0.749060 0.501477 0.899501
C30   C     C_R   0.553790 0.768077 0.444254 -0.046772
C31   C     C_R   0.553783 0.231900 0.444268 -0.046664
C32   C     C_R   0.053571 0.268749 0.444673 -0.048248
C33   C     C_R   0.053570 0.731249 0.444674 -0.047748
C34   C     C_R   0.551766 0.753179 0.505629 -0.193981
C35   C     C_R   0.502288 0.767235 0.443728 -0.090141
C36   C     C_R   0.551765 0.246823 0.505632 -0.194084
C37   C     C_R   0.051696 0.253260 0.505756 -0.196255
C38   C     C_R   0.051696 0.746741 0.505755 -0.196321
C39   C     C_R   0.491613 0.739877 0.571092 0.252232
C40   C     C_R   0.491616 0.260151 0.571083 0.252146
C41   C     C_R   0.991652 0.239390 0.570974 0.244997
C42   C     C_R   0.991653 0.760615 0.570971 0.244939
C43   C     C_R   0.502282 0.232742 0.443740 -0.090085
C44   C     C_R   0.002081 0.267896 0.444124 -0.083611
C45   C     C_R   0.002081 0.732102 0.444125 -0.083471
C46   C     C_3   0.537884 0.781953 0.364005 0.086099
C47   C     C_3   0.537871 0.217984 0.364033 0.086073
C48   C     C_3   0.037434 0.283708 0.364842 0.086072
C49   C     C_R   0.849435 0.249941 0.301096 0.835111
C50   C     C_3   0.037431 0.716280 0.364847 0.086081
C51   C     C_3   0.597272 0.782845 0.364355 0.440229
C52   C     C_3   0.597258 0.217093 0.364385 0.440239
C53   C     C_3   0.096810 0.284634 0.365210 0.437888
C54   C     C_3   0.096807 0.715353 0.365215 0.437630
C55   C     C_3   0.471377 0.725777 0.956675 0.153484
C56   C     C_3   0.472634 0.276661 0.956676 0.153417
C57   C     C_3   0.969848 0.229322 0.956659 0.152958
C58   C     C_3   0.969959 0.770956 0.956660 0.152960
C59   C     C_3   0.525836 0.807753 0.956135 0.204516
C60   C     C_R   0.349422 0.250044 0.301099 0.840930
C61   C     C_3   0.523000 0.192097 0.956125 0.204096
C62   C     C_3   0.030158 0.307073 0.956109 0.203395
C63   C     C_3   0.029851 0.692881 0.956108 0.203405
C64   C     C_3   0.477027 0.808744 0.043079 0.583243
C65   C     C_3   0.474162 0.191370 0.043072 0.583394
C66   C     C_3   0.981512 0.308461 0.043057 0.583505
C67   C     C_3   0.981201 0.691521 0.043056 0.583542
C68   C     C_1   0.388853 0.750152 0.221849 -0.025290
C69   C     C_1   0.388843 0.249842 0.221849 -0.025320
C70   C     C_1   0.888939 0.250057 0.221839 -0.026742
C71   C     C_R   0.349421 0.749956 0.301099 0.841113
C72   C     C_1   0.888938 0.749942 0.221839 -0.026718
C73   C     C_3   0.536585 0.751305 0.926666 -0.030825
C74   C     C_3   0.536528 0.248674 0.926666 -0.030788
C75   C     C_3   0.036786 0.251073 0.926647 -0.036656
C76   C     C_3   0.036780 0.748924 0.926647 -0.036634
C77   C     C_R   0.650583 0.750044 0.698927 0.833006
C78   C     C_R   0.650583 0.249955 0.698927 0.832867
C79   C     C_R   0.150606 0.250017 0.698923 0.844982
C80   C     C_R   0.150606 0.749983 0.698923 0.844966
C81   C     C_3   0.429106 0.723000 0.043452 0.256989
C82   C     C_R   0.437958 0.738093 0.570001 0.372043
C83   C     C_3   0.430487 0.279366 0.043453 0.256943
C84   C     C_3   0.927347 0.226535 0.043442 0.255944
C85   C     C_3   0.927472 0.773736 0.043442 0.255871
C86   C     C_3   0.463268 0.751273 0.073421 -0.099821
C87   C     C_3   0.463206 0.248702 0.073421 -0.099985
C88   C     C_3   0.963478 0.251050 0.073402 -0.099786
C89   C     C_3   0.963472 0.748946 0.073402 -0.099762
C90   C     C_3   0.526390 0.719982 0.042767 0.564040
C91   C     C_3   0.527798 0.277598 0.042774 0.564209
C92   C     C_3   0.024144 0.216256 0.042740 0.559936
C93   C     C_R   0.437963 0.261934 0.569989 0.371974
C94   C     C_3   0.024322 0.783497 0.042740 0.560074
C95   C     C_3   0.568821 0.720411 0.955812 -0.539314
C96   C     C_3   0.570222 0.277204 0.955820 -0.538809
C97   C     C_3   0.066645 0.216808 0.955781 -0.532926
C98   C     C_3   0.066822 0.782947 0.955781 -0.532981
C99   C     C_1   0.422206 0.750566 0.155134 0.194944
C100  C     C_1   0.422177 0.249421 0.155134 0.194912
C101  C     C_1   0.922356 0.250397 0.155120 0.194282
C102  C     C_1   0.922353 0.749601 0.155120 0.194335
C103  C     C_1   0.577443 0.750692 0.844966 -0.000316
C104  C     C_R   0.938038 0.237577 0.569813 0.367550
C105  C     C_1   0.577417 0.249291 0.844966 -0.000278
C106  C     C_1   0.077586 0.250489 0.844952 0.007329
C107  C     C_1   0.077583 0.749508 0.844951 0.007308
C108  C     C_1   0.610849 0.750309 0.778226 -0.090348
C109  C     C_1   0.610839 0.249681 0.778226 -0.090395
C110  C     C_1   0.110940 0.250186 0.778215 -0.077303
C111  C     C_1   0.110938 0.749813 0.778215 -0.077320
C112  C     C_R   0.757248 0.973544 0.444505 0.110902
C113  C     C_R   0.757248 0.026457 0.444505 0.110898
C114  C     C_R   0.257188 0.473544 0.444535 0.114661
C115  C     C_R   0.938039 0.762428 0.569811 0.367577
C116  C     C_R   0.257188 0.526456 0.444535 0.114458
C117  C     C_R   0.741221 0.945876 0.506982 -0.207509
C118  C     C_R   0.741221 0.054124 0.506982 -0.207504
C119  C     C_R   0.241207 0.445876 0.506992 -0.206826
C120  C     C_R   0.241208 0.554124 0.506992 -0.206861
C121  C     C_R   0.714023 0.972731 0.574871 0.224872
C122  C     C_R   0.714023 0.027269 0.574871 0.224860
C123  C     C_R   0.214045 0.472731 0.574875 0.226301
C124  C     C_R   0.214045 0.527269 0.574875 0.226314
C125  C     C_R   0.749753 0.609912 0.498765 0.864517
C126  C     C_R   0.443359 0.751565 0.504438 -0.169629
C127  C     C_R   0.749753 0.390087 0.498765 0.864490
C128  C     C_R   0.250200 0.109942 0.501313 0.891325
C129  C     C_R   0.250200 0.890058 0.501313 0.891331
C130  C     C_3   0.814965 0.029299 0.366268 -0.424816
C131  C     C_3   0.814965 0.970701 0.366268 -0.424902
C132  C     C_3   0.314866 0.529299 0.366272 -0.427350
C133  C     C_3   0.314866 0.470701 0.366272 -0.428088
C134  C     C_R   0.802861 0.526532 0.472386 -0.087463
C135  C     C_R   0.802861 0.473468 0.472386 -0.087456
C136  C     C_R   0.297457 0.026454 0.444029 -0.115331
H1    H     H_    0.506135 0.830634 0.931374 0.164459
H2    H     H_    0.616452 0.258367 0.933451 0.277938
H3    H     H_    0.114893 0.231205 0.933445 0.278052
H4    H     H_    0.114991 0.768348 0.933447 0.278007
H5    H     H_    0.479696 0.685369 0.935405 0.087490
H6    H     H_    0.482941 0.317139 0.935423 0.086602
H7    H     H_    0.975221 0.189174 0.935439 0.098473
H8    H     H_    0.975547 0.811132 0.935442 0.098465
H9    H     H_    0.422107 0.681754 0.060412 0.068675
H10   H     H_    0.425486 0.320487 0.060433 0.067837
H11   H     H_    0.917236 0.185306 0.060460 0.072894
H12   H     H_    0.502200 0.170843 0.931373 0.164281
H13   H     H_    0.917578 0.814972 0.060463 0.072830
H14   H     H_    0.804683 0.046175 0.328382 0.236564
H15   H     H_    0.804683 0.953825 0.328382 0.236544
H16   H     H_    0.304538 0.546176 0.328427 0.235978
H17   H     H_    0.304538 0.453825 0.328427 0.235843
H18   H     H_    0.856218 0.046352 0.361820 0.207429
H19   H     H_    0.856218 0.953648 0.361820 0.207424
H20   H     H_    0.356143 0.546353 0.361771 0.208474
H21   H     H_    0.356143 0.453648 0.361771 0.208368
H22   H     H_    0.815882 0.453237 0.558515 0.099260
H23   H     H_    0.012150 0.332243 0.931408 0.164109
H24   H     H_    0.815882 0.546763 0.558515 0.099302
H25   H     H_    0.368955 0.953389 0.327777 0.148480
H26   H     H_    0.368956 0.046612 0.327777 0.148647
H27   H     H_    0.523212 0.820457 0.357136 0.163807
H28   H     H_    0.523180 0.179477 0.357204 0.163790
H29   H     H_    0.022177 0.322290 0.359092 0.176435
H30   H     H_    0.022168 0.677698 0.359107 0.176430
H31   H     H_    0.428834 0.867356 0.044927 0.362154
H32   H     H_    0.423165 0.135157 0.044924 0.362215
H33   H     H_    0.937800 0.370474 0.044978 0.359429
H34   H     H_    0.011705 0.667877 0.931409 0.164101
H35   H     H_    0.937159 0.629737 0.044982 0.359450
H36   H     H_    0.507140 0.646375 0.038358 0.318841
H37   H     H_    0.512179 0.352172 0.038332 0.318880
H38   H     H_    0.999528 0.144477 0.038195 0.322988
H39   H     H_    0.000091 0.855419 0.038189 0.322987
H40   H     H_    0.370723 0.690124 0.625545 0.369366
H41   H     H_    0.370761 0.309935 0.625499 0.369361
H42   H     H_    0.871491 0.188954 0.624566 0.366907
H43   H     H_    0.871497 0.811055 0.624558 0.366860
H44   H     H_    0.915893 0.453961 0.400729 0.367467
H45   H     H_    0.579175 0.680655 0.932693 0.181562
H46   H     H_    0.915893 0.546039 0.400729 0.367463
H47   H     H_    0.233945 0.955519 0.396120 0.345413
H48   H     H_    0.233946 0.044485 0.396119 0.345382
H49   H     H_    0.345335 0.718665 0.064807 0.376056
H50   H     H_    0.347019 0.287292 0.064794 0.375454
H51   H     H_    0.843455 0.227718 0.064803 0.377034
H52   H     H_    0.843574 0.772945 0.064804 0.377065
H53   H     H_    0.456645 0.740741 0.881964 0.359218
H54   H     H_    0.457249 0.264316 0.881944 0.359223
H55   H     H_    0.956349 0.247982 0.881918 0.359760
H56   H     H_    0.582552 0.316965 0.932690 0.181800
H57   H     H_    0.956362 0.752576 0.881916 0.359846
H58   H     H_    0.605007 0.842657 0.882411 0.367774
H59   H     H_    0.600391 0.155125 0.882380 0.367923
H60   H     H_    0.111699 0.338833 0.882326 0.366814
H61   H     H_    0.111217 0.660875 0.882323 0.366805
H62   H     H_    0.074156 0.177260 0.932606 0.191478
H63   H     H_    0.074548 0.822516 0.932603 0.191477
H64   H     H_    0.615944 0.737471 0.933424 0.277689
O1    O     O_3   0.750020 0.750020 0.500000 -0.532465
O2    O     O_R   0.741140 0.134170 0.457020 -0.629345
O3    O     O_R   0.241140 0.365830 0.457020 -0.629513
O4    O     O_R   0.241140 0.634170 0.457020 -0.629450
O5    O     O_R   0.862350 0.719680 0.336040 -0.610547
O6    O     O_R   0.862350 0.280320 0.336040 -0.610555
O7    O     O_R   0.362350 0.219680 0.336040 -0.610580
O8    O     O_R   0.362350 0.780320 0.336040 -0.610609
O9    O     O_R   0.698420 0.780360 0.663960 -0.607731
O10   O     O_R   0.698420 0.219640 0.663960 -0.607544
O11   O     O_R   0.198420 0.280360 0.663960 -0.612318
O12   O     O_3   0.750020 0.249980 0.500000 -0.532467
O13   O     O_R   0.198420 0.719640 0.663960 -0.612340
O14   O     O_R   0.801620 0.780400 0.336040 -0.616561
O15   O     O_R   0.801620 0.219600 0.336040 -0.616551
O16   O     O_R   0.301620 0.280400 0.336040 -0.617528
O17   O     O_R   0.301620 0.719600 0.336040 -0.617580
O18   O     O_R   0.637700 0.719640 0.663960 -0.624719
O19   O     O_R   0.637700 0.280360 0.663960 -0.624826
O20   O     O_R   0.137700 0.219640 0.663960 -0.606094
O21   O     O_R   0.137700 0.780360 0.663960 -0.606103
O22   O     O_R   0.801870 0.634220 0.457010 -0.617619
O23   O     O_3   0.250020 0.250020 0.500000 -0.532482
O24   O     O_R   0.801870 0.365780 0.457010 -0.617617
O25   O     O_R   0.301870 0.134220 0.457010 -0.633044
O26   O     O_R   0.301870 0.865780 0.457010 -0.633064
O27   O     O_R   0.758890 0.865820 0.542980 -0.605660
O28   O     O_R   0.758890 0.134180 0.542980 -0.605628
O29   O     O_R   0.258890 0.365820 0.542980 -0.605114
O30   O     O_R   0.258890 0.634180 0.542980 -0.605109
O31   O     O_R   0.887320 0.719660 0.457000 -0.622110
O32   O     O_R   0.887320 0.280340 0.457000 -0.622120
O33   O     O_R   0.387320 0.219660 0.457000 -0.633254
O34   O     O_3   0.250020 0.749980 0.500000 -0.532485
O35   O     O_R   0.387320 0.780340 0.457000 -0.633253
O36   O     O_R   0.655700 0.780400 0.457020 -0.608029
O37   O     O_R   0.655700 0.219600 0.457020 -0.607998
O38   O     O_R   0.155700 0.280400 0.457020 -0.605330
O39   O     O_R   0.155700 0.719600 0.457020 -0.605298
O40   O     O_R   0.844340 0.780370 0.542980 -0.638973
O41   O     O_R   0.844340 0.219630 0.542980 -0.638963
O42   O     O_R   0.344340 0.280370 0.542980 -0.635723
O43   O     O_R   0.344340 0.719630 0.542980 -0.635762
O44   O     O_R   0.612730 0.719670 0.543000 -0.594235
O45   O     O_R   0.698170 0.634220 0.542990 -0.609258
O46   O     O_R   0.612730 0.280330 0.543000 -0.594266
O47   O     O_R   0.112730 0.219670 0.543000 -0.608729
O48   O     O_R   0.112730 0.780330 0.543000 -0.608751
O49   O     O_3   0.420124 0.830835 0.061429 -0.647603
O50   O     O_3   0.416235 0.171655 0.061438 -0.647031
O51   O     O_3   0.926369 0.334095 0.061499 -0.653588
O52   O     O_3   0.925921 0.666133 0.061502 -0.653474
O53   O     O_3   0.511731 0.669048 0.070843 -0.717880
O54   O     O_3   0.515624 0.328508 0.070834 -0.716647
O55   O     O_3   0.005697 0.165497 0.070744 -0.715785
O56   O     O_R   0.698170 0.365780 0.542990 -0.609287
O57   O     O_3   0.006145 0.834279 0.070741 -0.715651
O58   O     O_3   0.380558 0.725097 0.634169 -0.679618
O59   O     O_3   0.380568 0.274956 0.634145 -0.679448
O60   O     O_3   0.880759 0.223990 0.633712 -0.681371
O61   O     O_3   0.880761 0.776018 0.633708 -0.681204
O62   O     O_3   0.902070 0.448277 0.452426 -0.664418
O63   O     O_3   0.902070 0.551723 0.452426 -0.664412
O64   O     O_3   0.277842 0.947931 0.352808 -0.673474
O65   O     O_3   0.277844 0.052072 0.352807 -0.673472
O66   O     O_3   0.368422 0.743662 0.074744 -0.581040
O67   O     O_R   0.198170 0.134220 0.542990 -0.604024
O68   O     O_3   0.368855 0.260942 0.074726 -0.581062
O69   O     O_3   0.868351 0.250555 0.074681 -0.582959
O70   O     O_3   0.868350 0.749948 0.074679 -0.582846
O71   O     O_3   0.440169 0.753521 0.932369 -0.659116
O72   O     O_3   0.440128 0.251111 0.932346 -0.658890
O73   O     O_3   0.940810 0.260152 0.932287 -0.661052
O74   O     O_3   0.940757 0.740351 0.932284 -0.660886
O75   O     O_3   0.583695 0.830075 0.934058 -0.688876
O76   O     O_3   0.579707 0.167469 0.934025 -0.688856
O77   O     O_3   0.089542 0.325902 0.933935 -0.689083
O78   O     O_R   0.198170 0.865780 0.542990 -0.604019
O79   O     O_3   0.089133 0.673789 0.933930 -0.689209
O80   O     O_R   0.741140 0.865830 0.457020 -0.629356
Zn1   Zn    Zn3+2 0.675940 0.706640 0.561420 1.058380
Zn2   Zn    Zn3+2 0.762700 0.206610 0.561410 1.038675
Zn3   Zn    Zn3+2 0.262700 0.293390 0.561410 1.044584
Zn4   Zn    Zn3+2 0.262700 0.706610 0.561410 1.044594
Zn5   Zn    Zn3+2 0.737340 0.793410 0.438590 1.051098
Zn6   Zn    Zn3+2 0.737340 0.206590 0.438590 1.051108
Zn7   Zn    Zn3+2 0.237340 0.293410 0.438590 1.051231
Zn8   Zn    Zn3+2 0.237340 0.706590 0.438590 1.051309
Zn9   Zn    Zn3+2 0.675940 0.293360 0.561420 1.058285
Zn10  Zn    Zn3+2 0.175940 0.206640 0.561420 1.068803
Zn11  Zn    Zn3+2 0.175940 0.793360 0.561420 1.068806
Zn12  Zn    Zn3+2 0.824100 0.706650 0.438580 1.046098
Zn13  Zn    Zn3+2 0.824100 0.293350 0.438580 1.046069
Zn14  Zn    Zn3+2 0.324100 0.206650 0.438580 1.037932
Zn15  Zn    Zn3+2 0.324100 0.793350 0.438580 1.037961
Zn16  Zn    Zn3+2 0.762700 0.793390 0.561410 1.038604

loop_
_geom_bond_atom_site_label_1
_geom_bond_atom_site_label_2
_ccdc_geom_bond_type
C129  O26   A    
C81   H9    S    
C30   C51   S    
C60   O7    A    
C81   O66   S    
C49   O15   A    
C23   O33   A    
C75   C97   S    
C3    C15   S    
C96   H56   S    
O17   Zn8   S    
Br2   C91   S    
C63   H34   S    
C50   H30   S    
O35   Zn15  S    
C116  C120  A    
C58   H8    S    
C49   O6    A    
C27   O37   A    
C19   O3    A    
C88   C101  S    
C117  C121  A    
C86   C99   S    
C79   C110  S    
C12   H22   S    
C59   C64   S    
H35   O52   S    
C120  C124  A    
O40   Zn16  S    
C38   C42   A    
C119  C123  A    
C2    C43   A    
C67   C89   S    
H59   O76   S    
C12   O62   S    
Br10  C9    S    
O12   Zn13  S    
H33   O51   S    
H42   O60   S    
C127  O24   A    
H39   O57   S    
C61   H12   S    
C12   C14   S    
C33   C45   A    
O29   Zn3   S    
C131  H15   S    
C58   C85   S    
O30   Zn4   S    
C42   C115  A    
C30   C34   A    
O20   Zn10  S    
C59   H1    S    
C66   O51   S    
O78   Zn11  S    
Br16  C48   S    
C71   O17   A    
O45   Zn1   S    
C94   O57   S    
C78   O10   A    
O15   Zn6   S    
C36   C40   A    
Br20  C53   S    
C1    O14   A    
C13   C44   A    
O7    Zn14  S    
C29   O48   A    
C32   C53   S    
C20   O4    A    
Br21  C54   S    
C79   O11   A    
H48   O65   S    
C128  O67   A    
C95   H45   S    
C112  C113  A    
C132  H20   S    
C66   C88   S    
C87   C91   S    
H37   O54   S    
C31   C52   S    
Br28  C64   S    
C75   C106  S    
H57   O74   S    
C18   O28   A    
C45   C50   S    
C2    C93   A    
C48   H29   S    
C128  O25   A    
C63   C67   S    
C55   C81   S    
H44   O62   S    
C63   C76   S    
C24   C45   A    
C125  O45   A    
C92   O55   S    
C27   O46   A    
C123  C124  A    
C94   C98   S    
O44   Zn1   S    
C43   C47   S    
C59   O75   S    
C1    C72   S    
C55   O71   S    
C59   C73   S    
C56   O72   S    
C60   O16   A    
O34   Zn11  S    
C72   C102  T    
O47   Zn10  S    
C47   C52   S    
C33   C38   A    
C56   H6    S    
O5    Zn12  S    
Br17  C50   S    
C86   C90   S    
C90   C95   S    
O31   Zn12  S    
C107  C111  T    
Br15  C47   S    
C71   O8    A    
C28   O47   A    
C85   O70   S    
C76   C98   S    
C113  C118  A    
C73   C103  S    
O6    Zn13  S    
C15   H25   S    
C80   O13   A    
C26   O44   A    
C62   C75   S    
C82   O58   S    
C73   C95   S    
C116  C132  S    
H38   O55   S    
O3    Zn7   S    
O4    Zn8   S    
C74   C105  S    
C79   O20   A    
C97   H62   S    
C84   C88   S    
H54   O72   S    
C65   C87   S    
C78   C109  S    
C69   C100  T    
C91   O54   S    
C61   C74   S    
C55   C73   S    
H40   O58   S    
Br25  C53   S    
C3    C136  A    
C32   C37   A    
H60   O77   S    
H43   O61   S    
C63   O79   S    
C93   O59   S    
C4    C125  S    
C114  C133  S    
C83   C87   S    
O2    Zn6   S    
C61   C65   S    
C21   C24   S    
C31   C36   A    
C23   O42   A    
C44   C48   S    
C76   C107  S    
O43   Zn4   S    
C20   O30   A    
Br30  C66   S    
C64   O49   S    
C21   O31   A    
Br4   C94   S    
Br22  C51   S    
C5    C127  S    
C24   C115  A    
C70   C101  T    
C58   C76   S    
C125  O22   A    
C67   O52   S    
C17   O27   A    
C31   C43   A    
C28   C37   S    
C95   H64   S    
C5    C9    A    
C114  C119  A    
O23   Zn10  S    
O28   Zn2   S    
C129  O78   A    
O21   Zn11  S    
O12   Zn2   S    
O56   Zn9   S    
C29   C38   S    
O1    Zn12  S    
C25   C126  S    
C62   O77   S    
C33   C54   S    
C5    C135  A    
C6    C136  A    
C19   O29   A    
O32   Zn13  S    
C77   C108  S    
C80   C111  S    
C132  C133  S    
C90   O53   S    
O14   Zn5   S    
C62   C66   S    
C74   C96   S    
O11   Zn3   S    
Br11  C10   S    
C40   C93   A    
C18   O2    A    
C62   H23   S    
C82   C126  A    
C46   C51   S    
H46   O63   S    
C98   H4    S    
C133  H21   S    
C37   C41   A    
Br31  C67   S    
C89   C102  S    
C17   O80   A    
O34   Zn15  S    
Br12  C40   S    
C19   C119  S    
C2    C23   S    
C55   H5    S    
O1    Zn5   S    
C114  C116  A    
C25   O43   A    
C103  C108  T    
C77   O18   A    
H36   O53   S    
Br32  C90   S    
H32   O50   S    
O33   Zn14  S    
C106  C110  T    
H50   O68   S    
O19   Zn9   S    
H52   O70   S    
H58   O75   S    
C50   C54   S    
H53   O71   S    
C68   C71   S    
C39   C82   A    
C83   O68   S    
C12   C135  S    
C3    C7    A    
O46   Zn9   S    
C48   C53   S    
C57   O73   S    
H47   O64   S    
C41   C104  A    
C77   O9    A    
C20   C120  S    
C21   O40   A    
C57   C75   S    
Br18  C51   S    
Br6   C122  S    
C60   C69   S    
C61   O76   S    
C112  C131  S    
C104  O60   S    
C10   C11   A    
C57   H7    S    
O26   Zn15  S    
Br13  C11   S    
Br3   C92   S    
C130  C131  S    
C105  C109  T    
O24   Zn13  S    
C14   C134  S    
C16   H26   S    
H55   O73   S    
C127  O56   A    
C14   H24   S    
O13   Zn4   S    
O23   Zn3   S    
C130  H14   S    
C17   C117  S    
O25   Zn14  S    
O10   Zn2   S    
C22   O32   A    
O27   Zn16  S    
C84   O69   S    
C56   C83   S    
O67   Zn10  S    
O9    Zn16  S    
C92   C97   S    
Br9   C8    S    
C83   H10   S    
C1    O5    A    
C6    C128  S    
O22   Zn12  S    
Br7   C123  S    
C84   H11   S    
C26   O36   A    
C28   O38   A    
C29   O39   A    
C96   H2    S    
O34   Zn4   S    
C80   O21   A    
C68   C99   T    
Br1   C39   S    
C30   C35   A    
O12   Zn9   S    
C64   C86   S    
H49   O66   S    
C6    C10   A    
C85   H13   S    
C113  C130  S    
H31   O49   S    
O23   Zn14  S    
C131  H19   S    
O1    Zn1   S    
O12   Zn6   S    
C85   C89   S    
O48   Zn11  S    
C26   C34   S    
O1    Zn16  S    
O37   Zn6   S    
C34   C39   A    
O39   Zn8   S    
C7    C129  S    
Br27  C42   S    
O8    Zn15  S    
H61   O79   S    
O41   Zn2   S    
C57   C84   S    
H41   O59   S    
C35   C46   S    
Br23  C41   S    
C49   C70   S    
C4    C8    A    
C130  H18   S    
O18   Zn1   S    
C7    C11   A    
C115  O61   S    
C133  H17   S    
C47   H28   S    
C112  C117  A    
C132  H16   S    
C27   C36   S    
C56   C74   S    
C18   C118  S    
C15   C16   S    
C16   C136  S    
Br26  C54   S    
C4    C134  A    
C87   C100  S    
C32   C44   A    
C15   O64   S    
C8    C9    A    
C13   C22   S    
C134  C135  A    
C14   O63   S    
Br19  C52   S    
H51   O69   S    
C13   C104  A    
C97   H3    S    
O34   Zn8   S    
C58   O74   S    
C78   O19   A    
Br29  C65   S    
Br24  C52   S    
C89   C94   S    
C65   O50   S    
O36   Zn5   S    
C91   C96   S    
C98   H63   S    
C22   O41   A    
Br5   C121  S    
O38   Zn7   S    
C35   C126  A    
C46   H27   S    
Br14  C46   S    
Br8   C124  S    
C81   C86   S    
C88   C92   S    
O42   Zn3   S    
C25   O35   A    
C118  C122  A    
O16   Zn7   S    
O80   Zn5   S    
C121  C122  A    
O23   Zn7   S    
C16   O65   S    
