data_mof_unit_49800.cif
_audit_creation_date              2012-12-10T16:55:00-0500
_audit_creation_method            fapswitch 2.2
_symmetry_space_group_name_H-M    P1
_symmetry_Int_Tables_number       1
_space_group_crystal_system       triclinic
_cell_length_a                    9.71734
_cell_length_b                    10.912315
_cell_length_c                    15.487381
_cell_angle_alpha                 90.117888
_cell_angle_beta                  73.577339
_cell_angle_gamma                 89.628759
_cell_volume                      1575.21474478

loop_
_atom_site_label
_atom_site_type_symbol
_atom_type_description
_atom_site_fract_x
_atom_site_fract_y
_atom_site_fract_z
_atom_type_partial_charge
C1    C     C_R   0.001948 0.265383 0.496970 0.827561
C2    C     C_R   0.665808 0.544790 0.904879 0.088702
C3    C     C_R   0.762017 0.587323 0.951706 0.087049
C4    C     C_R   0.516366 0.539776 0.949498 0.019179
C5    C     C_R   0.467448 0.561931 0.043913 -0.069090
C6    C     C_R   0.565115 0.614670 0.087156 0.426352
C7    C     C_R   0.710396 0.623254 0.041383 -0.299420
C8    C     C_R   0.413870 0.516512 0.902308 -0.193825
C9    C     C_R   0.269412 0.504578 0.947177 -0.240431
C10   C     C_R   0.222610 0.510152 0.040666 0.169288
C11   C     C_R   0.321994 0.534092 0.090197 0.083325
C12   C     C_R   0.916532 0.502182 0.672231 0.786744
C13   C     C_R   0.077620 0.489381 0.085415 -0.218679
C14   C     C_R   0.030440 0.489244 0.179041 -0.180793
C15   C     C_R   0.274132 0.521471 0.184127 -0.224663
C16   C     C_2   0.915542 0.932433 0.471424 -0.232004
C17   C     C_2   0.989428 0.867702 0.517477 0.303491
C18   C     C_2   0.900299 0.065857 0.480136 -0.121237
C19   C     C_2   0.010545 0.133458 0.487802 -0.267740
C20   C     C_2   0.394630 0.467167 0.568008 0.571586
C21   C     C_2   0.543251 0.503898 0.571408 -0.158689
C22   C     C_R   0.997572 0.734770 0.504784 0.727736
C23   C     C_R   0.083329 0.499853 0.327731 0.791318
C24   C     C_R   0.868837 0.519789 0.770254 -0.045926
C25   C     C_R   0.129105 0.503396 0.228912 -0.087188
C26   C     C_R   0.909153 0.596370 0.907564 -0.195847
C27   C     C_R   0.962423 0.562436 0.817442 -0.202443
C28   C     C_R   0.722984 0.506984 0.814973 -0.216815
Cu1   Cu    Cu3+1 0.138640 0.500020 0.499980 1.030047
Cu2   Cu    Cu3+1 0.861360 0.499980 0.500020 0.961857
H1    H     H_    0.783111 0.660295 0.076411 0.165388
H2    H     H_    0.000912 0.471658 0.048095 0.145863
H3    H     H_    0.866754 0.887291 0.424876 0.134360
H4    H     H_    0.801226 0.108320 0.475516 0.163166
H5    H     H_    0.113476 0.090973 0.484007 0.157828
H6    H     H_    0.559121 0.528777 0.635634 0.150086
H7    H     H_    0.635609 0.456659 0.445293 0.226190
H8    H     H_    0.349410 0.520087 0.223464 0.231429
H9    H     H_    0.917842 0.474117 0.212191 0.171403
H10   H     H_    0.194730 0.486599 0.908404 0.145381
H11   H     H_    0.982618 0.632369 0.942288 0.135929
H12   H     H_    0.075727 0.572901 0.784218 0.164616
H13   H     H_    0.656137 0.466321 0.777997 0.132785
H14   H     H_    0.441196 0.511442 0.829948 0.129187
N1    N     N_2   0.346430 0.498660 0.500980 -0.095673
N2    N     N_2   0.652550 0.498630 0.501000 -0.266694
O1    O     O_R   0.117050 0.321960 0.499980 -0.564690
O2    O     O_R   0.882890 0.321920 0.500020 -0.581820
O3    O     O_R   0.052910 0.500040 0.629810 -0.539651
O4    O     O_R   0.818750 0.499990 0.629840 -0.588687
O5    O     O_R   0.117110 0.678080 0.499980 -0.562164
O6    O     O_R   0.882950 0.678040 0.500020 -0.563112
O7    O     O_R   0.181250 0.500010 0.370160 -0.543646
O8    O     O_R   0.947090 0.499960 0.370190 -0.578725
O9    O     O_3   0.021763 0.922208 0.590990 -0.606664
C29   C     C_3   0.163608 0.897161 0.593582 0.046046
H15   H     H_    0.210564 0.984995 0.607153 0.155705
H16   H     H_    0.236187 0.863021 0.528614 0.165591
C30   C     C_3   0.161030 0.810425 0.671567 -0.311861
H17   H     H_    0.101302 0.854477 0.736193 0.216288
H18   H     H_    0.104101 0.725439 0.664020 0.233414
C31   C     C_3   0.312095 0.777494 0.675172 -0.889506
H19   H     H_    0.306189 0.710161 0.729755 0.243456
H20   H     H_    0.367811 0.860433 0.688989 0.254186
H21   H     H_    0.375026 0.736345 0.610383 0.280327
O10   O     O_3   0.301969 0.404381 0.638961 -0.601694
C32   C     C_3   0.373420 0.315341 0.677448 0.013900
H22   H     H_    0.292525 0.276784 0.736665 0.178097
H23   H     H_    0.457156 0.355952 0.704601 0.120089
C33   C     C_3   0.434428 0.209578 0.611669 -0.364391
H24   H     H_    0.346663 0.168736 0.588483 0.218570
H25   H     H_    0.517307 0.243935 0.551728 0.206444
C34   C     C_3   0.502988 0.111081 0.656111 -0.893972
H26   H     H_    0.595140 0.149650 0.676014 0.269475
H27   H     H_    0.542719 0.034618 0.607880 0.258586
H28   H     H_    0.423231 0.074716 0.716709 0.249844
Br1   Br    Br    0.444038 0.618960 0.417813 -0.485443
O11   O     O_3   0.521989 0.662560 0.173516 -0.602196
C35   C     C_3   0.453733 0.777714 0.173761 0.088094
H29   H     H_    0.366033 0.785036 0.237711 0.181746
H30   H     H_    0.402244 0.789178 0.118258 0.118680
C36   C     C_3   0.560468 0.881206 0.170975 -0.345243
H31   H     H_    0.610508 0.869135 0.226714 0.243152
H32   H     H_    0.646493 0.877579 0.106094 0.210857
C37   C     C_3   0.486752 0.006433 0.180398 -0.913147
H33   H     H_    0.437680 0.021218 0.124558 0.257983
H34   H     H_    0.566917 0.079383 0.177871 0.260392
H35   H     H_    0.402151 0.013301 0.245756 0.255003

loop_
_geom_bond_atom_site_label_1
_geom_bond_atom_site_label_2
_ccdc_geom_bond_type
C8    C9    A    
O9    C29   S    
C2    C28   A    
C34   H26   S    
C13   H2    S    
C24   C27   A    
C4    C8    A    
C12   O3    A    
C21   H6    S    
Cu1   O3    S    
C37   H33   S    
Cu2   O8    S    
C26   C27   A    
C31   H19   S    
Cu1   O1    S    
Cu2   O2    S    
C5    C11   A    
C3    C7    A    
C5    C6    A    
C6    O11   S    
C29   H15   S    
C18   C19   D    
C31   H20   S    
C14   H9    S    
C11   C15   A    
C16   C17   D    
C33   H24   S    
C9    C10   A    
C17   O9    S    
C20   N1    D    
O10   C32   S    
Cu2   O4    S    
C30   H17   S    
C13   C14   A    
C34   H27   S    
C23   O7    A    
C37   H34   S    
C30   H18   S    
C7    H1    S    
C32   H22   S    
C8    H14   S    
C35   H30   S    
O11   C35   S    
C1    O1    A    
C1    C19   S    
C9    H10   S    
Cu1   N1    S    
C32   H23   S    
C2    C4    A    
C15   H8    S    
Cu1   Cu2   S    
C16   H3    S    
C33   C34   S    
C18   H4    S    
C36   H32   S    
C34   H28   S    
C23   O8    A    
C22   O6    A    
C21   N2    D    
Cu1   O5    S    
C37   H35   S    
C20   O10   S    
Cu2   O6    S    
C30   C31   S    
C31   H21   S    
Cu2   N2    S    
C3    C26   A    
C24   C28   A    
C4    C5    A    
C10   C13   A    
C35   C36   S    
C12   O4    A    
C1    O2    A    
C6    C7    A    
C36   C37   S    
C12   C24   S    
C28   H13   S    
C17   C22   S    
C29   C30   S    
C32   C33   S    
C2    C3    A    
C19   H5    S    
C27   H12   S    
Cu1   O7    S    
C29   H16   S    
C23   C25   S    
C14   C25   A    
C15   C25   A    
C10   C11   A    
C35   H29   S    
C20   C21   S    
C16   C18   S    
C36   H31   S    
C33   H25   S    
N1    Br1   S    
H7    N2    S    
C26   H11   S    
C22   O5    A    
