data_mof_unit_21176.cif
_audit_creation_date              2013-03-05T15:52:29-0500
_audit_creation_method            fapswitch 2.2
_symmetry_space_group_name_H-M    P1
_symmetry_Int_Tables_number       1
_space_group_crystal_system       triclinic
_cell_length_a                    11.021949
_cell_length_b                    11.059677
_cell_length_c                    18.738601
_cell_angle_alpha                 90.647783
_cell_angle_beta                  90.878001
_cell_angle_gamma                 59.38509
_cell_volume                      1965.57475527

loop_
_atom_site_label
_atom_site_type_symbol
_atom_site_description
_atom_site_fract_x
_atom_site_fract_y
_atom_site_fract_z
_atom_type_partial_charge
O1    O     O_R   0.748670 0.497520 0.427970 -0.507239
O2    O     O_R   0.476470 0.723930 0.429450 -0.505841
C1    C     C_R   0.360918 0.763600 0.394981 0.542941
O3    O     O_R   0.264730 0.744140 0.416740 -0.555322
O4    O     O_R   0.309440 0.472410 0.418220 -0.526037
C2    C     C_R   0.384602 0.355006 0.386939 0.535867
O5    O     O_R   0.501630 0.260530 0.414310 -0.527567
O6    O     O_R   0.727920 0.305730 0.428950 -0.504501
C3    C     C_R   0.711569 0.416289 0.395303 0.553675
O7    O     O_R   0.738670 0.496020 0.588600 -0.515160
O8    O     O_R   0.467190 0.722540 0.578350 -0.460554
C4    C     C_R   0.343717 0.769992 0.603902 0.595932
O9    O     O_R   0.254720 0.742640 0.577370 -0.524551
O10   O     O_R   0.300170 0.471020 0.567120 -0.511223
C5    C     C_R   0.368084 0.350069 0.594764 0.567358
O11   O     O_R   0.491630 0.259030 0.574940 -0.470911
O12   O     O_R   0.718640 0.304340 0.577850 -0.505137
C6    C     C_R   0.767242 0.375325 0.609186 0.538622
Cr1   Cr    Cr6+3 0.601740 0.606840 0.505840 1.049160
Cr2   Cr    Cr6+3 0.291500 0.601560 0.495070 0.991293
Cr3   Cr    Cr6+3 0.606780 0.291630 0.499130 1.031910
O13   O     O_3   0.500010 0.500010 0.500020 -0.288494
C7    C     C_R   0.918988 0.901382 0.135518 -0.070534
C8    C     C_R   0.897736 0.003263 0.185813 -0.077314
C9    C     C_R   0.761018 0.110300 0.202334 -0.106211
C10   C     C_R   0.640339 0.119963 0.169522 0.028522
H1    H     H_    0.574716 0.164967 0.303141 0.144324
C11   C     C_R   0.372592 0.331392 0.159128 0.006555
C12   C     C_R   0.484435 0.242555 0.272917 -0.155361
C13   C     C_R   0.495323 0.231948 0.198632 -0.021690
C14   C     C_R   0.053007 0.634932 0.352046 -0.090386
C15   C     C_R   0.913987 0.708966 0.375316 -0.114425
C16   C     C_R   0.667418 0.005435 0.123332 -0.081796
C17   C     C_R   0.803802 0.901835 0.104747 -0.133062
C18   C     C_R   0.261440 0.445954 0.194460 -0.163888
C19   C     C_R   0.244931 0.447985 0.268514 -0.043076
C20   C     C_R   0.810243 0.699209 0.337554 -0.076463
C21   C     C_R   0.843894 0.622838 0.274372 -0.097767
C22   C     C_R   0.984442 0.541083 0.253925 -0.103583
C23   C     C_R   0.094587 0.539209 0.294444 0.007358
C24   C     C_R   0.363136 0.345270 0.309262 -0.000306
H2    H     H_    0.820078 0.816406 0.069702 0.116258
H3    H     H_    0.886231 0.776943 0.421669 0.108970
H4    H     H_    0.024043 0.817868 0.122850 0.124447
H5    H     H_    0.987317 0.997194 0.213390 0.124940
H6    H     H_    0.749279 0.181256 0.244679 0.127902
H7    H     H_    0.121899 0.661897 0.377667 0.183482
H8    H     H_    0.589402 0.979294 0.108069 0.170647
H9    H     H_    0.174596 0.525338 0.162841 0.125889
H10   H     H_    0.704038 0.752188 0.356789 0.134522
H11   H     H_    0.761124 0.625718 0.241735 0.134527
H12   H     H_    0.006741 0.479625 0.205660 0.141150
C25   C     C_R   0.849049 0.342272 0.180179 0.018549
C26   C     C_R   0.938407 0.275747 0.237518 -0.000984
C27   C     C_R   0.893884 0.298605 0.305284 0.037619
C28   C     C_R   0.657059 0.452191 0.265531 -0.190745
C29   C     C_R   0.704275 0.430819 0.194121 -0.170856
C30   C     C_3   0.089330 0.190567 0.258427 -0.295144
C31   C     C_3   0.038333 0.216209 0.336164 -0.264293
C32   C     C_R   0.754521 0.388572 0.322301 0.020902
H13   H     H_    0.546592 0.517021 0.276493 0.129022
H14   H     H_    0.629438 0.482390 0.150903 0.128889
H15   H     H_    0.148968 0.242958 0.244926 0.137066
H16   H     H_    0.137933 0.079467 0.241016 0.147533
H17   H     H_    0.056425 0.119752 0.363654 0.147195
H18   H     H_    0.069232 0.283131 0.366887 0.161942
C33   C     C_R   0.368169 0.820774 0.171677 0.008586
C34   C     C_R   0.448811 0.851329 0.219430 -0.006399
C35   C     C_R   0.440597 0.838468 0.292571 0.006260
C36   C     C_R   0.296646 0.737220 0.271791 -0.175311
C37   C     C_R   0.306824 0.746922 0.198520 -0.163948
C38   C     C_3   0.452897 0.982072 0.231649 -0.276264
C39   C     C_3   0.434070 0.972454 0.310300 -0.279152
C40   C     C_R   0.356623 0.791540 0.319642 0.010777
H19   H     H_    0.241963 0.687236 0.290638 0.141077
H20   H     H_    0.252954 0.710816 0.163438 0.128565
H21   H     H_    0.366481 0.075235 0.204430 0.153050
H22   H     H_    0.560966 0.959042 0.224155 0.144702
H23   H     H_    0.523347 0.961246 0.343352 0.138910
H24   H     H_    0.330218 0.053940 0.330685 0.147615
C41   C     C_R   0.293482 0.321084 0.811752 0.081364
C42   C     C_R   0.356392 0.395202 0.790296 0.072826
C43   C     C_R   0.373560 0.407843 0.718931 0.010802
C44   C     C_R   0.247041 0.289764 0.687491 -0.105761
C45   C     C_R   0.228484 0.277481 0.760401 -0.105629
C46   C     C_3   0.495533 0.377864 0.810332 -0.276813
C47   C     C_3   0.514944 0.390603 0.731347 -0.262855
C48   C     C_R   0.331301 0.344446 0.667378 0.047593
H25   H     H_    0.203267 0.250127 0.647909 0.146986
H26   H     H_    0.171791 0.226224 0.776643 0.113641
H27   H     H_    0.570371 0.272200 0.832461 0.150560
H28   H     H_    0.484712 0.468001 0.842363 0.153070
H29   H     H_    0.517950 0.486366 0.717535 0.129992
H30   H     H_    0.596806 0.291311 0.706853 0.177815
C49   C     C_R   0.844082 0.320155 0.829260 0.005268
C50   C     C_R   0.837225 0.432892 0.793540 0.054469
C51   C     C_R   0.834733 0.440132 0.721086 0.017382
C52   C     C_R   0.857825 0.211411 0.713467 -0.178137
C53   C     C_R   0.862134 0.204774 0.788521 -0.172572
C54   C     C_3   0.737921 0.585741 0.804159 -0.253694
C55   C     C_3   0.735003 0.596467 0.723923 -0.215270
C56   C     C_R   0.831645 0.335766 0.679630 0.000635
H31   H     H_    0.858608 0.127340 0.682952 0.138478
H32   H     H_    0.871917 0.114197 0.814758 0.132636
H33   H     H_    0.787915 0.639321 0.831328 0.211096
H34   H     H_    0.635806 0.608201 0.826863 0.120381
H35   H     H_    0.629930 0.628225 0.700811 0.160227
H36   H     H_    0.783999 0.656045 0.704211 0.199094
C57   C     C_R   0.312292 0.840705 0.826049 -0.050544
C58   C     C_R   0.253035 0.770722 0.792488 0.009543
C59   C     C_R   0.257860 0.757650 0.719566 -0.069286
C60   C     C_R   0.391831 0.875607 0.710505 0.146214
C61   C     C_R   0.391233 0.883149 0.784902 -0.167915
C62   C     C_3   0.108309 0.791473 0.796061 0.118873
C63   C     C_3   0.114016 0.775251 0.715146 -0.216845
C64   C     C_R   0.319646 0.815519 0.677197 -0.006374
H37   H     H_    0.441346 0.935756 0.809652 0.194650
H38   H     H_    0.027995 0.895805 0.815802 0.117101
H39   H     H_    0.117801 0.678438 0.695078 0.184884
H40   H     H_    0.036831 0.872956 0.686894 0.113711
O14   O     O_R   0.186620 0.923750 0.087000 -0.522285
O15   O     O_R   0.957350 0.194160 0.084660 -0.488615
C65   C     C_R   0.907359 0.317707 0.110134 0.541695
O16   O     O_R   0.935120 0.407280 0.085350 -0.534864
O17   O     O_R   0.203800 0.365060 0.067090 -0.501458
C66   C     C_R   0.332841 0.295377 0.090521 0.544234
O18   O     O_R   0.417470 0.174910 0.067830 -0.539485
O19   O     O_R   0.375160 0.946380 0.070880 -0.516670
C67   C     C_R   0.309973 0.896966 0.104835 0.540046
O20   O     O_R   0.160500 0.919670 0.926690 -0.484212
O21   O     O_R   0.933140 0.190380 0.936050 -0.508473
C68   C     C_R   0.884607 0.308332 0.903991 0.531915
O22   O     O_R   0.909010 0.403210 0.925030 -0.505500
O23   O     O_R   0.179590 0.361290 0.918480 -0.441012
C69   C     C_R   0.293573 0.288125 0.885367 0.568221
O24   O     O_R   0.391360 0.170840 0.907510 -0.534434
O25   O     O_R   0.350950 0.942600 0.922260 -0.521999
C70   C     C_R   0.275901 0.895127 0.897869 0.560473
Cr4   Cr    Cr6+3 0.062440 0.063060 0.008240 1.039413
Cr5   Cr    Cr6+3 0.062950 0.375000 0.998920 1.062733
Cr6   Cr    Cr6+3 0.374550 0.061770 0.992470 1.001645
O26   O     O_3   0.166650 0.166610 0.999880 -0.267014
N1    N     N_R   0.459680 0.934758 0.670294 0.073087
O27   O     O_R   0.412470 0.987896 0.607325 -0.349448
O28   O     O_R   0.558461 0.950678 0.699692 -0.364871
N2    N     N_R   0.106483 0.677495 0.833517 0.076446
O29   O     O_R   0.159394 0.645064 0.897759 -0.338855
O30   O     O_R   0.023155 0.633657 0.811118 -0.381322

loop_
_geom_bond_atom_site_label_1
_geom_bond_atom_site_label_2
_geom_bond_distance
_ccdc_geom_bond_type
C55   H35   1.107207 S    
C43   C47   1.485308 S    
C66   O18   1.248800 A    
C27   C31   1.485266 S    
H1    C12   1.082265 S    
C49   C50   1.389126 A    
C17   H2    1.083084 S    
O19   C67   1.281219 A    
C41   C42   1.381767 A    
C65   O16   1.270508 A    
O4    Cr2   1.956433 S    
C25   C26   1.383171 A    
C14   C23   1.411032 A    
O8    Cr1   1.942284 S    
C54   H33   1.109564 S    
C20   C21   1.387245 A    
O17   C66   1.296796 A    
C8    H5    1.078911 S    
C60   N1    1.442797 S    
Cr5   O26   1.983866 S    
O15   Cr4   1.946248 S    
C46   H27   1.112052 S    
C31   H18   1.111903 S    
O23   Cr5   1.950252 S    
O4    C2    1.271977 A    
Cr4   O26   2.001182 S    
C49   C53   1.405249 A    
N1    O27   1.301461 A    
C52   H31   1.082358 S    
C47   H30   1.105797 S    
C47   H29   1.109944 S    
C28   C29   1.416400 A    
C6    C56   1.451133 S    
C1    C40   1.443505 S    
C58   C59   1.371434 A    
C38   H22   1.094852 S    
C38   H21   1.107429 S    
Cr6   O26   1.978496 S    
C39   H24   1.106006 S    
C18   C19   1.400743 A    
C11   C18   1.403377 A    
C68   O22   1.266378 A    
C2    C24   1.482587 S    
C18   H9    1.084674 S    
C7    C8    1.388040 A    
C35   C39   1.480695 S    
C36   C37   1.389064 A    
C12   C13   1.397463 A    
O19   Cr6   1.954700 S    
C58   C62   1.493903 S    
C51   C56   1.398523 A    
C57   C61   1.420089 A    
C55   H36   1.111882 S    
C53   H32   1.075339 S    
C14   H7    1.054624 S    
C27   C32   1.379249 A    
C19   C24   1.432692 A    
C33   C67   1.462555 S    
O20   Cr4   2.065989 S    
C60   C61   1.395563 A    
C11   C66   1.467076 S    
C41   C69   1.430626 S    
N2    O30   1.300719 A    
O17   Cr5   1.955123 S    
C30   H16   1.108626 S    
O1    Cr1   2.062004 S    
C33   C34   1.407002 A    
O10   Cr2   1.953436 S    
C69   O24   1.261300 A    
Cr1   O13   2.001934 S    
O1    C3    1.305036 A    
C8    C9    1.398947 A    
C62   N2    1.458887 S    
C25   C65   1.431643 S    
C22   C23   1.413235 A    
C25   C29   1.410273 A    
C46   C47   1.517024 S    
C34   C35   1.388587 A    
C21   H11   1.077517 S    
C29   H14   1.082737 S    
C30   C31   1.540021 S    
C42   C46   1.487999 S    
O12   Cr3   1.957513 S    
C7    H4    1.079061 S    
C28   C32   1.411642 A    
C57   C70   1.444534 S    
C36   C40   1.405728 A    
O24   Cr6   2.074635 S    
C10   C16   1.428525 A    
C14   C15   1.393894 A    
C19   C23   1.520095 S    
O7    Cr1   2.066924 S    
C34   C38   1.484520 S    
C7    C17   1.384008 A    
C50   C51   1.359976 A    
O12   C6    1.287008 A    
O6    C3    1.309436 A    
C35   C40   1.375849 A    
C15   C20   1.385282 A    
C44   C45   1.402822 A    
C62   H38   1.100870 S    
O18   Cr6   2.079936 S    
Cr2   O13   1.979526 S    
C52   C53   1.407976 A    
C63   H39   1.111529 S    
C49   C68   1.450204 S    
C61   H37   1.082623 S    
C44   H25   1.082677 S    
C1    O3    1.258639 A    
O20   C70   1.284237 A    
C37   H20   1.080627 S    
C60   C64   1.406460 A    
N2    O29   1.301182 A    
C26   C30   1.483368 S    
C30   H15   1.108231 S    
N1    O28   1.301745 A    
O25   Cr6   1.958348 S    
C26   C27   1.342642 A    
O9    Cr2   2.073093 S    
C12   C24   1.416070 A    
O2    Cr1   1.947457 S    
O10   C5    1.265686 A    
O16   Cr5   2.068845 S    
C44   C48   1.399370 A    
O14   C67   1.275161 A    
C38   C39   1.503969 S    
C39   H23   1.107262 S    
O6    Cr3   1.951158 S    
C59   C63   1.496786 S    
C45   H26   1.083954 S    
C63   H40   1.111069 S    
O11   Cr3   2.071653 S    
C62   C63   1.523266 S    
C2    O5    1.279730 A    
O25   C70   1.262587 A    
O23   C69   1.263021 A    
C54   H34   1.112200 S    
C59   C64   1.405596 A    
C3    C32   1.432462 S    
C11   C13   1.435215 A    
O2    C1    1.282109 A    
C9    C10   1.410779 A    
C52   C56   1.409510 A    
C57   C58   1.382913 A    
C31   H17   1.111639 S    
O5    Cr3   2.079643 S    
C20   H10   1.073804 S    
O14   Cr4   2.065661 S    
C21   C22   1.395653 A    
O7    C6    1.268674 A    
C50   C54   1.486529 S    
C54   C55   1.508087 S    
C15   H3    1.082766 S    
C16   C17   1.395166 A    
C22   H12   1.078478 S    
C33   C37   1.399834 A    
O21   C68   1.282927 A    
C51   C55   1.504836 S    
O21   Cr4   1.945190 S    
O3    Cr2   2.072010 S    
C4    O9    1.258875 A    
O22   Cr5   2.071689 S    
C42   C43   1.372073 A    
C36   H19   1.069523 S    
C16   H8    1.071725 S    
C28   H13   1.074199 S    
C46   H28   1.111684 S    
O15   C65   1.274738 A    
Cr3   O13   1.983380 S    
C43   C48   1.394733 A    
C9    H6    1.071375 S    
C41   C45   1.411380 A    
C5    O11   1.271462 A    
O8    C4    1.282034 A    
C5    C48   1.436738 S    
C4    C64   1.438665 S    
C10   C13   1.543178 S    
