data_mof_unit_26228.cif
_audit_creation_date              2012-12-11T16:47:53-0500
_audit_creation_method            fapswitch 2.2
_symmetry_space_group_name_H-M    P1
_symmetry_Int_Tables_number       1
_space_group_crystal_system       monoclinic
_cell_length_a                    26.201552
_cell_length_b                    7.173135
_cell_length_c                    23.862398
_cell_angle_alpha                 90.0
_cell_angle_beta                  101.60631
_cell_angle_gamma                 90.0
_cell_volume                      4393.17080716

loop_
_atom_site_label
_atom_site_type_symbol
_atom_type_description
_atom_site_fract_x
_atom_site_fract_y
_atom_site_fract_z
_atom_type_partial_charge
O1    O     O_R   0.797620 0.601060 0.203310 -0.547745
O2    O     O_R   0.202380 0.398940 0.796690 -0.547745
O3    O     O_R   0.702380 0.101060 0.296690 -0.547745
O4    O     O_R   0.297620 0.898940 0.703310 -0.547745
O5    O     O_R   0.692070 0.267810 0.186600 -0.537453
O6    O     O_R   0.307930 0.732190 0.813400 -0.537452
O7    O     O_R   0.807930 0.767810 0.313400 -0.537453
O8    O     O_R   0.192070 0.232190 0.686600 -0.537452
C1    C     C_R   0.673788 0.439479 0.171477 0.707571
C2    C     C_R   0.326212 0.560520 0.828523 0.707571
C3    C     C_R   0.826212 0.939479 0.328523 0.707572
C4    C     C_R   0.173788 0.060520 0.671477 0.707571
O9    O     O_R   0.796590 0.271120 0.196480 -0.529241
O10   O     O_R   0.203410 0.728880 0.803520 -0.529241
O11   O     O_R   0.703410 0.771120 0.303520 -0.529242
O12   O     O_R   0.296590 0.228880 0.696480 -0.529241
O13   O     O_R   0.807640 0.104280 0.306650 -0.528617
O14   O     O_R   0.192360 0.895720 0.693350 -0.528617
O15   O     O_R   0.692360 0.604280 0.193350 -0.528617
O16   O     O_R   0.307640 0.395720 0.806650 -0.528617
C5    C     C_R   0.813617 0.439784 0.186020 0.657959
C6    C     C_R   0.186383 0.560216 0.813980 0.657959
C7    C     C_R   0.686383 0.939784 0.313980 0.657960
C8    C     C_R   0.313617 0.060216 0.686020 0.657959
O17   O     O_3   0.753500 0.435660 0.286130 -0.373352
O18   O     O_3   0.246500 0.564340 0.713870 -0.373352
O19   O     O_3   0.746500 0.935660 0.213870 -0.373353
O20   O     O_3   0.253500 0.064340 0.786130 -0.373353
V1    V     V_3+5 0.749350 0.159470 0.243300 1.444037
V2    V     V_3+5 0.250650 0.840530 0.756700 1.444037
V3    V     V_3+5 0.750650 0.659470 0.256700 1.444037
V4    V     V_3+5 0.249350 0.340530 0.743300 1.444037
C9    C     C_R   0.395883 0.921039 0.661453 -0.037480
C10   C     C_R   0.604117 0.078961 0.338547 -0.037479
C11   C     C_R   0.104117 0.421039 0.838547 -0.037479
C12   C     C_R   0.895883 0.578961 0.161453 -0.037479
C13   C     C_R   0.430738 0.909695 0.623620 -0.109144
C14   C     C_R   0.569262 0.090305 0.376380 -0.109143
C15   C     C_R   0.069262 0.409695 0.876380 -0.109144
C16   C     C_R   0.930737 0.590305 0.123620 -0.109144
H1    H     H_    0.463210 0.813415 0.632734 0.153383
H2    H     H_    0.536790 0.186585 0.367266 0.153383
H3    H     H_    0.036790 0.313415 0.867266 0.153383
H4    H     H_    0.963210 0.686585 0.132734 0.153383
C17   C     C_R   0.425696 0.026545 0.575579 0.046804
C18   C     C_R   0.574303 0.973454 0.424421 0.046804
C19   C     C_R   0.074303 0.526545 0.924421 0.046804
C20   C     C_R   0.925696 0.473454 0.075579 0.046804
C21   C     C_R   0.384965 0.157317 0.565744 -0.129876
C22   C     C_R   0.615035 0.842683 0.434256 -0.129877
C23   C     C_R   0.115035 0.657317 0.934256 -0.129877
C24   C     C_R   0.884965 0.342683 0.065744 -0.129877
H5    H     H_    0.379817 0.248822 0.528948 0.111829
H6    H     H_    0.620183 0.751177 0.471052 0.111829
H7    H     H_    0.120183 0.748822 0.971052 0.111829
H8    H     H_    0.879817 0.251177 0.028948 0.111829
C25   C     C_R   0.349535 0.168587 0.602379 -0.133429
C26   C     C_R   0.650464 0.831413 0.397620 -0.133429
C27   C     C_R   0.150464 0.668586 0.897621 -0.133429
C28   C     C_R   0.849535 0.331413 0.102379 -0.133429
H9    H     H_    0.317945 0.268376 0.592796 0.120561
H10   H     H_    0.682055 0.731624 0.407204 0.120561
H11   H     H_    0.182055 0.768376 0.907204 0.120561
H12   H     H_    0.817945 0.231624 0.092796 0.120561
C29   C     C_R   0.353788 0.049839 0.649964 -0.115168
C30   C     C_R   0.646212 0.950161 0.350036 -0.115167
C31   C     C_R   0.146212 0.549839 0.850036 -0.115168
C32   C     C_R   0.853788 0.450161 0.149964 -0.115168
C33   C     C_R   0.482298 0.174498 0.513972 -0.132880
C34   C     C_R   0.517702 0.825502 0.486028 -0.132880
C35   C     C_R   0.017702 0.674498 0.986028 -0.132880
C36   C     C_R   0.982298 0.325502 0.013972 -0.132880
H13   H     H_    0.469860 0.311320 0.524966 0.109702
H14   H     H_    0.530140 0.688680 0.475033 0.109702
H15   H     H_    0.030140 0.811321 0.975033 0.109702
H16   H     H_    0.969860 0.188679 0.024966 0.109702
C37   C     C_R   0.518316 0.161582 0.477992 -0.150385
C38   C     C_R   0.481684 0.838418 0.522008 -0.150385
C39   C     C_R   0.981684 0.661582 0.022008 -0.150384
C40   C     C_R   0.018316 0.338418 0.977992 -0.150385
H17   H     H_    0.532538 0.288912 0.462147 0.109715
H18   H     H_    0.467462 0.711088 0.537853 0.109715
H19   H     H_    0.967462 0.788912 0.037853 0.109715
H20   H     H_    0.032538 0.211088 0.962147 0.109715
C41   C     C_R   0.536489 0.986910 0.463488 0.089364
C42   C     C_R   0.463511 0.013090 0.536512 0.089364
C43   C     C_R   0.963511 0.486910 0.036512 0.089364
C44   C     C_R   0.036489 0.513090 0.963488 0.089364
C45   C     C_3   0.965310 0.889155 0.519443 -0.201918
C46   C     C_3   0.034689 0.110845 0.480557 -0.201918
C47   C     C_3   0.534689 0.389155 0.980557 -0.201918
C48   C     C_3   0.465311 0.610845 0.019443 -0.201918
C49   C     C_3   0.986024 0.079786 0.545126 -0.048763
C50   C     C_3   0.013976 0.920214 0.454874 -0.048763
C51   C     C_3   0.513976 0.579786 0.954874 -0.048763
C52   C     C_3   0.486024 0.420214 0.045125 -0.048763
H21   H     H_    0.937250 0.797418 0.535459 0.145008
H22   H     H_    0.062750 0.202581 0.464541 0.145008
H23   H     H_    0.562750 0.297418 0.964541 0.145008
H24   H     H_    0.437250 0.702581 0.035459 0.145008
C53   C     C_1   0.128023 0.052279 0.625591 -0.144331
C54   C     C_1   0.871977 0.947721 0.374409 -0.144331
C55   C     C_1   0.371977 0.552279 0.874409 -0.144331
C56   C     C_1   0.628023 0.447721 0.125591 -0.144331
C57   C     C_3   0.021998 0.836013 0.515501 -0.030309
C58   C     C_3   0.978002 0.163987 0.484499 -0.030309
C59   C     C_3   0.478002 0.336013 0.984499 -0.030309
C60   C     C_3   0.521998 0.663987 0.015501 -0.030309
C61   C     C_3   0.042256 0.025109 0.541411 0.068225
C62   C     C_3   0.957744 0.974891 0.458589 0.068225
C63   C     C_3   0.457744 0.525109 0.958589 0.068225
C64   C     C_3   0.542256 0.474891 0.041411 0.068225
C65   C     C_1   0.089499 0.042985 0.587531 0.047154
C66   C     C_1   0.910501 0.957015 0.412469 0.047154
C67   C     C_1   0.410501 0.542984 0.912469 0.047154
C68   C     C_1   0.589499 0.457015 0.087531 0.047154
C69   C     C_2   0.406156 0.805206 0.714210 0.431958
H25   H     H_    0.388498 0.839417 0.750257 0.066785
O21   O     O_2   0.435320 0.670850 0.718458 -0.509942
C70   C     C_2   0.593844 0.194794 0.285790 0.431958
H26   H     H_    0.611502 0.160583 0.249743 0.066785
O22   O     O_2   0.564680 0.329150 0.281542 -0.509942
C71   C     C_2   0.093844 0.305206 0.785790 0.431958
H27   H     H_    0.111502 0.339417 0.749743 0.066785
O23   O     O_2   0.064680 0.170851 0.781542 -0.509942
C72   C     C_2   0.906156 0.694794 0.214210 0.431958
H28   H     H_    0.888498 0.660583 0.250257 0.066785
O24   O     O_2   0.935320 0.829150 0.218457 -0.509942
C73   C     C_2   0.968531 0.169969 0.594636 0.497756
H29   H     H_    0.927691 0.203541 0.591414 -0.002906
O25   O     O_2   0.999780 0.205985 0.638511 -0.482944
C74   C     C_2   0.031468 0.830031 0.405364 0.497755
H30   H     H_    0.072309 0.796459 0.408586 -0.002906
O26   O     O_2   0.000220 0.794015 0.361489 -0.482944
C75   C     C_2   0.531469 0.669968 0.905364 0.497756
H31   H     H_    0.572309 0.703541 0.908586 -0.002906
O27   O     O_2   0.500220 0.705985 0.861489 -0.482944
C76   C     C_2   0.468531 0.330031 0.094636 0.497756
H32   H     H_    0.427691 0.296459 0.091414 -0.002906
O28   O     O_2   0.499780 0.294015 0.138511 -0.482944
C77   C     C_2   0.951471 0.345091 0.465989 0.449809
H33   H     H_    0.914602 0.378039 0.477704 0.002294
O29   O     O_2   0.970647 0.454381 0.436960 -0.514033
C78   C     C_2   0.048529 0.654909 0.534011 0.449809
H34   H     H_    0.085398 0.621961 0.522296 0.002294
O30   O     O_2   0.029353 0.545619 0.563040 -0.514033
C79   C     C_2   0.548529 0.845091 0.034011 0.449810
H35   H     H_    0.585398 0.878039 0.022295 0.002294
O31   O     O_2   0.529353 0.954381 0.063040 -0.514033
C80   C     C_2   0.451471 0.154909 0.965989 0.449811
H36   H     H_    0.414602 0.121960 0.977704 0.002294
O32   O     O_2   0.470647 0.045619 0.936960 -0.514033

loop_
_geom_bond_atom_site_label_1
_geom_bond_atom_site_label_2
_ccdc_geom_bond_type
C26   H10   S    
C39   H19   S    
C50   C57   S    
O1    C5    A    
C72   H28   S    
C34   C38   A    
C53   C65   T    
C33   C37   A    
C79   H35   S    
C48   C52   S    
C36   H16   S    
O15   V3    S    
C10   C30   A    
C57   C78   S    
C35   C39   A    
C9    C29   A    
C71   H27   S    
O7    C3    A    
C52   C64   S    
C26   C30   A    
C22   H6    S    
C7    C30   S    
O9    V1    S    
C2    C55   S    
C79   O31   D    
C14   H2    S    
C69   O21   D    
C52   C76   S    
C11   C15   A    
O4    C8    A    
C71   O23   D    
O19   V1    S    
O1    V3    S    
C36   C40   A    
O13   V1    S    
O2    V4    S    
O3    V1    S    
C16   C20   A    
C34   H14   S    
C12   C16   A    
C24   C28   A    
C27   C31   A    
C56   C68   T    
C59   C80   S    
O3    C7    A    
C1    O15   A    
C70   O22   D    
C74   H30   S    
O2    C6    A    
C33   H13   S    
O14   V2    S    
C11   C31   A    
C62   C66   S    
C16   H4    S    
C61   C65   S    
C18   C41   S    
C38   C42   A    
O11   C7    A    
C37   C41   A    
O12   C8    A    
C45   C49   S    
O10   V2    S    
C49   C73   S    
C39   C43   A    
C48   C60   S    
C46   C50   S    
O5    V1    S    
C10   C70   S    
C9    C69   S    
O7    V3    S    
C40   H20   S    
O8    V4    S    
C47   C59   S    
C75   H31   S    
C46   C58   S    
C78   O30   D    
C76   H32   S    
C2    O16   A    
O18   V4    S    
C19   C23   A    
C45   C62   S    
C50   C62   S    
C9    C13   A    
C60   C64   S    
C45   H21   S    
C22   C26   A    
C47   C64   S    
C55   C67   T    
O5    C1    A    
C54   C66   T    
C49   C58   S    
C38   H18   S    
C17   C21   A    
O8    C4    A    
C51   C75   S    
C20   C43   S    
O9    C5    A    
O11   V3    S    
C76   O28   D    
C8    C29   S    
C74   O26   D    
O6    V2    S    
C52   C59   S    
C5    C32   S    
C80   O32   D    
C23   C27   A    
C4    O14   A    
C64   C68   S    
C36   C43   A    
C70   H26   S    
C48   H24   S    
C58   C77   S    
C15   C19   A    
C73   H29   S    
O16   V4    S    
C75   O27   D    
C57   C61   S    
C3    O13   A    
C72   O24   D    
C10   C14   A    
C59   C63   S    
O17   V3    S    
C12   C72   S    
C25   C29   A    
C78   H34   S    
O6    C2    A    
C21   C25   A    
C15   H3    S    
C12   C32   A    
C48   C63   S    
C25   H9    S    
O12   V4    S    
C18   C22   A    
C27   H11   S    
C28   H12   S    
C19   C44   S    
C60   C79   S    
C77   O29   D    
C17   C42   S    
C4    C53   S    
C40   C44   A    
C51   C63   S    
C69   H25   S    
C35   H15   S    
O10   C6    A    
C1    C56   S    
C21   H5    S    
C11   C71   S    
O20   V2    S    
C3    C54   S    
C23   H7    S    
C13   H1    S    
C50   C74   S    
C6    C31   S    
C14   C18   A    
C51   C60   S    
C47   C51   S    
C35   C44   A    
C20   C24   A    
C28   C32   A    
C58   C62   S    
C37   H17   S    
C45   C57   S    
C80   H36   S    
C63   C67   S    
C46   C61   S    
C47   H23   S    
C77   H33   S    
C34   C41   A    
C13   C17   A    
C46   H22   S    
O4    V2    S    
C33   C42   A    
C24   H8    S    
C49   C61   S    
C73   O25   D    
