data_mof_unit_7463.cif
_audit_creation_date              2012-12-10T16:57:44-0500
_audit_creation_method            fapswitch 2.2
_symmetry_space_group_name_H-M    P1
_symmetry_Int_Tables_number       1
_space_group_crystal_system       triclinic
_cell_length_a                    7.834646
_cell_length_b                    8.563109
_cell_length_c                    19.004778
_cell_angle_alpha                 92.194124
_cell_angle_beta                  84.792558
_cell_angle_gamma                 93.430549
_cell_volume                      1266.7800115

loop_
_atom_site_label
_atom_site_type_symbol
_atom_type_description
_atom_site_fract_x
_atom_site_fract_y
_atom_site_fract_z
_atom_type_partial_charge
Br1   Br    Br    0.040230 0.306284 0.416569 -0.418167
Br2   Br    Br    0.960248 0.695142 0.582783 -0.428206
C1    C     C_R   0.545352 0.794434 0.498264 0.961213
C2    C     C_R   0.668435 0.574667 0.178012 -0.158374
C3    C     C_R   0.520113 0.607162 0.854200 0.083981
C4    C     C_R   0.517711 0.606928 0.148092 0.085881
C5    C     C_R   0.669220 0.567123 0.812500 -0.158037
C6    C     C_R   0.360137 0.600299 0.189661 -0.160251
C7    C     C_R   0.661928 0.527863 0.741309 -0.157495
C8    C     C_R   0.353378 0.561245 0.260067 -0.166024
C9    C     C_R   0.505760 0.529246 0.710789 -0.033095
C10   C     C_R   0.504171 0.528867 0.289846 -0.031777
C11   C     C_R   0.522818 0.633180 0.072455 0.295198
C12   C     C_R   0.454648 0.205567 0.501734 0.965695
C13   C     C_R   0.524157 0.633332 0.930409 0.294604
C14   C     C_2   0.569287 0.957859 0.497239 -0.354828
C15   C     C_2   0.430712 0.042131 0.502737 -0.357854
C16   C     C_R   0.500969 0.503691 0.634722 0.852159
C17   C     C_R   0.500199 0.503222 0.365344 0.856725
C18   C     C_R   0.356723 0.569286 0.752439 -0.179118
C19   C     C_R   0.661635 0.535461 0.248319 -0.179021
C20   C     C_R   0.363924 0.608294 0.823599 -0.158836
H1    H     H_    0.234772 0.572600 0.730003 0.175797
H2    H     H_    0.299569 0.991697 0.508004 0.211881
H3    H     H_    0.780173 0.512366 0.270236 0.173385
H4    H     H_    0.246703 0.637761 0.854623 0.156009
H5    H     H_    0.791605 0.577954 0.147067 0.154768
H6    H     H_    0.791197 0.563964 0.834893 0.151822
H7    H     H_    0.241648 0.623516 0.167765 0.152236
H8    H     H_    0.778837 0.497915 0.710197 0.181727
H9    H     H_    0.230473 0.558252 0.291232 0.178891
H10   H     H_    0.700431 0.008288 0.491969 0.211691
N1    N     N_R   0.672450 0.622413 0.960985 -0.173185
N2    N     N_R   0.375637 0.650491 0.041951 -0.172288
N3    N     N_R   0.671780 0.622378 0.030795 -0.171185
N4    N     N_R   0.376317 0.650594 0.972137 -0.170708
N5    N     N_2   0.950330 0.457950 0.481240 0.079236
N6    N     N_2   0.049670 0.542050 0.518760 0.078650
O1    O     O_R   0.389250 0.738570 0.504600 -0.600948
O2    O     O_R   0.610750 0.261430 0.495400 -0.599204
O3    O     O_R   0.678400 0.711620 0.492580 -0.587834
O4    O     O_R   0.321600 0.288380 0.507420 -0.586307
O5    O     O_R   0.355380 0.513500 0.607880 -0.610370
O6    O     O_R   0.644620 0.486500 0.392120 -0.609829
O7    O     O_R   0.644530 0.486550 0.595850 -0.596044
O8    O     O_R   0.355470 0.513450 0.404150 -0.595802
Zn1   Zn    Zn3+2 0.306930 0.517990 0.508030 1.056271
Zn2   Zn    Zn3+2 0.693070 0.482010 0.491970 1.056967

loop_
_geom_bond_atom_site_label_1
_geom_bond_atom_site_label_2
_ccdc_geom_bond_type
C1    C14   S    
C9    C16   S    
N5    N6    D    
C14   H10   S    
C3    C5    A    
Br2   N6    S    
C18   H1    S    
Br1   N5    S    
C12   O4    A    
C17   O8    A    
C1    O1    A    
C11   N2    A    
C16   O5    A    
N5    Zn2   S    
C2    C19   A    
C7    C9    A    
C12   C15   S    
N6    Zn1   S    
C8    C10   A    
C7    H8    S    
C6    H7    S    
C10   C19   A    
C10   C17   S    
O1    Zn1   S    
N1    N3    A    
O3    Zn2   S    
C18   C20   A    
C11   N3    A    
N2    N4    A    
O4    Zn1   S    
C9    C18   A    
C3    C13   S    
C15   H2    S    
C3    C20   A    
C12   O2    A    
C16   O7    A    
C13   N4    A    
C2    H5    S    
C17   O6    A    
C2    C4    A    
C20   H4    S    
O7    Zn2   S    
C5    C7    A    
C19   H3    S    
O2    Zn2   S    
C1    O3    A    
C4    C6    A    
O8    Zn1   S    
O5    Zn1   S    
C8    H9    S    
C13   N1    A    
C6    C8    A    
C5    H6    S    
O6    Zn2   S    
C14   C15   D    
C4    C11   S    
