data_mof_unit_40423.cif
_audit_creation_date              2012-12-11T16:12:44-0500
_audit_creation_method            fapswitch 2.2
_symmetry_space_group_name_H-M    P1
_symmetry_Int_Tables_number       1
_space_group_crystal_system       triclinic
_cell_length_a                    7.264129
_cell_length_b                    20.781895
_cell_length_c                    23.775949
_cell_angle_alpha                 89.999368
_cell_angle_beta                  90.022179
_cell_angle_gamma                 89.979501
_cell_volume                      3589.27301951

loop_
_atom_site_label
_atom_site_type_symbol
_atom_type_description
_atom_site_fract_x
_atom_site_fract_y
_atom_site_fract_z
_atom_type_partial_charge
O1    O     O_R   0.615270 0.806540 0.192260 -0.518264
O2    O     O_R   0.384730 0.193460 0.807740 -0.529579
O3    O     O_R   0.384730 0.193460 0.692260 -0.519093
O4    O     O_R   0.615270 0.806540 0.307740 -0.529135
O5    O     O_R   0.115270 0.693460 0.307740 -0.518306
O6    O     O_R   0.884730 0.306540 0.692260 -0.529682
O7    O     O_R   0.884730 0.306540 0.807740 -0.518057
O8    O     O_R   0.115270 0.693460 0.192260 -0.529802
O9    O     O_R   0.285500 0.813970 0.307340 -0.537072
O10   O     O_R   0.714500 0.186030 0.692660 -0.528518
O11   O     O_R   0.714500 0.186030 0.807340 -0.536707
O12   O     O_R   0.285500 0.813970 0.192660 -0.528191
O13   O     O_R   0.785500 0.686030 0.192660 -0.535341
O14   O     O_R   0.214500 0.313970 0.807340 -0.528183
O15   O     O_R   0.214500 0.313970 0.692660 -0.535339
O16   O     O_R   0.785500 0.686030 0.307340 -0.528068
C1    C     C_R   0.451913 0.828630 0.326246 0.706259
C2    C     C_R   0.548095 0.171384 0.673739 0.705411
C3    C     C_R   0.548105 0.171379 0.826258 0.706841
C4    C     C_R   0.451900 0.828619 0.173732 0.704239
C5    C     C_R   0.951904 0.671371 0.173753 0.707845
C6    C     C_R   0.048092 0.328608 0.826268 0.704572
C7    C     C_R   0.048003 0.328621 0.673751 0.708113
C8    C     C_R   0.952003 0.671388 0.326262 0.705071
O17   O     O_3   0.448760 0.710460 0.250000 -0.376333
O18   O     O_3   0.551240 0.289540 0.750000 -0.376063
O19   O     O_3   0.948760 0.789540 0.250000 -0.377260
O20   O     O_3   0.051240 0.210460 0.750000 -0.377593
V1    V     V_3+5 0.173900 0.757330 0.250000 1.632496
V2    V     V_3+5 0.826100 0.242670 0.750000 1.633371
V3    V     V_3+5 0.673900 0.742670 0.250000 1.635535
V4    V     V_3+5 0.326100 0.257330 0.750000 1.635903
C9    C     C_3   0.100714 0.531097 0.540472 0.184126
C10   C     C_3   0.902166 0.470544 0.460879 0.297978
C11   C     C_3   0.899524 0.469077 0.040203 0.172048
C12   C     C_3   0.097722 0.529927 0.960672 0.269590
C13   C     C_3   0.599603 0.968947 0.959581 0.174335
C14   C     C_3   0.402618 0.029800 0.039431 0.290996
C15   C     C_3   0.401249 0.030718 0.460006 0.269769
C16   C     C_3   0.599371 0.970009 0.539422 0.289191
C17   C     C_3   0.906923 0.551954 0.521254 0.134596
C18   C     C_3   0.095554 0.450201 0.480257 0.292718
C19   C     C_3   0.093748 0.448731 0.021105 0.241922
C20   C     C_3   0.903884 0.549971 0.979932 0.293004
C21   C     C_3   0.405365 0.948794 0.978764 0.149920
C22   C     C_3   0.596278 0.049794 0.020056 0.297417
C23   C     C_3   0.595525 0.051138 0.478878 0.139788
C24   C     C_3   0.405198 0.949995 0.520330 0.269948
C25   C     C_1   0.949268 0.625628 0.372323 -0.006720
C26   C     C_1   0.050841 0.374681 0.627937 -0.044959
C27   C     C_1   0.051257 0.374405 0.872305 -0.006611
C28   C     C_1   0.948629 0.625353 0.127898 -0.051872
C29   C     C_1   0.448810 0.874409 0.127679 -0.007566
C30   C     C_1   0.551266 0.125371 0.872128 -0.050354
C31   C     C_1   0.551444 0.125561 0.627726 -0.011691
C32   C     C_1   0.448678 0.874620 0.372120 -0.050588
C33   C     C_3   0.159953 0.521613 0.478088 0.188963
C34   C     C_3   0.841118 0.480018 0.523121 0.218896
C35   C     C_3   0.840755 0.478383 0.977696 0.180380
C36   C     C_3   0.158088 0.520660 0.022975 0.256054
C37   C     C_3   0.659156 0.978141 0.022041 0.186890
C38   C     C_3   0.341415 0.020844 0.977192 0.235867
C39   C     C_3   0.343087 0.021690 0.522385 0.219385
C40   C     C_3   0.659446 0.978973 0.477053 0.226459
C41   C     C_3   0.965227 0.541758 0.458983 -0.285000
C42   C     C_3   0.036437 0.459839 0.542251 -0.271785
C43   C     C_3   0.035970 0.458520 0.958764 -0.317307
C44   C     C_3   0.962527 0.540449 0.042025 -0.289642
C45   C     C_3   0.464064 0.958411 0.041090 -0.282569
C46   C     C_3   0.536995 0.040461 0.957986 -0.283038
C47   C     C_3   0.538039 0.041443 0.541225 -0.294843
C48   C     C_3   0.463276 0.959278 0.458112 -0.311920
C49   C     C_1   0.945158 0.587688 0.411214 0.361646
C50   C     C_1   0.055501 0.413117 0.589436 0.357854
C51   C     C_1   0.055890 0.412421 0.911139 0.365509
C52   C     C_1   0.943469 0.587009 0.089324 0.353419
C53   C     C_1   0.444286 0.912390 0.088810 0.365761
C54   C     C_1   0.556164 0.087022 0.910701 0.348025
C55   C     C_1   0.556834 0.087521 0.588921 0.362808
C56   C     C_1   0.443711 0.912911 0.410731 0.349460
S1    S     S_3+6 0.813404 0.628530 0.544168 0.194481
O21   O     O_2   0.967353 0.676072 0.550857 -0.225015
O22   O     O_2   0.681689 0.656100 0.501840 -0.264070
O23   O     O_3   0.707723 0.620581 0.606591 -0.364351
H1    H     H_    0.665945 0.575391 0.607799 0.401338
S2    S     S_3+6 0.203247 0.377513 0.455183 0.232610
O24   O     O_2   0.340564 0.351814 0.496543 -0.212450
O25   O     O_2   0.058680 0.326717 0.446724 -0.255402
O26   O     O_3   0.307915 0.392592 0.393571 -0.390144
H2    H     H_    0.319750 0.350120 0.375020 0.395435
S3    S     S_3+6 0.195362 0.374535 0.046049 0.157399
O27   O     O_2   0.047415 0.326295 0.058907 -0.259853
O28   O     O_2   0.319657 0.344935 0.002693 -0.276998
O29   O     O_3   0.314274 0.390162 0.105098 -0.394478
H3    H     H_    0.326269 0.348118 0.124378 0.421119
S4    S     S_3+6 0.795626 0.622558 0.954762 0.241777
O30   O     O_2   0.657727 0.648158 0.995961 -0.216805
O31   O     O_2   0.939806 0.673514 0.946462 -0.244399
O32   O     O_3   0.691634 0.607409 0.893033 -0.386014
H4    H     H_    0.679139 0.649902 0.874556 0.408156
S5    S     S_3+6 0.302477 0.874154 0.955041 0.181332
O33   O     O_2   0.448113 0.826416 0.938886 -0.212735
O34   O     O_2   0.190237 0.844152 0.001159 -0.265742
O35   O     O_3   0.167326 0.887705 0.898997 -0.392039
H5    H     H_    0.230779 0.921382 0.876977 0.407386
S6    S     S_3+6 0.703751 0.122364 0.045598 0.232481
O36   O     O_2   0.839794 0.148908 0.004299 -0.216376
O37   O     O_2   0.558854 0.172894 0.054813 -0.257386
O38   O     O_3   0.809795 0.106633 0.106891 -0.389809
H6    H     H_    0.820994 0.148849 0.125916 0.399038
S7    S     S_3+6 0.694296 0.126418 0.454959 0.198074
O39   O     O_2   0.545007 0.174313 0.442542 -0.220069
O40   O     O_2   0.815049 0.155494 0.499504 -0.237596
O41   O     O_3   0.817995 0.114479 0.396201 -0.408124
H7    H     H_    0.761722 0.076734 0.377636 0.398696
S8    S     S_3+6 0.297399 0.877926 0.546690 0.242377
O42   O     O_2   0.160401 0.851019 0.505832 -0.213224
O43   O     O_2   0.441763 0.827306 0.556308 -0.240279
O44   O     O_3   0.192551 0.894774 0.607924 -0.391501
H8    H     H_    0.180202 0.852823 0.627323 0.406510
S9    S     S_3+6 0.214828 0.566953 0.600152 0.195841
O45   O     O_2   0.072925 0.585734 0.643041 -0.207301
O46   O     O_2   0.342115 0.519428 0.627250 -0.271412
O47   O     O_3   0.334540 0.632921 0.581900 -0.386341
H9    H     H_    0.302116 0.641651 0.542323 0.394090
S10   S     S_3+6 0.788894 0.431352 0.403037 0.226763
O48   O     O_2   0.652531 0.475228 0.375534 -0.215642
O49   O     O_2   0.929473 0.412949 0.359559 -0.267321
O50   O     O_3   0.681936 0.364857 0.426434 -0.376635
H10   H     H_    0.674524 0.335867 0.393449 0.404374
S11   S     S_3+6 0.787043 0.432241 0.099692 0.211608
O51   O     O_2   0.929144 0.418108 0.143925 -0.220068
O52   O     O_2   0.648189 0.476956 0.124925 -0.236401
O53   O     O_3   0.682573 0.362996 0.081859 -0.397043
H11   H     H_    0.704184 0.357645 0.041148 0.390954
S12   S     S_3+6 0.211393 0.569492 0.903143 0.235516
O54   O     O_2   0.348428 0.525888 0.875653 -0.213188
O55   O     O_2   0.071273 0.588027 0.859537 -0.255505
O56   O     O_3   0.317543 0.635930 0.927032 -0.377426
H12   H     H_    0.325670 0.665064 0.894162 0.412423
S13   S     S_3+6 0.711558 0.932333 0.899893 0.203148
O57   O     O_2   0.572048 0.923761 0.853893 -0.246703
O58   O     O_2   0.861665 0.974464 0.877545 -0.252540
O59   O     O_3   0.799074 0.859727 0.915965 -0.357361
H13   H     H_    0.831201 0.861980 0.956238 0.393436
S14   S     S_3+6 0.289116 0.068738 0.097369 0.221818
O60   O     O_2   0.151695 0.024917 0.124390 -0.217140
O61   O     O_2   0.429472 0.086473 0.141151 -0.270331
O62   O     O_3   0.183330 0.135642 0.074272 -0.378678
H14   H     H_    0.175353 0.164268 0.107486 0.400020
S15   S     S_3+6 0.280579 0.069836 0.403495 0.162719
O63   O     O_2   0.414626 0.086922 0.357766 -0.282800
O64   O     O_2   0.137100 0.026720 0.378572 -0.263754
O65   O     O_3   0.181007 0.137268 0.428028 -0.392303
H15   H     H_    0.169526 0.166013 0.394980 0.426134
S16   S     S_3+6 0.714895 0.931237 0.597069 0.231137
O66   O     O_2   0.855193 0.974835 0.623004 -0.217753
O67   O     O_2   0.576334 0.914478 0.641642 -0.260893
O68   O     O_3   0.817487 0.863716 0.574022 -0.373485
H16   H     H_    0.828025 0.835670 0.607548 0.412933
S17   S     S_3+6 0.660926 0.437680 0.560012 0.097647
O69   O     O_2   0.472914 0.455316 0.540248 -0.283198
O70   O     O_2   0.688001 0.366677 0.551078 -0.264824
O71   O     O_3   0.677935 0.453549 0.629196 -0.491657
H17   H     H_    0.607506 0.418866 0.647995 0.373646
S18   S     S_3+6 0.339076 0.558588 0.437611 0.133215
O72   O     O_2   0.328561 0.534342 0.378191 -0.235089
O73   O     O_2   0.316029 0.630477 0.437056 -0.328861
O74   O     O_3   0.542654 0.542041 0.464776 -0.428507
H18   H     H_    0.527442 0.556606 0.503943 0.376829
S19   S     S_3+6 0.338318 0.561966 0.060573 0.140553
O75   O     O_2   0.526204 0.545337 0.040093 -0.276496
O76   O     O_2   0.310693 0.633247 0.053680 -0.279378
O77   O     O_3   0.321507 0.543137 0.129186 -0.448041
H19   H     H_    0.388375 0.577804 0.149199 0.367722
S20   S     S_3+6 0.661653 0.441666 0.937003 0.134204
O78   O     O_2   0.672271 0.466119 0.877651 -0.232979
O79   O     O_2   0.683941 0.369752 0.936278 -0.331223
O80   O     O_3   0.458530 0.458449 0.964261 -0.429092
H20   H     H_    0.475131 0.444372 0.003497 0.393512
S21   S     S_3+6 0.161290 0.063632 0.940746 0.111368
O81   O     O_2   0.973704 0.046303 0.961008 -0.276941
O82   O     O_2   0.189646 0.134566 0.949680 -0.268349
O83   O     O_3   0.176378 0.047777 0.871533 -0.490825
H21   H     H_    0.103093 0.081931 0.852972 0.371211
S22   S     S_3+6 0.838126 0.940929 0.062455 0.130446
O84   O     O_2   0.827330 0.964592 0.122053 -0.238540
O85   O     O_2   0.815531 0.869021 0.062371 -0.327890
O86   O     O_3   0.041485 0.958055 0.035556 -0.427536
H22   H     H_    0.025724 0.944254 0.996226 0.382620
S23   S     S_3+6 0.839100 0.935825 0.440615 0.112119
O87   O     O_2   0.027087 0.952606 0.460942 -0.275980
O88   O     O_2   0.809507 0.864941 0.449479 -0.265489
O89   O     O_3   0.824575 0.951738 0.371399 -0.494556
H23   H     H_    0.898765 0.917783 0.352913 0.370755
S24   S     S_3+6 0.163149 0.061070 0.560513 0.175698
O90   O     O_2   0.171588 0.041298 0.621229 -0.253428
O91   O     O_2   0.186802 0.132811 0.556680 -0.279049
O92   O     O_3   0.960648 0.042321 0.533806 -0.426921
H24   H     H_    0.975681 0.055519 0.494266 0.407736

loop_
_geom_bond_atom_site_label_1
_geom_bond_atom_site_label_2
_ccdc_geom_bond_type
O17   V3    S    
S18   O73   D    
S19   O75   D    
O18   V4    S    
S10   O48   D    
C16   C47   S    
O12   V1    S    
O19   V1    S    
O74   H18   S    
C45   C53   S    
S7    O39   D    
C10   C18   S    
S11   O53   S    
C40   S23   S    
C47   C55   S    
S1    O21   D    
C12   C43   S    
O15   V4    S    
S11   O52   D    
S21   O81   D    
S8    O42   D    
O16   V3    S    
S19   O76   D    
O11   C3    A    
S5    O33   D    
C13   S13   S    
O8    V1    S    
C11   C35   S    
O71   H17   S    
C27   C51   T    
C17   C34   S    
S14   O60   D    
S13   O58   D    
S2    O25   D    
S24   O90   D    
C6    C27   S    
C46   C54   S    
S6    O36   D    
C20   C35   S    
C42   C50   S    
S4    O32   S    
C15   S15   S    
C21   C38   S    
O1    V3    S    
C41   C49   S    
O83   H21   S    
C10   C41   S    
O3    C2    A    
O2    V4    S    
S15   O65   S    
O77   H19   S    
C14   S14   S    
S9    O47   S    
C35   C43   S    
S13   O57   D    
C34   C42   S    
S20   O80   S    
O32   H4    S    
O11   V2    S    
S4    O31   D    
C9    C33   S    
C15   C48   S    
C18   S2    S    
S9    O46   D    
C11   C19   S    
O5    V1    S    
O9    V1    S    
C24   S8    S    
O15   C7    A    
S20   O79   D    
O89   H23   S    
C14   C45   S    
O92   H24   S    
O16   C8    A    
O7    V2    S    
C13   C46   S    
C9    S9    S    
C38   C46   S    
O29   H3    S    
C24   C48   S    
S12   O56   S    
C12   S12   S    
C18   C33   S    
O35   H5    S    
S17   O70   D    
C9    C42   S    
S17   O69   D    
S14   O61   D    
S21   O82   D    
O17   V1    S    
S19   O77   S    
C22   C46   S    
C22   C37   S    
O19   V3    S    
S23   O87   D    
O20   V4    S    
C18   C42   S    
O23   H1    S    
S24   O91   D    
C35   S20   S    
S13   O59   S    
O14   V4    S    
S3    O27   D    
S2    O24   D    
C4    C29   S    
C7    C26   S    
C17   C41   S    
C33   S18   S    
S10   O50   S    
C28   C52   T    
C21   C45   S    
C19   S3    S    
C24   C39   S    
C29   C53   T    
S23   O88   D    
C19   C43   S    
C20   S4    S    
S3    O28   D    
S14   O62   S    
C31   C55   T    
O10   V2    S    
O68   H16   S    
C10   S10   S    
C17   S1    S    
S4    O30   D    
O12   C4    A    
O8    C5    A    
O65   H15   S    
O13   C5    A    
O86   H22   S    
S7    O40   D    
O44   H8    S    
C1    C32   S    
C23   C47   S    
S9    O45   D    
C21   S5    S    
C2    C31   S    
O4    C1    A    
C19   C36   S    
C3    C30   S    
O9    C1    A    
S20   O78   D    
O6    V2    S    
C39   C47   S    
O18   V2    S    
S5    O35   S    
S18   O72   D    
C25   C49   T    
C12   C20   S    
C43   C51   S    
S22   O85   D    
S11   O51   D    
C11   S11   S    
C23   C40   S    
S17   O71   S    
S12   O55   D    
C15   C23   S    
O50   H10   S    
S21   O83   S    
C37   C45   S    
C8    C25   S    
C16   C24   S    
S16   O66   D    
O1    C4    A    
S10   O49   D    
S24   O92   S    
O2    C3    A    
C39   S24   S    
C36   S19   S    
O13   V3    S    
S16   O68   S    
C33   C41   S    
S12   O54   D    
C12   C36   S    
S2    O26   S    
C16   C40   S    
S1    O22   D    
C13   C37   S    
O56   H12   S    
O41   H7    S    
O53   H11   S    
C44   C52   S    
O7    C6    A    
C15   C39   S    
C32   C56   T    
S8    O44   S    
O59   H13   S    
C9    C17   S    
O14   C6    A    
S22   O86   S    
C26   C50   T    
S22   O84   D    
S23   O89   S    
O20   V2    S    
C48   C56   S    
O62   H14   S    
S3    O29   S    
O5    C8    A    
S6    O37   D    
C11   C44   S    
O10   C2    A    
C23   S7    S    
O6    C7    A    
C22   S6    S    
S16   O67   D    
C37   S22   S    
S8    O43   D    
S7    O41   S    
S15   O64   D    
O3    V4    S    
C14   C22   S    
O4    V3    S    
C20   C44   S    
O80   H20   S    
C36   C44   S    
S18   O74   S    
S5    O34   D    
C10   C34   S    
S1    O23   S    
C16   S16   S    
C30   C54   T    
O26   H2    S    
O38   H6    S    
C34   S17   S    
C13   C21   S    
S15   O63   D    
C5    C28   S    
C40   C48   S    
O47   H9    S    
C14   C38   S    
S6    O38   S    
C38   S21   S    
