data_mof_unit_64314.cif
_audit_creation_date              2012-12-10T17:26:13-0500
_audit_creation_method            fapswitch 2.2
_symmetry_space_group_name_H-M    P1
_symmetry_Int_Tables_number       1
_space_group_crystal_system       triclinic
_cell_length_a                    38.583684
_cell_length_b                    21.75597
_cell_length_c                    21.7278
_cell_angle_alpha                 90.0
_cell_angle_beta                  124.491479
_cell_angle_gamma                 89.999939
_cell_volume                      15032.6655942

loop_
_atom_site_label
_atom_site_type_symbol
_atom_type_description
_atom_site_fract_x
_atom_site_fract_y
_atom_site_fract_z
_atom_type_partial_charge
C1    C     C_R   0.000107 0.000032 0.619914 0.865094
C2    C     C_3   0.236264 0.969004 0.785420 -0.215380
C3    C     C_R   0.000159 0.000854 0.120420 0.916016
C4    C     C_R   0.499841 0.500854 0.879580 0.916017
C5    C     C_R   0.500159 0.500854 0.120420 0.916016
C6    C     C_R   0.000000 0.879319 1.000000 1.001258
C7    C     C_R   0.500000 0.379319 1.000000 1.001258
C8    C     C_R   0.571426 0.184869 0.028082 -0.144297
C9    C     C_R   0.428574 0.184870 0.971918 -0.144294
C10   C     C_R   0.071426 0.684869 0.028082 -0.144297
C11   C     C_R   0.928574 0.684870 0.971918 -0.144294
C12   C     C_R   0.602429 0.215041 0.025922 -0.215933
C13   C     C_3   0.263735 0.469283 0.214406 -0.215384
C14   C     C_R   0.397571 0.215042 0.974078 -0.215924
C15   C     C_R   0.102429 0.715041 0.025922 -0.215933
C16   C     C_R   0.897571 0.715042 0.974078 -0.215924
C17   C     C_R   0.095618 0.774968 0.999806 -0.154290
C18   C     C_R   0.904382 0.774969 0.000194 -0.154294
C19   C     C_R   0.595618 0.274968 0.999806 -0.154290
C20   C     C_R   0.404382 0.274969 0.000194 -0.154294
C21   C     C_R   0.059514 0.806639 0.982023 0.401755
C22   C     C_R   0.940487 0.806639 0.017978 0.401751
C23   C     C_R   0.559514 0.306639 0.982023 0.401755
C24   C     C_3   0.736264 0.469004 0.785420 -0.215380
C25   C     C_R   0.440487 0.306639 0.017978 0.401751
C26   C     C_R   0.031268 0.779867 0.997108 -0.010594
C27   C     C_R   0.968732 0.779867 0.002893 -0.010594
C28   C     C_R   0.531268 0.279867 0.997108 -0.010594
C29   C     C_R   0.468732 0.279867 0.002893 -0.010594
C30   C     C_3   0.764002 0.972800 0.315087 0.447516
C31   C     C_3   0.235997 0.973085 0.684761 0.447516
C32   C     C_3   0.264002 0.472800 0.315087 0.447516
C33   C     C_3   0.735997 0.473085 0.684761 0.447516
C34   C     C_R   0.534570 0.216291 0.009752 0.036809
C35   C     C_3   0.735995 0.941545 0.238228 -0.199102
C36   C     C_R   0.465430 0.216291 0.990248 0.036810
C37   C     C_R   0.034570 0.716291 0.009752 0.036809
C38   C     C_R   0.965430 0.716291 0.990248 0.036810
C39   C     C_R   0.000000 0.812533 0.000000 -0.211035
C40   C     C_R   0.500000 0.312533 0.000000 -0.211035
C41   C     C_R   0.500000 0.185095 0.000000 -0.137612
C42   C     C_R   0.000000 0.685095 0.000000 -0.137612
C43   C     C_R   0.440460 0.812674 0.865862 -0.144225
C44   C     C_R   0.559540 0.812674 0.134137 -0.144230
C45   C     C_R   0.940459 0.312674 0.865862 -0.144225
C46   C     C_3   0.264003 0.941556 0.761443 -0.199154
C47   C     C_R   0.059540 0.312674 0.134137 -0.144230
C48   C     C_R   0.416550 0.780968 0.798490 -0.136939
C49   C     C_R   0.583450 0.780967 0.201510 -0.136877
C50   C     C_R   0.916550 0.280968 0.798490 -0.136939
C51   C     C_R   0.083450 0.280967 0.201510 -0.136877
C52   C     C_R   0.923013 0.218517 0.796025 -0.134096
C53   C     C_R   0.076987 0.218517 0.203975 -0.134042
C54   C     C_R   0.423013 0.718517 0.796025 -0.134096
C55   C     C_R   0.576987 0.718517 0.203975 -0.134042
C56   C     C_R   0.951640 0.187002 0.861631 -0.149376
C57   C     C_3   0.235995 0.441545 0.238228 -0.199102
C58   C     C_R   0.048360 0.187002 0.138369 -0.149381
C59   C     C_R   0.451640 0.687002 0.861631 -0.149376
C60   C     C_R   0.548360 0.687002 0.138369 -0.149381
C61   C     C_R   0.974565 0.217867 0.931471 0.073765
C62   C     C_R   0.025435 0.217867 0.068529 0.073759
C63   C     C_R   0.474565 0.717867 0.931471 0.073765
C64   C     C_R   0.525435 0.717867 0.068529 0.073759
C65   C     C_R   0.471654 0.782098 0.932574 0.074746
C66   C     C_R   0.528346 0.782098 0.067425 0.074741
C67   C     C_R   0.971654 0.282098 0.932574 0.074746
C68   C     C_3   0.764003 0.441556 0.761443 -0.199154
C69   C     C_R   0.028346 0.282098 0.067425 0.074741
C70   C     C_R   1.000000 0.186224 0.000000 -0.202081
C71   C     C_R   0.500000 0.686224 0.000000 -0.202081
C72   C     C_1   0.874264 0.000020 0.374186 -0.163865
C73   C     C_1   0.125736 0.000019 0.625815 -0.163869
C74   C     C_1   0.374264 0.500020 0.374186 -0.163865
C75   C     C_1   0.625736 0.500019 0.625815 -0.163869
C76   C     C_R   0.500000 0.813889 1.000000 -0.205217
C77   C     C_R   0.000000 0.313889 1.000000 -0.205217
C78   C     C_1   0.625780 0.999957 0.126109 -0.183991
C79   C     C_1   0.836701 0.000069 0.336673 -0.000247
C80   C     C_1   0.374220 0.999957 0.873891 -0.183986
C81   C     C_1   0.125779 0.499957 0.126109 -0.183991
C82   C     C_1   0.874220 0.499957 0.873891 -0.183986
C83   C     C_3   0.763916 0.058342 0.262479 -0.221749
C84   C     C_3   0.236084 0.058330 0.737851 -0.221771
C85   C     C_3   0.263916 0.558342 0.262479 -0.221749
C86   C     C_3   0.736084 0.558330 0.737851 -0.221771
C87   C     C_3   0.791189 0.000088 0.291321 0.119616
C88   C     C_3   0.208810 0.000086 0.708681 0.119623
C89   C     C_3   0.291189 0.500088 0.291321 0.119616
C90   C     C_1   0.163299 0.000068 0.663329 -0.000252
C91   C     C_3   0.708810 0.500086 0.708681 0.119623
C92   C     C_3   0.735742 0.027573 0.184774 -0.143136
C93   C     C_3   0.264258 0.027283 0.815382 -0.143128
C94   C     C_3   0.235742 0.527573 0.184774 -0.143136
C95   C     C_3   0.764258 0.527283 0.815382 -0.143128
C96   C     C_1   0.336701 0.500069 0.336673 -0.000247
C97   C     C_R   0.999893 0.000032 0.380086 0.865119
C98   C     C_1   0.663299 0.500068 0.663329 -0.000252
C99   C     C_1   0.663347 0.999952 0.163879 -0.038359
C100  C     C_1   0.336653 0.999952 0.836121 -0.038357
C101  C     C_1   0.163347 0.499952 0.163879 -0.038359
C102  C     C_1   0.836653 0.499952 0.836121 -0.038357
C103  C     C_R   0.938341 0.929964 0.624502 -0.133804
C104  C     C_R   0.061660 0.929966 0.375499 -0.133697
C105  C     C_R   0.438341 0.429964 0.624502 -0.133804
C106  C     C_R   0.561660 0.429966 0.375499 -0.133697
C107  C     C_R   0.912842 0.888571 0.630405 -0.103536
C108  C     C_R   0.500107 0.500032 0.619914 0.865094
C109  C     C_R   0.087160 0.888574 0.369597 -0.103464
C110  C     C_R   0.412842 0.388571 0.630405 -0.103536
C111  C     C_R   0.587160 0.388574 0.369597 -0.103464
C112  C     C_R   0.918587 0.879541 0.698826 -0.149116
C113  C     C_R   0.081415 0.879544 0.301176 -0.149071
C114  C     C_R   0.418587 0.379541 0.698826 -0.149116
C115  C     C_R   0.581415 0.379544 0.301176 -0.149071
C116  C     C_R   0.948154 0.914470 0.760368 -0.090513
C117  C     C_R   0.051847 0.914471 0.239634 -0.090498
C118  C     C_R   0.448154 0.414470 0.760368 -0.090513
C119  C     C_R   0.499893 0.500032 0.380086 0.865119
C120  C     C_R   0.551847 0.414471 0.239634 -0.090498
C121  C     C_R   0.972718 0.959620 0.754405 0.101809
C122  C     C_R   0.027283 0.959621 0.245596 0.101813
C123  C     C_R   0.472718 0.459620 0.754405 0.101809
C124  C     C_R   0.527282 0.459620 0.245596 0.101813
C125  C     C_R   0.918797 0.000000 0.418717 0.881099
C126  C     C_R   0.081203 1.000000 0.581284 0.881123
C127  C     C_R   0.418797 0.500000 0.418717 0.881099
C128  C     C_R   0.581203 0.500000 0.581284 0.881123
C129  C     C_R   0.970294 0.963441 0.687641 0.059498
C130  C     C_3   0.708849 0.999930 0.209484 0.134303
C131  C     C_R   0.029706 0.963442 0.312359 0.059499
C132  C     C_R   0.470295 0.463441 0.687641 0.059498
C133  C     C_R   0.529706 0.463442 0.312359 0.059499
C134  C     C_R   0.999442 0.001008 0.812999 -0.174039
C135  C     C_R   0.000558 0.001008 0.187000 -0.174027
C136  C     C_R   0.499442 0.501008 0.812999 -0.174039
C137  C     C_R   0.500558 0.501008 0.187000 -0.174027
C138  C     C_R   0.025962 0.042481 0.807964 0.067573
C139  C     C_R   0.974038 0.042480 0.192036 0.067584
C140  C     C_R   0.525961 0.542481 0.807964 0.067574
C141  C     C_3   0.291151 0.999931 0.790516 0.134297
C142  C     C_R   0.474038 0.542480 0.192036 0.067584
C143  C     C_R   0.028991 0.037930 0.746808 0.085420
C144  C     C_R   0.971009 0.037929 0.253191 0.085424
C145  C     C_R   0.528991 0.537930 0.746808 0.085420
C146  C     C_R   0.471009 0.537929 0.253191 0.085424
C147  C     C_R   0.999914 0.000259 0.685844 -0.193676
C148  C     C_R   0.000086 0.000259 0.314156 -0.193667
C149  C     C_R   0.499914 0.500259 0.685844 -0.193676
C150  C     C_R   0.500086 0.500259 0.314156 -0.193667
C151  C     C_R   0.049785 0.088365 0.862660 -0.145066
C152  C     C_3   0.208849 0.499930 0.209484 0.134303
C153  C     C_R   0.950215 0.088365 0.137340 -0.145067
C154  C     C_R   0.549785 0.588365 0.862660 -0.145066
C155  C     C_R   0.450215 0.588365 0.137340 -0.145067
C156  C     C_R   0.079299 0.123578 0.860740 -0.127526
C157  C     C_R   0.920700 0.123577 0.139259 -0.127539
C158  C     C_R   0.579299 0.623578 0.860740 -0.127526
C159  C     C_R   0.420700 0.623577 0.139259 -0.127539
C160  C     C_R   0.085710 0.113983 0.804739 -0.143334
C161  C     C_R   0.914289 0.113982 0.195260 -0.143336
C162  C     C_R   0.585710 0.613983 0.804739 -0.143334
C163  C     C_3   0.791151 0.499931 0.790516 0.134297
C164  C     C_R   0.414289 0.613982 0.195260 -0.143336
C165  C     C_R   0.060936 0.071669 0.748214 -0.138193
C166  C     C_R   0.939063 0.071668 0.251785 -0.138192
C167  C     C_R   0.560936 0.571669 0.748214 -0.138193
C168  C     C_R   0.439063 0.571668 0.251785 -0.138191
C169  C     C_R   0.500000 0.119621 0.000000 0.864671
C170  C     C_R   1.000000 0.619621 0.000000 0.864671
C171  C     C_3   0.736172 0.030792 0.286396 -0.196162
C172  C     C_3   0.263828 0.031070 0.713779 -0.196119
C173  C     C_3   0.236172 0.530792 0.286396 -0.196161
C174  C     C_3   0.763735 0.969283 0.214406 -0.215384
C175  C     C_3   0.763828 0.531070 0.713779 -0.196120
C176  C     C_R   0.581237 0.999957 0.081291 0.878950
C177  C     C_R   0.418763 0.999957 0.918709 0.878947
C178  C     C_R   0.081237 0.499957 0.081291 0.878950
C179  C     C_R   0.918763 0.499957 0.918709 0.878947
C180  C     C_R   0.500000 0.880164 0.000000 0.864695
C181  C     C_R   1.000000 0.380164 0.000000 0.864695
C182  C     C_R   1.000000 0.120127 0.000000 0.837204
C183  C     C_R   0.500000 0.620127 0.000000 0.837204
C184  C     C_R   0.999841 0.000854 0.879580 0.916017
Cl1   Cl    Cl    0.783509 0.936440 0.402355 -0.632985
Cl2   Cl    Cl    0.216489 0.937104 0.597289 -0.632939
Cl3   Cl    Cl    0.283509 0.436440 0.402355 -0.632985
Cl4   Cl    Cl    0.716489 0.437104 0.597289 -0.632939
Cl5   Cl    Cl    0.046079 0.869216 0.921768 -0.661632
Cl6   Cl    Cl    0.953922 0.869215 0.078233 -0.661643
Cl7   Cl    Cl    0.546079 0.369216 0.921768 -0.661632
Cl8   Cl    Cl    0.453922 0.369215 0.078233 -0.661643
H1    H     H_    0.899687 0.845980 0.704068 0.148763
H2    H     H_    0.954226 0.098095 0.092956 0.141378
H3    H     H_    0.545774 0.598095 0.907043 0.141381
H4    H     H_    0.454226 0.598095 0.092956 0.141378
H5    H     H_    0.097658 0.157765 0.903463 0.139579
H6    H     H_    0.902341 0.157764 0.096536 0.139568
H7    H     H_    0.597658 0.657765 0.903463 0.139579
H8    H     H_    0.402341 0.657764 0.096536 0.139568
H9    H     H_    0.067424 0.065709 0.706291 0.147181
H10   H     H_    0.932576 0.065708 0.293708 0.147179
H11   H     H_    0.567424 0.565709 0.706291 0.147181
H12   H     H_    0.100316 0.845983 0.295934 0.148732
H13   H     H_    0.432576 0.565708 0.293708 0.147179
H14   H     H_    0.369695 0.190523 0.960721 0.157828
H15   H     H_    0.630305 0.190522 0.039278 0.157803
H16   H     H_    0.869695 0.690523 0.960721 0.157828
H17   H     H_    0.130305 0.690522 0.039278 0.157803
H18   H     H_    0.576379 0.136781 0.043504 0.140833
H19   H     H_    0.423621 0.136782 0.956495 0.140837
H20   H     H_    0.076379 0.636781 0.043504 0.140833
H21   H     H_    0.923621 0.636782 0.956495 0.140837
H22   H     H_    0.117472 0.795780 0.989725 0.173041
H23   H     H_    0.399687 0.345980 0.704068 0.148763
H24   H     H_    0.882528 0.795781 0.010275 0.173048
H25   H     H_    0.617472 0.295780 0.989725 0.173041
H26   H     H_    0.382528 0.295781 0.010275 0.173048
H27   H     H_    0.606648 0.805144 0.252108 0.148056
H28   H     H_    0.393352 0.805144 0.747892 0.148014
H29   H     H_    0.106648 0.305144 0.252108 0.148056
H30   H     H_    0.893352 0.305144 0.747892 0.148014
H31   H     H_    0.724242 0.055621 0.315478 0.163556
H32   H     H_    0.275758 0.056130 0.684837 0.163569
H33   H     H_    0.224242 0.555621 0.315478 0.163556
H34   H     H_    0.600316 0.345983 0.295934 0.148732
H35   H     H_    0.775758 0.556130 0.684837 0.163570
H36   H     H_    0.433774 0.861035 0.864693 0.153188
H37   H     H_    0.566226 0.861035 0.135307 0.153195
H38   H     H_    0.933774 0.361036 0.864693 0.153188
H39   H     H_    0.066226 0.361035 0.135307 0.153195
H40   H     H_    0.905307 0.194170 0.743341 0.145462
H41   H     H_    0.094693 0.194170 0.256659 0.145521
H42   H     H_    0.405307 0.694170 0.743341 0.145462
H43   H     H_    0.594693 0.694170 0.256659 0.145520
H44   H     H_    0.955616 0.138515 0.856539 0.146393
H45   H     H_    0.951573 0.904873 0.812303 0.172226
H46   H     H_    0.044384 0.138515 0.143461 0.146404
H47   H     H_    0.455616 0.638515 0.856539 0.146393
H48   H     H_    0.544384 0.638515 0.143461 0.146404
H49   H     H_    0.723918 0.893711 0.228100 0.160642
H50   H     H_    0.276080 0.893734 0.771300 0.160620
H51   H     H_    0.223918 0.393711 0.228100 0.160642
H52   H     H_    0.776080 0.393734 0.771300 0.160620
H53   H     H_    0.775745 0.944241 0.185585 0.157884
H54   H     H_    0.224255 0.943733 0.814100 0.157883
H55   H     H_    0.275745 0.444241 0.185585 0.157884
H56   H     H_    0.048428 0.904874 0.187698 0.172221
H57   H     H_    0.724255 0.443733 0.814100 0.157884
H58   H     H_    0.723271 0.050179 0.130221 0.143841
H59   H     H_    0.276730 0.049653 0.870061 0.143880
H60   H     H_    0.223271 0.550179 0.130221 0.143841
H61   H     H_    0.776730 0.549653 0.870061 0.143880
H62   H     H_    0.776071 0.106143 0.272971 0.156440
H63   H     H_    0.223931 0.106121 0.727629 0.156422
H64   H     H_    0.276071 0.606143 0.272971 0.156440
H65   H     H_    0.723931 0.606121 0.727629 0.156422
H66   H     H_    0.109495 0.140058 0.804392 0.137506
H67   H     H_    0.451573 0.404873 0.812303 0.172226
H68   H     H_    0.890504 0.140057 0.195607 0.137505
H69   H     H_    0.609495 0.640058 0.804392 0.137506
H70   H     H_    0.390504 0.640057 0.195607 0.137505
H71   H     H_    0.932346 0.935499 0.569846 0.158239
H72   H     H_    0.067655 0.935501 0.430155 0.158211
H73   H     H_    0.432346 0.435499 0.569846 0.158239
H74   H     H_    0.567655 0.435502 0.430155 0.158211
H75   H     H_    0.889017 0.862749 0.581988 0.168756
H76   H     H_    0.110986 0.862753 0.418015 0.168601
H77   H     H_    0.389017 0.362749 0.581988 0.168756
H78   H     H_    0.548428 0.404874 0.187698 0.172221
H79   H     H_    0.610985 0.362753 0.418015 0.168601
H80   H     H_    0.045774 0.098095 0.907043 0.141381
O1    O     O_R   0.000000 0.051720 0.591600 -0.623033
O2    O     O_R   0.034770 0.000010 0.126430 -0.654521
O3    O     O_R   0.465230 0.500010 0.873570 -0.654546
O4    O     O_R   0.534770 0.500010 0.126430 -0.654521
O5    O     O_R   0.034780 0.908380 0.034660 -0.597974
O6    O     O_R   0.965220 0.908380 0.965340 -0.597977
O7    O     O_R   0.534780 0.408380 0.034660 -0.597974
O8    O     O_R   0.465220 0.408380 0.965340 -0.597977
O9    O     O_R   0.000010 0.948300 0.591530 -0.616303
O10   O     O_R   0.999990 0.948300 0.408470 -0.616319
O11   O     O_R   0.500010 0.448300 0.591530 -0.616303
O12   O     O_R   0.000000 0.051720 0.408400 -0.623013
O13   O     O_R   0.499990 0.448300 0.408470 -0.616319
O14   O     O_R   0.938390 0.051710 0.438380 -0.621811
O15   O     O_R   0.061610 0.051710 0.561620 -0.621765
O16   O     O_R   0.438390 0.551710 0.438380 -0.621811
O17   O     O_R   0.561610 0.551710 0.561620 -0.621765
O18   O     O_R   0.938400 0.948290 0.438320 -0.612411
O19   O     O_R   0.061600 0.948290 0.561680 -0.612490
O20   O     O_R   0.438400 0.448290 0.438320 -0.612411
O21   O     O_R   0.561600 0.448290 0.561680 -0.612490
O22   O     O_R   0.500000 0.091730 0.051650 -0.615407
O23   O     O_R   0.500000 0.551720 0.591600 -0.623033
O24   O     O_R   0.500000 0.091730 0.948350 -0.615397
O25   O     O_R   0.000000 0.591730 0.051650 -0.615407
O26   O     O_R   0.000000 0.591730 0.948350 -0.615397
O27   O     O_R   0.561620 0.000120 0.113280 -0.618272
O28   O     O_R   0.438380 0.000120 0.886720 -0.618252
O29   O     O_R   0.061620 0.500120 0.113280 -0.618272
O30   O     O_R   0.938380 0.500120 0.886720 -0.618252
O31   O     O_R   0.561620 0.000020 0.009840 -0.615347
O32   O     O_R   0.438380 0.000020 0.990160 -0.615354
O33   O     O_R   0.061620 0.500020 0.009840 -0.615347
O34   O     O_R   0.500000 0.551720 0.408400 -0.623013
O35   O     O_R   0.938380 0.500020 0.990160 -0.615354
O36   O     O_R   0.500000 0.908540 0.051700 -0.621758
O37   O     O_R   0.500000 0.908540 0.948300 -0.621751
O38   O     O_R   0.000000 0.408540 0.051700 -0.621758
O39   O     O_R   0.000000 0.408540 0.948300 -0.621751
O40   O     O_R   0.034800 0.091580 0.034810 -0.633471
O41   O     O_R   0.965200 0.091580 0.965190 -0.633488
O42   O     O_R   0.534800 0.591580 0.034810 -0.633471
O43   O     O_R   0.465200 0.591580 0.965190 -0.633488
O44   O     O_R   0.034790 0.999980 0.943120 -0.570475
O45   O     O_R   0.965210 0.999980 0.056880 -0.570484
O46   O     O_R   0.534790 0.499980 0.943120 -0.570475
O47   O     O_R   0.465210 0.499980 0.056880 -0.570484
O48   O     O_R   0.965230 0.000010 0.873570 -0.654546
Zn1   Zn    Zn3+2 0.000000 0.069060 0.500000 0.961091
Zn2   Zn    Zn3+2 0.953550 0.999980 0.953600 0.991932
Zn3   Zn    Zn3+2 0.546450 0.499980 0.046400 0.991992
Zn4   Zn    Zn3+2 0.453550 0.499980 0.953600 0.991932
Zn5   Zn    Zn3+2 0.500000 0.569060 0.500000 0.961091
Zn6   Zn    Zn3+2 0.000000 0.930950 0.500000 0.983077
Zn7   Zn    Zn3+2 0.500000 0.430950 0.500000 0.983077
Zn8   Zn    Zn3+2 0.500000 0.000150 0.069020 0.971096
Zn9   Zn    Zn3+2 0.500000 0.000150 0.930980 0.971130
Zn10  Zn    Zn3+2 0.000000 0.500150 0.069020 0.971096
Zn11  Zn    Zn3+2 0.000000 0.500150 0.930980 0.971130
Zn12  Zn    Zn3+2 0.046450 0.999980 0.046400 0.991992

loop_
_geom_bond_atom_site_label_1
_geom_bond_atom_site_label_2
_ccdc_geom_bond_type
C21   C26   A    
C63   C65   A    
O40   Zn12  S    
C119  O34   A    
C53   H41   S    
C107  C112  A    
C142  C146  A    
O4    Zn3   S    
O35   Zn10  S    
C136  C140  A    
C79   C87   S    
C93   C141  S    
C135  C139  A    
O46   Zn3   S    
C24   H57   S    
C81   C178  S    
C154  C158  A    
C72   C79   T    
C138  C143  A    
C145  C167  A    
C31   C172  S    
C28   C40   A    
C94   C152  S    
C73   C126  S    
C57   C152  S    
C120  H78   S    
C62   C70   A    
C75   C128  S    
C166  H10   S    
C37   C42   A    
O6    Zn2   S    
C42   C170  S    
C146  C150  A    
C106  C133  A    
C153  H2    S    
C102  C163  S    
C83   C171  S    
C50   C52   A    
C60   H48   S    
C22   Cl6   S    
O18   Zn6   S    
C106  C111  A    
C181  O38   A    
C32   C57   S    
C109  H76   S    
C7    O7    A    
C114  H23   S    
C46   C141  S    
C25   C29   A    
C116  C121  A    
C71   C183  S    
C124  C137  A    
C164  C168  A    
C97   O12   A    
C121  C129  A    
C162  H69   S    
C41   C169  S    
C75   C98   T    
C17   C21   A    
C64   C66   A    
C19   C23   A    
C30   Cl1   S    
C86   H65   S    
C95   C163  S    
C130  C171  S    
C66   C76   A    
C124  C133  A    
C10   H20   S    
C159  H8    S    
C63   C71   A    
C22   C27   A    
C14   H14   S    
O10   Zn6   S    
C6    O6    A    
C4    O46   A    
C5    O47   A    
C3    O2    A    
C87   C174  S    
C50   H30   S    
O2    Zn12  S    
C18   H24   S    
C84   C88   S    
C134  C184  S    
C25   Cl8   S    
C94   H60   S    
C140  C145  A    
C171  H31   S    
C53   C58   A    
C5    C137  S    
O16   Zn5   S    
C92   H58   S    
C138  C151  A    
C32   C173  S    
C13   C94   S    
C59   C63   A    
C72   C125  S    
C60   C64   A    
C80   C177  S    
C89   C96   S    
O12   Zn1   S    
C125  O14   A    
C173  H33   S    
C1    O9    A    
C52   C56   A    
C45   C50   A    
C51   H29   S    
C84   C93   S    
C3    O45   A    
C91   C98   S    
O28   Zn9   S    
C151  H80   S    
C129  C147  A    
C86   C95   S    
O8    Zn4   S    
C180  O37   A    
C78   C99   T    
C92   C130  S    
C103  C107  A    
O9    Zn6   S    
C104  H72   S    
C30   C87   S    
C137  C142  A    
O27   Zn8   S    
C123  C132  A    
C176  O27   A    
C69   C77   A    
C156  H5    S    
C67   C77   A    
C44   H37   S    
C163  C175  S    
C169  O22   A    
C81   C101  T    
O5    Zn12  S    
C49   H27   S    
O34   Zn5   S    
C73   C90   T    
C64   C71   A    
C13   C57   S    
C105  H73   S    
C157  H6    S    
C85   C94   S    
C47   C69   A    
C155  H4    S    
C170  O26   A    
O25   Zn10  S    
O38   Zn10  S    
C21   Cl5   S    
O45   Zn2   S    
O19   Zn6   S    
C182  O41   A    
C177  O28   A    
C110  C114  A    
C8    H18   S    
C108  O23   A    
C54   C59   A    
C83   H62   S    
C155  C159  A    
C12   H15   S    
C74   C96   T    
C156  C160  A    
C92   C174  S    
C49   C55   A    
C116  H45   S    
C164  H70   S    
C51   C53   A    
O48   Zn2   S    
C117  C122  A    
C184  O48   A    
O43   Zn4   S    
C61   C67   A    
C77   C181  S    
C74   C127  S    
C8    C12   A    
C6    C39   S    
C82   C102  T    
C8    C34   A    
C23   C28   A    
C35   C130  S    
C113  C117  A    
C154  H3    S    
C35   H49   S    
O21   Zn7   S    
C1    C147  S    
C45   H38   S    
C152  C173  S    
C17   H22   S    
C169  O24   A    
C122  C131  A    
C112  C116  A    
C43   H36   S    
C117  H56   S    
O15   Zn1   S    
C95   H61   S    
C32   Cl3   S    
C18   C22   A    
C4    O3    A    
O37   Zn9   S    
C133  C150  A    
C84   C172  S    
C127  O20   A    
O1    Zn1   S    
C4    C136  S    
C29   C40   A    
C33   Cl4   S    
C54   H42   S    
C159  C164  A    
C56   H44   S    
C33   C68   S    
O13   Zn7   S    
C61   C70   A    
C58   C62   A    
C83   C87   S    
C180  O36   A    
C111  H79   S    
O41   Zn2   S    
O26   Zn11  S    
C65   C76   A    
C105  C110  A    
C100  C141  S    
C33   C91   S    
C26   C39   A    
C20   C25   A    
C139  C153  A    
C27   C38   A    
C175  H35   S    
C86   C175  S    
C183  O42   A    
O7    Zn3   S    
C165  H9    S    
C143  C165  A    
C70   C182  S    
C82   C179  S    
C45   C67   A    
O33   Zn11  S    
C167  H11   S    
C121  C134  A    
O20   Zn7   S    
O17   Zn5   S    
C119  O13   A    
O39   Zn11  S    
C119  C150  S    
C28   C34   A    
C55   C60   A    
C132  C149  A    
C36   C41   A    
C34   C41   A    
O32   Zn8   S    
C179  O35   A    
O30   Zn11  S    
C105  C132  A    
C128  O21   A    
O22   Zn8   S    
C106  H74   S    
C14   C20   A    
C104  C131  A    
C24   C95   S    
C85   C89   S    
C47   C51   A    
C118  H67   S    
O44   Zn12  S    
C177  O32   A    
C62   C69   A    
C144  C166  A    
C179  O30   A    
C143  C147  A    
C9    C14   A    
O36   Zn8   S    
C11   C16   A    
C32   C89   S    
C43   C65   A    
C84   H63   S    
C160  H66   S    
C158  H7    S    
O23   Zn5   S    
O3    Zn4   S    
C151  C156  A    
C103  C129  A    
C108  O11   A    
C11   H21   S    
C161  H68   S    
C13   H55   S    
C88   C90   S    
C178  O29   A    
C182  O40   A    
C46   H50   S    
C7    O8    A    
C157  C161  A    
O11   Zn7   S    
C48   H28   S    
C68   C163  S    
C15   C17   A    
C146  C168  A    
O47   Zn4   S    
C85   H64   S    
C31   C88   S    
C99   C130  S    
C20   H26   S    
C127  O16   A    
C184  O44   A    
C55   H43   S    
C76   C180  S    
C26   C37   A    
C101  C152  S    
C2    H54   S    
C57   H51   S    
C12   C19   A    
C19   H25   S    
C3    C135  S    
C118  C123  A    
C153  C157  A    
C122  C135  A    
O14   Zn1   S    
C24   C68   S    
O42   Zn3   S    
C86   C91   S    
C56   C61   A    
C6    O5    A    
C145  C149  A    
C174  H53   S    
C44   C49   A    
C11   C38   A    
C44   C66   A    
C144  C148  A    
C23   Cl7   S    
C2    C46   S    
C48   C54   A    
C83   C92   S    
C29   C36   A    
C30   C35   S    
C10   C37   A    
C172  H32   S    
C68   H52   S    
C38   C42   A    
C10   C15   A    
C104  C109  A    
C47   H39   S    
O24   Zn9   S    
C113  H12   S    
C27   C39   A    
C85   C173  S    
C7    C40   S    
C2    C88   S    
C183  O43   A    
C142  C155  A    
C43   C48   A    
C1    O1    A    
C125  O18   A    
C109  C113  A    
C126  O15   A    
C80   C100  T    
C78   C176  S    
C30   C171  S    
C178  O33   A    
O31   Zn9   S    
C115  H34   S    
C162  C167  A    
C52   H40   S    
C160  C165  A    
C31   C46   S    
C141  C172  S    
C108  C149  S    
O29   Zn10  S    
C59   H47   S    
C170  O25   A    
C9    C36   A    
C139  C144  A    
C131  C148  A    
C5    O4    A    
C114  C118  A    
C128  O17   A    
C107  H75   S    
C97   C148  S    
C24   C91   S    
C13   C89   S    
C168  H13   S    
C35   C174  S    
C2    C93   S    
C161  C166  A    
C16   H16   S    
C134  C138  A    
C110  H77   S    
C123  C136  A    
C176  O31   A    
C181  O39   A    
C15   H17   S    
C97   O10   A    
C9    H19   S    
C31   Cl2   S    
C33   C175  S    
C112  H1    S    
C158  C162  A    
C126  O19   A    
C93   H59   S    
C16   C18   A    
C115  C120  A    
C103  H71   S    
C111  C115  A    
C58   H46   S    
C120  C124  A    
C140  C154  A    
