data_mof_unit_28386.cif
_audit_creation_date              2013-03-05T16:07:49-0500
_audit_creation_method            fapswitch 2.2
_symmetry_space_group_name_H-M    P1
_symmetry_Int_Tables_number       1
_space_group_crystal_system       triclinic
_cell_length_a                    8.442472
_cell_length_b                    15.393011
_cell_length_c                    18.816284
_cell_angle_alpha                 102.892198
_cell_angle_beta                  91.988953
_cell_angle_gamma                 97.981238
_cell_volume                      2355.07016023

loop_
_atom_site_label
_atom_site_type_symbol
_atom_site_description
_atom_site_fract_x
_atom_site_fract_y
_atom_site_fract_z
_atom_type_partial_charge
P1    P     P_3+3 0.039440 0.410950 0.333260 0.630128
O1    O     O_2   0.871970 0.437290 0.322980 -0.361033
O2    O     O_3   0.121420 0.444460 0.412460 -0.256389
O3    O     O_3   0.661430 0.607560 0.372520 -0.307617
O4    O     O_2   0.757263 0.537737 0.244454 -0.396780
O5    O     O_3   0.994221 0.293940 0.305286 -0.473910
O6    O     O_3   0.698085 0.701879 0.260886 -0.515568
H1    H     H_    0.747785 0.767616 0.369562 0.108171
C1    C     C_3   0.717581 0.861887 0.303921 0.213761
H2    H     H_    0.836369 0.865579 0.280333 0.136316
P2    P     P_3+3 0.676740 0.714970 0.563520 0.569221
P3    P     P_3+3 0.131561 0.773302 0.415914 0.436830
O7    O     O_2   0.852280 0.726960 0.542370 -0.361110
O8    O     O_3   0.083990 0.657360 0.410240 -0.371782
O9    O     O_2   0.008628 0.819943 0.464071 -0.404683
O10   O     O_3   0.691749 0.755432 0.659850 -0.508020
O11   O     O_3   0.086815 0.791753 0.329372 -0.539658
C2    C     C_3   0.130976 0.721076 0.276150 0.384621
H3    H     H_    0.059379 0.655588 0.278459 0.135278
H4    H     H_    0.261105 0.717546 0.283390 0.068916
C3    C     C_3   0.095766 0.737046 0.200676 -0.759749
H5    H     H_    0.122228 0.679530 0.158060 0.227634
H6    H     H_    0.967725 0.744210 0.193179 0.295259
C4    C     C_3   0.249409 0.736125 0.623826 0.366604
H7    H     H_    0.377573 0.729480 0.621655 0.099812
H8    H     H_    0.182835 0.698276 0.571774 0.099931
C5    C     C_3   0.229868 0.834925 0.632561 -0.641335
H9    H     H_    0.312046 0.868128 0.599024 0.189009
H10   H     H_    0.106235 0.840000 0.614264 0.270491
H11   H     H_    0.255674 0.872366 0.690361 0.307727
Ba1   Ba    Ba6+2 0.853510 0.540900 0.466480 1.721229
C6    C     C_3   0.115234 0.256630 0.264736 0.220012
H12   H     H_    0.203107 0.241793 0.303406 0.174787
H13   H     H_    0.179325 0.301792 0.233372 -0.094961
C7    C     C_3   0.040972 0.170244 0.208945 0.211799
H14   H     H_    0.908565 0.165137 0.203513 0.123822
H15   H     H_    0.085196 0.172153 0.154280 0.062806
C8    C     C_3   0.763550 0.706461 0.703374 0.734433
H16   H     H_    0.782307 0.640334 0.670322 -0.191471
C9    C     C_3   0.652025 0.694675 0.764756 0.001544
H17   H     H_    0.706226 0.657907 0.801286 0.068750
H18   H     H_    0.540021 0.652890 0.740077 0.088373
P4    P     P_3+3 0.150270 0.589130 0.666750 0.522162
O12   O     O_2   0.317740 0.562750 0.677070 -0.399234
O13   O     O_3   0.068290 0.555610 0.587550 -0.395608
O14   O     O_3   0.528280 0.392520 0.627490 -0.354738
O15   O     O_3   0.192891 0.706895 0.684912 -0.494576
P5    P     P_3+3 0.051430 0.224235 0.583544 0.590336
O16   O     O_3   0.609300 0.386850 0.459730 -0.297880
O17   O     O_3   0.105720 0.342720 0.589770 -0.301468
O18   O     O_2   0.187078 0.180172 0.543255 -0.317985
O19   O     O_3   0.082210 0.202563 0.669878 -0.556345
Ba2   Ba    Ba6+2 0.336320 0.459170 0.533530 1.750519
P6    P     P_3+3 0.633183 0.596197 0.278880 0.507607
C10   C     C_3   0.670964 0.769633 0.321003 0.211828
H19   H     H_    0.543051 0.761474 0.334086 0.054449
H20   H     H_    0.726776 0.915151 0.355214 0.025030
O20   O     O_3   0.580410 0.613230 0.540280 -0.363475
C11   C     C_3   0.541150 0.280903 0.294826 0.491499
H21   H     H_    0.453313 0.323893 0.284182 0.018692
H22   H     H_    0.655037 0.321594 0.320370 0.178027
C12   C     C_3   0.570627 0.225274 0.219991 -0.847503
H23   H     H_    0.455002 0.199261 0.187231 0.254824
H24   H     H_    0.646800 0.267993 0.190272 0.173881
H25   H     H_    0.630617 0.167145 0.225173 0.308842
P7    P     P_3+3 0.512927 0.269788 0.432500 0.582237
O21   O     O_2   0.337420 0.273080 0.457680 -0.307032
O22   O     O_3   0.474462 0.223430 0.337792 -0.534519
H26   H     H_    0.170823 0.799042 0.193685 0.250158
C13   C     C_3   0.944935 0.203292 0.710386 0.621280
H27   H     H_    0.831772 0.187362 0.675624 0.059293
C14   C     C_3   0.950119 0.131733 0.755930 -0.556414
H28   H     H_    0.051185 0.149285 0.797667 0.233610
H29   H     H_    0.842189 0.120562 0.785593 0.237180
H30   H     H_    0.965049 0.066863 0.719931 0.293295
P8    P     P_3+3 0.564040 0.420336 0.723527 0.435235
C15   C     C_3   0.402157 0.272423 0.749242 0.708378
O23   O     O_2   0.422585 0.464138 0.758336 -0.467131
O24   O     O_3   0.558033 0.319452 0.753184 -0.590865
H31   H     H_    0.323402 0.294005 0.710429 0.103670
H32   H     H_    0.201175 0.274919 0.818507 0.107075
C16   C     C_3   0.331151 0.291188 0.825391 0.064728
H33   H     H_    0.351410 0.364244 0.850282 0.087757
C17   C     C_R   0.993732 0.471898 0.047469 0.045290
C18   C     C_R   0.890546 0.432920 0.093099 0.133169
C19   C     C_R   0.726924 0.408126 0.070997 -0.130278
C20   C     C_R   0.667059 0.421847 0.004736 -0.104858
C21   C     C_R   0.770340 0.454214 0.956497 0.167881
C22   C     C_R   0.934282 0.479807 0.977859 0.091724
C23   C     C_R   0.711462 0.462381 0.887872 -0.109247
C24   C     C_R   0.814606 0.490387 0.837123 0.072420
C25   C     C_R   0.978120 0.521385 0.860059 0.071878
C26   C     C_R   0.036662 0.516990 0.931117 0.016088
C27   C     C_R   0.761636 0.483079 0.763066 0.192056
C28   C     C_R   0.870668 0.506962 0.714220 -0.454142
C29   C     C_R   0.028487 0.546691 0.737087 0.315561
C30   C     C_R   0.083729 0.554895 0.811676 0.007970
C31   C     C_R   0.154164 0.505574 0.072276 0.045487
C32   C     C_R   0.209836 0.503288 0.144227 0.007371
C33   C     C_R   0.105773 0.463147 0.190746 -0.069626
C34   C     C_R   0.949778 0.423357 0.161526 -0.135839
H34   H     H_    0.643950 0.381366 0.106236 0.119123
H35   H     H_    0.539452 0.407019 0.991000 0.168684
H36   H     H_    0.830825 0.495051 0.657095 0.168316
H37   H     H_    0.585017 0.445382 0.874145 0.130641
H38   H     H_    0.869992 0.388153 0.192783 0.147949
C35   C     C_R   0.241420 0.592225 0.839243 -0.017797
C36   C     C_R   0.299519 0.586908 0.909071 0.009281
C37   C     C_R   0.197774 0.549127 0.955292 0.008530
C38   C     C_R   0.256588 0.545296 0.026142 0.000092
C39   C     C_R   0.459568 0.618765 0.932881 -0.276861
C40   C     C_R   0.518988 0.621245 0.003859 0.515042
C41   C     C_R   0.416465 0.583234 0.051306 -0.119842
C42   C     C_R   0.368874 0.542744 0.169456 -0.111878
C43   C     C_R   0.468407 0.582060 0.122759 -0.053358
C44   C     C_R   0.424796 0.543261 0.241177 0.057332
C45   C     C_R   0.320969 0.505177 0.287087 -0.010676
C46   C     C_R   0.160846 0.465876 0.264775 0.014669
H39   H     H_    0.321444 0.624831 0.806631 0.167306
H40   H     H_    0.539016 0.641782 0.895297 0.216525
H41   H     H_    0.587465 0.612413 0.142397 0.241043
C47   C     C_R   0.340072 0.822380 0.454057 0.180403
H42   H     H_    0.372670 0.701145 0.483645 0.222569
H43   H     H_    0.201082 0.951005 0.408223 0.179358
C48   C     C_R   0.577821 0.796589 0.520289 0.137685
C49   C     C_R   0.771302 0.211550 0.495819 0.135280
C50   C     C_R   0.853379 0.165344 0.535237 0.068476
C51   C     C_R   0.792691 0.074340 0.528871 -0.238536
C52   C     C_R   0.630850 0.039260 0.501078 0.159861
C53   C     C_R   0.538112 0.097936 0.474080 -0.029501
C54   C     C_R   0.559462 0.947836 0.498795 -0.119296
C55   C     C_R   0.406294 0.913963 0.461039 -0.025857
C56   C     C_R   0.319678 0.973356 0.434988 -0.024479
C57   C     C_R   0.383933 0.063190 0.441499 0.012856
C58   C     C_R   0.627116 0.891508 0.538759 0.334127
C59   C     C_R   0.430316 0.765806 0.481180 -0.560062
C60   C     C_R   0.607392 0.188467 0.476594 0.069441
H44   H     H_    0.871093 0.032480 0.546788 0.198528
H45   H     H_    0.312255 0.104258 0.418417 0.197159
S1    S     S_3+6 0.091230 0.070451 0.231996 -0.006358
O25   O     O_2   0.269718 0.073256 0.233088 -0.280732
O26   O     O_2   0.034721 0.063554 0.305633 -0.296861
O27   O     O_3   0.002623 0.980371 0.168345 -0.441974
H46   H     H_    0.021055 0.927611 0.187739 0.368445
N1    N     N_R   0.916807 0.757090 0.738972 0.246027
O28   O     O_R   0.985054 0.731849 0.792493 -0.406357
O29   O     O_R   0.967101 0.837142 0.729999 -0.260456
S2    S     S_3+6 0.605682 0.799520 0.819731 0.075451
O30   O     O_2   0.718326 0.879543 0.809428 -0.139681
O31   O     O_2   0.437063 0.809615 0.798689 -0.244413
O32   O     O_3   0.619915 0.799861 0.908981 -0.457935
H47   H     H_    0.570144 0.852238 0.933501 0.400003
S3    S     S_3+6 0.572331 0.884086 0.241695 0.017158
O33   O     O_2   0.647890 0.955245 0.204997 -0.190700
O34   O     O_2   0.508872 0.799786 0.185058 -0.254750
O35   O     O_3   0.420604 0.921306 0.288620 -0.555543
H48   H     H_    0.340271 0.926719 0.251038 0.402783
N2    N     N_R   0.948449 0.292105 0.758478 0.194266
O36   O     O_R   0.046649 0.360126 0.747908 -0.460055
O37   O     O_R   0.870378 0.301441 0.817408 -0.415711
S4    S     S_3+6 0.414538 0.155849 0.711299 0.069651
O38   O     O_2   0.260322 0.094189 0.709698 -0.240840
O39   O     O_2   0.465013 0.147274 0.634692 -0.275435
O40   O     O_3   0.551349 0.122790 0.761444 -0.430556
H49   H     H_    0.631387 0.177298 0.777574 0.379715
S5    S     S_3+6 0.393632 0.233113 0.891827 0.006149
O41   O     O_2   0.330405 0.134133 0.868685 -0.164440
O42   O     O_2   0.573166 0.246569 0.902733 -0.266207
O43   O     O_3   0.316230 0.275180 0.971169 -0.553288
H50   H     H_    0.365837 0.247667 0.007526 0.369711
S6    S     S_3+6 0.718577 0.678035 0.029903 -0.027490
O44   O     O_2   0.711538 0.772346 0.072054 -0.161802
O45   O     O_2   0.809181 0.631312 0.076284 -0.374905
O46   O     O_3   0.819535 0.683638 0.955153 -0.521438
H51   H     H_    0.929966 0.712029 0.974054 0.395256
N3    N     N_R   0.380619 0.505632 0.358383 0.246264
O47   O     O_R   0.489354 0.457353 0.367882 -0.388482
O48   O     O_R   0.349306 0.566737 0.412753 -0.393993
S7    S     S_3+6 0.692670 0.939667 0.630787 0.001630
O49   O     O_2   0.860879 0.923036 0.642519 -0.252582
O50   O     O_2   0.687522 0.038413 0.650322 -0.313603
O51   O     O_3   0.569693 0.894940 0.685602 -0.461054
H52   H     H_    0.536563 0.946380 0.720553 0.428975
S8    S     S_3+6 0.879809 0.243715 0.428719 0.008185
O52   O     O_2   0.888051 0.343421 0.445416 -0.239297
O53   O     O_2   0.044402 0.218532 0.426357 -0.239435
O54   O     O_3   0.781196 0.191445 0.348163 -0.542547
H53   H     H_    0.767818 0.126309 0.347550 0.364193

loop_
_geom_bond_atom_site_label_1
_geom_bond_atom_site_label_2
_geom_bond_distance
_ccdc_geom_bond_type
P7    O22   1.765915 S    
C10   H19   1.112276 S    
C49   C60   1.394057 A    
C49   C50   1.368483 A    
C31   C38   1.420298 A    
C5    H10   1.106248 S    
C2    C3    1.520646 S    
P2    O7    1.544828 D    
O43   H50   0.990659 S    
O5    C6    1.406158 S    
C28   C29   1.396739 A    
S1    O27   1.680890 S    
O6    C10   1.406249 S    
O8    Ba1   2.853159 S    
S6    O44   1.501177 D    
C51   C52   1.432291 A    
C32   C42   1.413386 A    
O14   P8    1.766604 S    
C42   C43   1.411282 A    
C18   C19   1.403460 A    
S8    O52   1.487526 D    
S6    O45   1.500177 D    
S4    O39   1.500061 D    
H43   C56   1.080049 S    
C43   H41   1.063916 S    
Ba1   O20   2.954505 S    
O35   H48   0.987756 S    
P2    C48   1.907304 S    
P8    O23   1.546166 D    
C2    H3    1.111578 S    
C54   C58   1.429025 A    
C8    H16   1.103211 S    
C7    S1    1.787000 S    
Ba1   Ba2   4.643757 S    
C40   S6    1.784965 S    
O27   H46   0.990135 S    
P1    Ba1   3.414148 S    
C36   C37   1.404024 A    
P1    O1    1.541433 D    
C35   H39   1.075607 S    
C51   H44   1.080202 S    
O51   H52   0.989744 S    
C25   C26   1.428400 A    
C12   H24   1.109193 S    
P8    C27   1.847960 S    
O46   H51   0.990535 S    
C49   S8    1.706378 S    
O12   Ba2   2.835274 S    
P4    Ba2   3.414796 S    
P5    O18   1.546855 D    
C39   C40   1.400793 A    
C55   C56   1.404132 A    
P6    C44   1.876089 S    
P3    O11   1.751718 S    
O32   H47   0.990455 S    
S2    O32   1.678260 S    
C13   H27   1.104857 S    
C1    C10   1.527093 S    
S3    O34   1.502272 D    
P2    O20   1.619035 S    
C1    H2    1.110090 S    
C2    H4    1.112638 S    
P2    Ba1   3.443416 S    
S7    O51   1.675842 S    
O3    P6    1.736000 S    
C48   C58   1.422421 A    
N3    O48   1.288273 A    
P7    O21   1.575242 D    
C1    S3    1.785123 S    
C11   H21   1.101375 S    
C3    H5    1.107846 S    
S7    O50   1.489145 D    
C5    H11   1.109709 S    
S5    O42   1.501546 D    
O40   H49   0.983558 S    
C53   C57   1.400412 A    
Ba1   O16   2.894769 S    
C14   H30   1.100391 S    
H1    C10   1.110660 S    
C47   C55   1.417950 A    
C40   C41   1.426418 A    
N1    O29   1.296042 A    
C25   C30   1.424081 A    
N1    O28   1.301392 A    
C15   O24   1.402165 S    
C15   S4    1.796162 S    
S6    O46   1.682000 S    
C11   H22   1.101871 S    
O17   Ba2   2.853683 S    
O16   P7    1.823022 S    
C9    S2    1.812798 S    
C13   N2    1.457236 S    
P1    O5    1.743259 S    
C6    C7    1.537259 S    
O4    P6    1.541265 D    
C17   C18   1.411626 A    
C4    H7    1.102190 S    
C14   H29   1.098175 S    
C24   C25   1.415427 A    
C19   C20   1.399268 A    
N2    O37   1.300212 A    
H32   C16   1.087639 S    
C3    H26   1.106075 S    
O1    Ba1   2.834648 S    
P1    O2    1.565942 S    
C7    H14   1.109173 S    
C6    H13   1.106853 S    
N2    O36   1.298649 A    
C20   C21   1.403026 A    
P4    O12   1.541805 D    
C8    N1    1.468672 S    
C12   H23   1.110291 S    
C11   O22   1.402032 S    
P4    C29   1.878614 S    
P2    O10   1.774200 S    
C32   C33   1.436588 A    
P3    O9    1.547756 D    
C35   C36   1.409965 A    
C4    C5    1.525499 S    
C29   C30   1.436086 A    
O11   C2    1.406362 S    
S1    O25   1.500782 D    
S3    O35   1.674891 S    
O2    Ba1   2.961661 S    
P5    O17   1.794150 S    
P4    O13   1.565954 S    
C38   C41   1.414362 A    
C47   C59   1.398178 A    
C20   H35   1.079619 S    
S2    O31   1.502403 D    
C48   C59   1.390601 A    
C9    H17   1.107188 S    
C21   C23   1.405527 A    
C31   C32   1.427141 A    
C3    H6    1.109080 S    
S5    O41   1.502626 D    
C33   C46   1.442840 A    
C17   C22   1.422960 A    
C50   C51   1.400252 A    
C19   H34   1.083515 S    
C57   H45   1.079325 S    
S4    O40   1.668867 S    
C18   C34   1.410617 A    
C28   H36   1.082576 S    
C45   N3    1.414665 S    
C52   C53   1.435383 A    
C16   S5    1.795535 S    
C15   H31   1.105321 S    
C34   H38   1.077798 S    
N3    O47   1.290060 A    
C11   C12   1.524271 S    
C12   H25   1.108146 S    
C7    H15   1.111466 S    
C4    O15   1.400175 S    
O7    Ba1   2.902781 S    
C23   H37   1.071396 S    
C4    H8    1.109417 S    
C14   H28   1.101160 S    
C24   C27   1.423818 A    
C42   C44   1.412141 A    
Ba2   O20   2.894273 S    
S8    O54   1.679347 S    
S1    O26   1.502038 D    
C36   C39   1.393881 A    
H42   C59   1.057032 S    
C17   C31   1.405094 A    
C6    H12   1.102598 S    
P3    O8    1.752373 S    
C58   S7    1.761006 S    
O54   H53   0.990693 S    
S4    O38   1.496070 D    
C45   C46   1.410622 A    
P5    C50   1.884031 S    
C8    C9    1.541090 S    
O2    Ba2   2.810951 S    
C23   C24   1.411785 A    
C56   C57   1.390311 A    
P7    C60   1.893699 S    
C15   C16   1.555259 S    
O16   Ba2   2.953585 S    
O14   Ba2   2.806589 S    
C9    H18   1.091253 S    
C33   C34   1.409734 A    
S8    O53   1.493096 D    
C44   C45   1.412122 A    
C1    H20   1.110753 S    
P1    C46   1.939882 S    
C22   C26   1.410052 A    
C27   C28   1.393824 A    
Ba2   O21   2.902811 S    
O3    Ba1   2.807293 S    
O19   C13   1.409020 S    
O13   Ba2   2.962517 S    
S7    O49   1.495117 D    
C30   C35   1.406501 A    
P5    O19   1.747669 S    
P8    O24   1.758495 S    
P3    C47   1.867003 S    
C21   C22   1.404184 A    
S5    O43   1.681957 S    
C16   H33   1.104189 S    
Ba1   O13   2.810334 S    
C26   C37   1.404102 A    
C5    H9    1.102992 S    
C39   H40   1.074365 S    
C13   C14   1.543259 S    
O6    P6    1.752819 S    
C41   C43   1.404402 A    
S3    O33   1.502538 D    
C37   C38   1.422879 A    
C53   C60   1.424306 A    
P4    O15   1.751075 S    
S2    O30   1.501105 D    
C54   C55   1.425629 A    
O10   C8    1.405092 S    
C52   C54   1.442661 A    
