data_mof_unit_49093.cif
_audit_creation_date              2012-12-11T15:27:04-0500
_audit_creation_method            fapswitch 2.2
_symmetry_space_group_name_H-M    P1
_symmetry_Int_Tables_number       1
_space_group_crystal_system       triclinic
_cell_length_a                    13.941242
_cell_length_b                    13.941245
_cell_length_c                    27.440012
_cell_angle_alpha                 90.000063
_cell_angle_beta                  89.999965
_cell_angle_gamma                 119.999792
_cell_volume                      4618.69053563

loop_
_atom_site_label
_atom_site_type_symbol
_atom_type_description
_atom_site_fract_x
_atom_site_fract_y
_atom_site_fract_z
_atom_type_partial_charge
C1    C     C_R   0.234218 0.787277 0.568672 0.535802
C2    C     C_R   0.212723 0.446940 0.568672 0.535804
C3    C     C_R   0.553059 0.765782 0.568672 0.535806
C4    C     C_3   0.704841 0.757177 0.784952 -0.237325
C5    C     C_3   0.242905 0.947625 0.784961 -0.237330
C6    C     C_3   0.052322 0.295116 0.784948 -0.237331
C7    C     C_3   0.684106 0.744896 0.729235 -0.272207
C8    C     C_3   0.255187 0.939171 0.729244 -0.272216
C9    C     C_3   0.060777 0.315852 0.729232 -0.272216
C10   C     C_1   0.711450 0.863924 0.858012 -0.075136
C11   C     C_1   0.136076 0.847527 0.858012 -0.075135
C12   C     C_1   0.152473 0.288549 0.858012 -0.075136
C13   C     C_1   0.630999 0.816636 0.657894 -0.006241
C14   C     C_1   0.183364 0.814365 0.657893 -0.006240
C15   C     C_1   0.185635 0.368998 0.657893 -0.006253
C16   C     C_1   0.602344 0.797688 0.615938 0.030621
C17   C     C_1   0.202311 0.804656 0.615938 0.030619
C18   C     C_1   0.195344 0.397655 0.615937 0.030616
C19   C     C_R   0.106756 0.219740 0.948750 0.550427
C20   C     C_R   0.780260 0.887015 0.948750 0.550427
C21   C     C_R   0.112985 0.893244 0.948750 0.550426
C22   C     C_R   0.615472 0.808427 0.385531 0.026030
C23   C     C_R   0.191574 0.807042 0.385531 0.026031
C24   C     C_R   0.192956 0.384528 0.385531 0.026028
C25   C     C_R   0.608998 0.892683 0.359723 0.336297
C26   C     C_R   0.107323 0.716311 0.359721 0.336294
C27   C     C_R   0.283687 0.391006 0.359722 0.336295
C28   C     C_R   0.638911 0.911225 0.311059 -0.094904
C29   C     C_R   0.088782 0.727681 0.311057 -0.094904
C30   C     C_R   0.272316 0.361092 0.311058 -0.094904
C31   C     C_R   0.677918 0.848439 0.287590 -0.094354
C32   C     C_R   0.151562 0.829477 0.287589 -0.094353
C33   C     C_R   0.170519 0.322078 0.287590 -0.094352
C34   C     C_R   0.233023 0.787458 0.431469 0.578523
C35   C     C_R   0.212542 0.445565 0.431469 0.578524
C36   C     C_R   0.554435 0.766977 0.431469 0.578524
C37   C     C_R   0.696318 0.773581 0.314450 -0.095761
C38   C     C_R   0.226414 0.922736 0.314451 -0.095760
C39   C     C_R   0.077261 0.303674 0.314451 -0.095760
C40   C     C_R   0.665151 0.753271 0.363161 0.359550
C41   C     C_R   0.246724 0.911879 0.363161 0.359548
C42   C     C_R   0.088119 0.334843 0.363162 0.359552
C43   C     C_R   0.659573 0.760387 0.206852 -0.113012
C44   C     C_R   0.239615 0.899193 0.206853 -0.113014
C45   C     C_R   0.100805 0.340418 0.206854 -0.113014
C46   C     C_R   0.678956 0.768376 0.156990 -0.131013
C47   C     C_R   0.231625 0.910586 0.156991 -0.131012
C48   C     C_R   0.089413 0.321038 0.156992 -0.131013
C49   C     C_R   0.756090 0.967533 0.161596 -0.124100
C50   C     C_R   0.032470 0.788551 0.161594 -0.124101
C51   C     C_R   0.211446 0.243914 0.161595 -0.124100
C52   C     C_R   0.738596 0.959788 0.211517 -0.112223
C53   C     C_R   0.040215 0.778803 0.211516 -0.112222
C54   C     C_R   0.221193 0.261405 0.211517 -0.112222
C55   C     C_R   0.692912 0.856512 0.234652 0.040124
C56   C     C_R   0.143490 0.836401 0.234652 0.040125
C57   C     C_R   0.163596 0.307083 0.234652 0.040125
C58   C     C_R   0.730540 0.872393 0.134453 0.021605
C59   C     C_R   0.127609 0.858147 0.134452 0.021605
C60   C     C_R   0.141852 0.269459 0.134453 0.021605
C61   C     C_R   0.106573 0.221538 0.086168 0.546650
C62   C     C_R   0.778462 0.885036 0.086168 0.546650
C63   C     C_R   0.114964 0.893427 0.086168 0.546651
C64   C     C_3   0.548392 0.812901 0.738347 0.255535
C65   C     C_3   0.186974 0.735406 0.738342 0.255557
C66   C     C_3   0.264480 0.451618 0.738348 0.255536
C67   C     C_3   0.750734 0.948454 0.722591 -0.198409
C68   C     C_3   0.051587 0.802407 0.722585 -0.198411
C69   C     C_3   0.197760 0.249290 0.722592 -0.198401
C70   C     C_3   0.771740 0.961053 0.778424 -0.221059
C71   C     C_3   0.038987 0.810812 0.778419 -0.221057
C72   C     C_3   0.189356 0.228287 0.778426 -0.221053
C73   C     C_1   0.736996 0.873552 0.900390 -0.020059
C74   C     C_1   0.126448 0.863445 0.900390 -0.020059
C75   C     C_1   0.136555 0.263003 0.900390 -0.020059
C76   C     C_3   0.653621 0.831174 0.710539 0.080650
C77   C     C_3   0.168826 0.822449 0.710538 0.080647
C78   C     C_3   0.177551 0.346376 0.710538 0.080654
C79   C     C_3   0.570039 0.826229 0.794113 -0.165901
C80   C     C_3   0.173646 0.743726 0.794109 -0.165895
C81   C     C_3   0.256160 0.429973 0.794114 -0.165899
C82   C     C_3   0.689578 0.852492 0.805303 0.028779
C83   C     C_3   0.147507 0.837087 0.805302 0.028780
C84   C     C_3   0.162913 0.310420 0.805302 0.028781
Cr1   Cr    Cr6+3 0.164410 0.584450 0.499910 1.147975
Cr2   Cr    Cr6+3 0.415550 0.579960 0.499910 1.147963
Cr3   Cr    Cr6+3 0.420040 0.835590 0.499910 1.147964
Cr4   Cr    Cr6+3 0.156760 0.076070 0.017830 1.023593
Cr5   Cr    Cr6+3 0.923930 0.080690 0.017830 1.023594
Cr6   Cr    Cr6+3 0.919310 0.843240 0.017830 1.023595
H1    H     H_    0.557235 0.893775 0.808330 0.158685
H2    H     H_    0.106040 0.663404 0.808319 0.158703
H3    H     H_    0.336518 0.442808 0.808334 0.158683
H4    H     H_    0.790261 0.773941 0.792679 0.123530
H5    H     H_    0.226231 0.016340 0.792691 0.123543
H6    H     H_    0.983687 0.209686 0.792674 0.123524
H7    H     H_    0.624785 0.970025 0.291073 0.157083
H8    H     H_    0.029988 0.654756 0.291070 0.157081
H9    H     H_    0.345242 0.375221 0.291071 0.157082
H10   H     H_    0.765156 0.035079 0.232217 0.116634
H11   H     H_    0.964925 0.730066 0.232215 0.116635
H12   H     H_    0.269928 0.234848 0.232216 0.116633
H13   H     H_    0.730858 0.727659 0.297221 0.153911
H14   H     H_    0.272332 0.003199 0.297222 0.153910
H15   H     H_    0.996797 0.269129 0.297223 0.153910
H16   H     H_    0.827228 0.962699 0.703512 0.095820
H17   H     H_    0.037434 0.864721 0.703509 0.095818
H18   H     H_    0.135529 0.172787 0.703513 0.095821
H19   H     H_    0.762334 0.031059 0.792111 0.127777
H20   H     H_    0.968924 0.731430 0.792097 0.127765
H21   H     H_    0.268779 0.237726 0.792114 0.127779
H22   H     H_    0.858539 0.981911 0.785973 0.108781
H23   H     H_    0.018215 0.876813 0.785971 0.108782
H24   H     H_    0.123439 0.141478 0.785975 0.108787
H25   H     H_    0.615968 0.659569 0.720926 0.171832
H26   H     H_    0.340487 0.956271 0.720940 0.171934
H27   H     H_    0.043558 0.383970 0.720922 0.171814
H28   H     H_    0.759746 0.756309 0.710295 0.123271
H29   H     H_    0.243866 0.003459 0.710308 0.123280
H30   H     H_    0.996569 0.240203 0.710291 0.123268
O1    O     O_R   0.137310 0.468260 0.552980 -0.496966
O2    O     O_R   0.531740 0.669050 0.552980 -0.496973
O3    O     O_R   0.330950 0.862690 0.552980 -0.496976
O4    O     O_R   0.180530 0.983530 0.965090 -0.510668
O5    O     O_R   0.016470 0.197000 0.965090 -0.510668
O6    O     O_R   0.803000 0.819470 0.965090 -0.510667
O7    O     O_R   0.174120 0.688790 0.549730 -0.495024
O8    O     O_R   0.311210 0.485330 0.549730 -0.495036
O9    O     O_R   0.514670 0.825880 0.549730 -0.495033
O10   O     O_R   0.139940 0.470480 0.446230 -0.410695
O11   O     O_R   0.529520 0.669460 0.446230 -0.410696
O12   O     O_R   0.330540 0.860060 0.446230 -0.410700
O13   O     O_R   0.176560 0.690850 0.450770 -0.445405
O14   O     O_R   0.309150 0.485710 0.450770 -0.445407
O15   O     O_R   0.514290 0.823440 0.450770 -0.445405
O16   O     O_3   0.333333 0.666667 0.499990 -0.336917
O17   O     O_3   0.000000 0.000000 0.017910 -0.217885
O18   O     O_R   0.149710 0.171070 0.967700 -0.496550
O19   O     O_R   0.828930 0.978640 0.967700 -0.496550
O20   O     O_R   0.021360 0.850290 0.967700 -0.496550
O21   O     O_R   0.178510 0.985930 0.071830 -0.518660
O22   O     O_R   0.014070 0.192580 0.071830 -0.518660
O23   O     O_R   0.807420 0.821490 0.071830 -0.518658
O24   O     O_R   0.147830 0.173300 0.066650 -0.500733
O25   O     O_R   0.826700 0.974530 0.066650 -0.500734
O26   O     O_R   0.025470 0.852170 0.066650 -0.500733
H31   H     H_    0.478557 0.727964 0.730812 0.155776
H32   H     H_    0.271882 0.750418 0.730811 0.155617
H33   H     H_    0.249350 0.521435 0.730811 0.155656
H34   H     H_    0.509443 0.748492 0.812935 0.076136
H35   H     H_    0.251352 0.760778 0.812935 0.076101
H36   H     H_    0.238986 0.490548 0.812934 0.076112
F1    F     F_    0.565229 0.951336 0.379845 -0.564408
F2    F     F_    0.048676 0.613886 0.379841 -0.564409
F3    F     F_    0.386113 0.434782 0.379842 -0.564404
H37   H     H_    0.620756 0.679416 0.223819 0.119229
H38   H     H_    0.320585 0.941352 0.223820 0.119229
H39   H     H_    0.058647 0.379231 0.223821 0.119229
H40   H     H_    0.658735 0.694207 0.136481 0.120750
H41   H     H_    0.305794 0.964540 0.136482 0.120751
H42   H     H_    0.035461 0.341255 0.136483 0.120750
H43   H     H_    0.797154 0.048920 0.144954 0.132274
H44   H     H_    0.951084 0.748223 0.144951 0.132272
H45   H     H_    0.251774 0.202855 0.144952 0.132272
F4    F     F_    0.516796 0.887463 0.722373 -0.674008
F5    F     F_    0.112333 0.629279 0.722360 -0.673933
F6    F     F_    0.370648 0.483247 0.722378 -0.674018
F7    F     F_    0.678382 0.675754 0.387397 -0.557877
F8    F     F_    0.324236 0.002628 0.387398 -0.557883
F9    F     F_    0.997371 0.321609 0.387399 -0.557878
H46   H     H_    0.731663 0.012605 0.709469 0.177618
H47   H     H_    0.987378 0.719218 0.709455 0.177609
H48   H     H_    0.280990 0.268389 0.709472 0.177617
H49   H     H_    0.646343 0.677889 0.803309 0.136440
H50   H     H_    0.322165 0.968325 0.803323 0.136445
H51   H     H_    0.031501 0.353592 0.803305 0.136438

loop_
_geom_bond_atom_site_label_1
_geom_bond_atom_site_label_2
_ccdc_geom_bond_type
C28   H7    S    
C58   C62   S    
C15   C18   T    
C80   H35   S    
C9    H27   S    
C14   C17   T    
C24   C27   A    
C62   O23   A    
Cr4   O4    S    
Cr6   O17   S    
C6    C9    S    
C10   C82   S    
Cr5   O5    S    
C25   C28   A    
Cr5   O25   S    
C45   C57   A    
C33   C39   A    
C29   H8    S    
C50   C59   A    
C20   O19   A    
C37   C40   A    
C80   C83   S    
C5    C83   S    
C10   C73   T    
Cr2   O11   S    
C23   C26   A    
C15   C78   S    
C2    C18   S    
Cr5   O22   S    
C71   H20   S    
C72   H24   S    
C24   C42   A    
C71   H23   S    
C14   C77   S    
C7    H25   S    
C38   H14   S    
C42   F9    S    
Cr2   O14   S    
C53   H11   S    
Cr5   O19   S    
C62   O25   A    
Cr2   O2    S    
Cr1   O1    S    
C68   H17   S    
C32   C38   A    
C63   O26   A    
C79   H1    S    
Cr6   O23   S    
C52   C55   A    
C23   C34   S    
C72   H21   S    
C34   O12   A    
C65   C80   S    
C4    H49   S    
C46   C58   A    
C27   C30   A    
C32   C56   S    
C44   H38   S    
C5    H50   S    
C7    H28   S    
C69   C78   S    
C69   H48   S    
C4    C7    S    
C35   O14   A    
C5    H5    S    
C69   H18   S    
C48   C60   A    
C39   C42   A    
C71   C83   S    
C47   H41   S    
C3    O2    A    
C27   F3    S    
C66   C78   S    
C63   O21   A    
C24   C35   S    
C6    C84   S    
Cr2   O8    S    
C50   C53   A    
Cr3   O15   S    
C65   C77   S    
C66   H33   S    
C36   O11   A    
C37   H13   S    
C48   H42   S    
C12   C84   S    
C11   C83   S    
C41   F8    S    
C65   F5    S    
C22   C25   A    
C49   C58   A    
C31   C37   A    
C60   C61   S    
Cr3   O12   S    
C80   H2    S    
C69   C72   S    
C1    O3    A    
C20   O6    A    
C64   F4    S    
C70   H19   S    
Cr1   O10   S    
C2    O1    A    
C81   H3    S    
C44   C56   A    
C61   O24   A    
C61   O22   A    
C13   C76   S    
C49   C52   A    
C22   C40   A    
C64   C76   S    
C51   H45   S    
C65   H32   S    
C35   O10   A    
Cr4   O18   S    
C49   H43   S    
C72   C84   S    
C30   H9    S    
C70   H22   S    
C38   C41   A    
C79   H34   S    
C4    H4    S    
C66   F6    S    
Cr2   O16   S    
C6    H6    S    
C64   H31   S    
C8    C77   S    
C64   C79   S    
C59   C63   S    
C26   F2    S    
C5    C8    S    
C43   H37   S    
C36   O15   A    
Cr4   O21   S    
C81   C84   S    
C45   C48   A    
C43   C55   A    
C68   C77   S    
C39   H15   S    
C33   C57   S    
C30   C33   A    
C50   H44   S    
C3    O9    A    
C1    C17   S    
Cr3   O16   S    
C54   H12   S    
C28   C31   A    
C45   H39   S    
C1    O7    A    
C11   C74   T    
C23   C41   A    
C79   C82   S    
Cr6   O20   S    
C44   C47   A    
C67   H16   S    
C68   C71   S    
C7    C76   S    
C51   C60   A    
C29   C32   A    
C81   H36   S    
C22   C36   S    
Cr5   O17   S    
C34   O13   A    
C9    H30   S    
C51   C54   A    
C67   H46   S    
C67   C70   S    
C21   O4    A    
C19   C75   S    
C13   C16   T    
Cr6   O26   S    
C25   F1    S    
C66   C81   S    
Cr3   O3    S    
C68   H47   S    
Cr3   O9    S    
C6    H51   S    
C19   O18   A    
C46   H40   S    
C21   C74   S    
C19   O5    A    
C20   C73   S    
C9    C78   S    
C70   C82   S    
C43   C46   A    
C53   C56   A    
Cr4   O17   S    
C40   F7    S    
Cr1   O7    S    
C8    H26   S    
Cr1   O16   S    
C47   C59   A    
Cr6   O6    S    
C4    C82   S    
C26   C29   A    
C12   C75   T    
C52   H10   S    
C67   C76   S    
C21   O20   A    
C31   C55   S    
Cr4   O24   S    
C3    C16   S    
C8    H29   S    
Cr1   O13   S    
C54   C57   A    
C2    O8    A    
