data_mof_unit_42570.cif
_audit_creation_date              2012-12-10T18:49:21-0500
_audit_creation_method            fapswitch 2.2
_symmetry_space_group_name_H-M    P1
_symmetry_Int_Tables_number       1
_space_group_crystal_system       triclinic
_cell_length_a                    9.842865
_cell_length_b                    10.845032
_cell_length_c                    13.674772
_cell_angle_alpha                 90.004553
_cell_angle_beta                  84.742329
_cell_angle_gamma                 90.005883
_cell_volume                      1453.58817508

loop_
_atom_site_label
_atom_site_type_symbol
_atom_type_description
_atom_site_fract_x
_atom_site_fract_y
_atom_site_fract_z
_atom_type_partial_charge
C1    C     C_R   0.500428 0.740119 0.498371 0.965403
C2    C     C_R   0.499991 0.259825 0.500418 0.962846
C3    C     C_R   0.500582 0.127330 0.499691 -0.422766
C4    C     C_R   0.501390 0.872551 0.496223 -0.421316
C5    C     C_R   0.477708 0.500655 0.685223 0.884619
C6    C     C_R   0.522297 0.500434 0.314801 0.882828
C7    C     C_R   0.938675 0.471134 0.416888 -0.069228
C8    C     C_R   0.061299 0.530185 0.582813 -0.101761
C9    C     C_R   0.082337 0.469675 0.417235 -0.094215
C10   C     C_R   0.917556 0.528734 0.583116 -0.066912
C11   C     C_1   0.535821 0.508101 0.212509 -0.189736
C12   C     C_1   0.464288 0.508470 0.787565 -0.189938
C13   C     C_2   0.558752 0.526060 0.021502 0.392477
C14   C     C_2   0.441853 0.525111 0.978676 0.393393
C15   C     C_1   0.453176 0.516598 0.874259 -0.061814
C16   C     C_1   0.547234 0.516498 0.125862 -0.062677
C17   C     C_R   0.624911 0.936717 0.501801 0.319155
C18   C     C_R   0.376014 0.062652 0.504512 0.317488
C19   C     C_R   0.625757 0.063451 0.492385 0.319174
C20   C     C_R   0.378277 0.936865 0.489770 0.317408
H1    H     H_    0.893109 0.447407 0.350391 0.129421
H2    H     H_    0.106846 0.554739 0.649060 0.140129
H3    H     H_    0.144697 0.444906 0.350958 0.148744
H4    H     H_    0.855169 0.552679 0.649591 0.144086
N1    N     N_R   0.142790 0.500030 0.500020 -0.073227
N2    N     N_R   0.857210 0.499970 0.499980 -0.064952
O1    O     O_R   0.385380 0.683250 0.500010 -0.568599
O2    O     O_R   0.614620 0.316750 0.499990 -0.575339
O3    O     O_R   0.614710 0.683220 0.500000 -0.577580
O4    O     O_R   0.385290 0.316780 0.500000 -0.569675
O5    O     O_R   0.368830 0.499990 0.640350 -0.638228
O6    O     O_R   0.631170 0.500010 0.359650 -0.641550
O7    O     O_R   0.598160 0.499960 0.640350 -0.620236
O8    O     O_R   0.401840 0.500040 0.359650 -0.618790
Zn1   Zn    Zn3+2 0.346870 0.500020 0.500000 0.966566
Zn2   Zn    Zn3+2 0.653130 0.499980 0.500000 0.970169
O9    O     O_3   0.316230 0.527593 0.036229 -0.669495
C21   C     C_3   0.203636 0.550849 0.981198 0.094082
H5    H     H_    0.109849 0.527535 0.028564 0.136104
H6    H     H_    0.202195 0.487554 0.917174 0.144194
C22   C     C_3   0.196337 0.687953 0.952008 -0.352361
H7    H     H_    0.139390 0.740451 0.012325 0.211996
H8    H     H_    0.300126 0.728702 0.940688 0.223377
C23   C     C_3   0.127296 0.705178 0.857389 -0.983322
H9    H     H_    0.189906 0.662014 0.794885 0.274143
H10   H     H_    0.117288 0.805095 0.841847 0.259333
H11   H     H_    0.024230 0.663096 0.863804 0.260077
O10   O     O_3   0.684287 0.534138 0.964147 -0.669378
C24   C     C_3   0.797328 0.549605 0.020303 0.095494
H12   H     H_    0.890782 0.529665 0.971432 0.136803
H13   H     H_    0.797659 0.479830 0.080048 0.139964
C25   C     C_3   0.806614 0.683063 0.058330 -0.364769
H14   H     H_    0.864477 0.740624 0.001663 0.213250
H15   H     H_    0.703466 0.724527 0.072116 0.225321
C26   C     C_3   0.875672 0.689167 0.153818 -0.959061
H16   H     H_    0.814312 0.638391 0.212998 0.281907
H17   H     H_    0.884181 0.786840 0.176841 0.262065
H18   H     H_    0.979383 0.648680 0.144083 0.258331
O11   O     O_3   0.748503 0.876822 0.506117 -0.564700
C27   C     C_3   0.784201 0.879080 0.603991 0.143070
H19   H     H_    0.728938 0.804508 0.647004 0.138248
H20   H     H_    0.760881 0.968966 0.641610 0.139404
C28   C     C_3   0.936744 0.857248 0.603700 -0.787828
H21   H     H_    0.993370 0.934713 0.566365 0.280751
H22   H     H_    0.965363 0.849792 0.680153 0.192996
H23   H     H_    0.966230 0.771657 0.563239 0.273640
O12   O     O_3   0.250999 0.121499 0.519106 -0.563189
C29   C     C_3   0.208218 0.117364 0.620639 0.138153
H24   H     H_    0.285741 0.160151 0.664680 0.120217
H25   H     H_    0.189892 0.020532 0.645601 0.146269
C30   C     C_3   0.075973 0.189141 0.640830 -0.811590
H26   H     H_    0.995117 0.149938 0.598752 0.278857
H27   H     H_    0.041357 0.185180 0.720358 0.194239
H28   H     H_    0.092930 0.286637 0.619247 0.267808
O13   O     O_3   0.750470 0.123516 0.484975 -0.564718
C31   C     C_3   0.805878 0.122237 0.385773 0.146607
H29   H     H_    0.761651 0.199331 0.345431 0.131149
H30   H     H_    0.786960 0.033969 0.347216 0.135350
C32   C     C_3   0.959529 0.139476 0.381909 -0.796742
H31   H     H_    0.005972 0.060199 0.417510 0.280105
H32   H     H_    0.003804 0.145989 0.304437 0.187760
H33   H     H_    0.984124 0.224342 0.421568 0.271621
O14   O     O_3   0.258096 0.877666 0.472649 -0.564588
C33   C     C_3   0.245913 0.880912 0.370423 0.139295
H34   H     H_    0.337672 0.840387 0.328320 0.122460
H35   H     H_    0.231989 0.977362 0.345230 0.146927
C34   C     C_3   0.122675 0.805695 0.346958 -0.809182
H36   H     H_    0.028046 0.842846 0.386473 0.273754
H37   H     H_    0.112631 0.808807 0.266794 0.199706
H38   H     H_    0.136057 0.708612 0.369058 0.270729

loop_
_geom_bond_atom_site_label_1
_geom_bond_atom_site_label_2
_ccdc_geom_bond_type
C6    O6    A    
C34   H36   S    
C28   H22   S    
C22   H7    S    
C33   C34   S    
C26   H16   S    
C32   H33   S    
C9    N1    A    
C23   H9    S    
O3    Zn2   S    
C7    N2    A    
O4    Zn1   S    
C27   C28   S    
O6    Zn2   S    
C31   H30   S    
C21   H5    S    
O7    Zn2   S    
C3    C18   A    
C27   H20   S    
O8    Zn1   S    
C34   H38   S    
C34   H37   S    
C23   H10   S    
C29   H24   S    
C24   H13   S    
C5    O7    A    
C8    H2    S    
C31   C32   S    
C3    C19   A    
C23   H11   S    
C10   N2    A    
C28   H23   S    
O11   C27   S    
C13   C14   D    
C8    N1    A    
C22   H8    S    
C25   H15   S    
O12   C29   S    
C31   H29   S    
C21   C22   S    
C6    C11   S    
C30   H27   S    
C9    H3    S    
O1    Zn1   S    
C18   O12   S    
C7    H1    S    
C32   H31   S    
C27   H19   S    
O13   C31   S    
O9    C21   S    
C30   H28   S    
C11   C16   T    
O14   C33   S    
C12   C15   T    
C24   C25   S    
C1    O3    A    
C33   H34   S    
C17   O11   S    
C4    C17   A    
N2    Zn2   S    
O10   C24   S    
N1    Zn1   S    
C26   H17   S    
C22   C23   S    
O5    Zn1   S    
C26   H18   S    
C25   H14   S    
C32   H32   S    
C7    C9    A    
C33   H35   S    
C13   O10   S    
C25   C26   S    
C2    O4    A    
C1    C4    S    
C10   H4    S    
C19   O13   S    
C2    C3    S    
C13   C16   S    
C30   H26   S    
C14   O9    S    
C21   H6    S    
C29   C30   S    
C17   C19   A    
C18   C20   A    
C5    C12   S    
C28   H21   S    
C4    C20   A    
C6    O8    A    
O2    Zn2   S    
C8    C10   A    
C24   H12   S    
C20   O14   S    
C1    O1    A    
C29   H25   S    
C14   C15   S    
C2    O2    A    
C5    O5    A    
