data_mof_unit_51237.cif
_audit_creation_date              2012-12-10T17:35:45-0500
_audit_creation_method            fapswitch 2.2
_symmetry_space_group_name_H-M    P1
_symmetry_Int_Tables_number       1
_space_group_crystal_system       triclinic
_cell_length_a                    10.500596
_cell_length_b                    11.968029
_cell_length_c                    12.930158
_cell_angle_alpha                 94.843783
_cell_angle_beta                  90.208164
_cell_angle_gamma                 85.865693
_cell_volume                      1614.92994835

loop_
_atom_site_label
_atom_site_type_symbol
_atom_type_description
_atom_site_fract_x
_atom_site_fract_y
_atom_site_fract_z
_atom_type_partial_charge
C1    C     C_R   0.498295 0.524069 0.701089 0.872985
C2    C     C_R   0.501730 0.475930 0.298911 0.872990
C3    C     C_R   0.492260 0.443638 0.865485 -0.296636
C4    C     C_R   0.507783 0.556361 0.134515 -0.296637
C5    C     C_R   0.496506 0.448020 0.971642 0.142800
C6    C     C_R   0.503572 0.551974 0.028360 0.142790
C7    C     C_R   0.360322 0.955811 0.423514 -0.348800
C8    C     C_R   0.639718 0.044184 0.576435 -0.348751
C9    C     C_R   0.376546 0.839098 0.427988 0.023970
C10   C     C_R   0.623479 0.160899 0.571983 0.023973
C11   C     C_R   0.563369 0.857464 0.529970 -0.058912
C12   C     C_R   0.436643 0.142534 0.470013 -0.058946
C13   C     C_R   0.551591 0.975175 0.526930 0.098529
C14   C     C_R   0.448434 0.024822 0.473037 0.098539
C15   C     C_R   0.742787 0.499795 0.500127 0.867699
C16   C     C_R   0.257213 0.500205 0.499873 0.867746
C17   C     C_3   0.968382 0.394227 0.508335 -0.140633
C18   C     C_3   0.031618 0.605773 0.491665 -0.140627
C19   C     C_3   0.045800 0.463177 0.589246 -0.176334
C20   C     C_3   0.954200 0.536823 0.410753 -0.176340
C21   C     C_3   0.122168 0.500910 0.499850 0.030207
C22   C     C_3   0.877832 0.499090 0.500150 0.030221
C23   C     C_3   0.047443 0.432121 0.418924 -0.183379
C24   C     C_3   0.952557 0.567878 0.581076 -0.183379
C25   C     C_R   0.502916 0.458593 0.186237 -0.112894
C26   C     C_R   0.497157 0.541402 0.813764 -0.112904
C27   C     C_R   0.505821 0.651102 0.978974 -0.214677
C28   C     C_R   0.494304 0.348890 0.021031 -0.214702
C29   C     C_R   0.502927 0.648559 0.870540 0.085853
C30   C     C_R   0.497247 0.351430 0.129464 0.085848
H1    H     H_    0.087999 0.433360 0.661739 0.133507
H2    H     H_    0.912000 0.566639 0.338261 0.133507
H3    H     H_    0.938559 0.307993 0.515179 0.137529
H4    H     H_    0.061441 0.692008 0.484821 0.137533
H5    H     H_    0.091023 0.377048 0.353083 0.127120
H6    H     H_    0.908976 0.622952 0.646916 0.127109
H7    H     H_    0.514078 0.637985 0.176821 0.172743
H8    H     H_    0.485925 0.362018 0.823176 0.172745
H9    H     H_    0.510250 0.729450 0.026534 0.127311
H10   H     H_    0.489896 0.270539 0.973475 0.127319
H11   H     H_    0.359138 0.182205 0.427703 0.121814
H12   H     H_    0.640873 0.817795 0.572282 0.121780
H13   H     H_    0.691736 0.214191 0.609759 0.130460
H14   H     H_    0.308296 0.785805 0.390203 0.130454
H15   H     H_    0.279589 0.991636 0.382056 0.138711
H16   H     H_    0.720480 0.008357 0.617861 0.138679
N1    N     N_R   0.523490 0.207800 0.519350 -0.100510
N2    N     N_R   0.476510 0.792200 0.480650 -0.100495
O1    O     O_R   0.506270 0.421700 0.658830 -0.618250
O2    O     O_R   0.493730 0.578300 0.341170 -0.618249
O3    O     O_R   0.491200 0.609310 0.646410 -0.637734
O4    O     O_R   0.508800 0.390690 0.353590 -0.637764
O5    O     O_R   0.693580 0.406210 0.506230 -0.633160
O6    O     O_R   0.306420 0.593790 0.493770 -0.633139
O7    O     O_R   0.678510 0.593830 0.493810 -0.625429
O8    O     O_R   0.321490 0.406170 0.506190 -0.625413
Zn1   Zn    Zn3+2 0.510060 0.374730 0.508290 0.928241
Zn2   Zn    Zn3+2 0.489940 0.625270 0.491710 0.928259
C31   C     C_3   0.493363 0.242908 0.183658 -0.372627
C32   C     C_3   0.488740 0.133095 0.113053 -0.401297
C33   C     C_3   0.483373 0.031983 0.176958 -0.873954
H17   H     H_    0.566625 0.026190 0.229978 0.268267
H18   H     H_    0.393911 0.039543 0.223156 0.258811
H19   H     H_    0.484821 0.953612 0.124452 0.240926
H20   H     H_    0.402368 0.137029 0.063144 0.226753
H21   H     H_    0.575580 0.120339 0.063326 0.227730
H22   H     H_    0.580547 0.233883 0.232130 0.224288
H23   H     H_    0.407533 0.250628 0.234576 0.208945
C34   C     C_3   0.506989 0.757071 0.816353 -0.372578
C35   C     C_3   0.512002 0.866865 0.886974 -0.401173
C36   C     C_3   0.517630 0.967962 0.823079 -0.873582
H24   H     H_    0.606902 0.960010 0.776585 0.258711
H25   H     H_    0.434107 0.974134 0.770335 0.268192
H26   H     H_    0.516857 0.046324 0.875611 0.240823
H27   H     H_    0.425214 0.879838 0.936770 0.227701
H28   H     H_    0.598440 0.862709 0.936817 0.226692
H29   H     H_    0.592771 0.749187 0.765361 0.208869
H30   H     H_    0.419751 0.766267 0.767953 0.224222

loop_
_geom_bond_atom_site_label_1
_geom_bond_atom_site_label_2
_ccdc_geom_bond_type
C16   C21   S    
C27   C29   A    
C18   C21   S    
C34   H29   S    
C19   H1    S    
C4    C25   A    
C11   N2    A    
C24   H6    S    
C18   C24   S    
C15   O5    A    
C19   C21   S    
O6    Zn2   S    
C5    C6    A    
C28   H10   S    
O1    Zn1   S    
O8    Zn1   S    
C11   H12   S    
C33   H18   S    
C2    O2    A    
C31   H22   S    
C15   C22   S    
C3    H8    S    
C27   H9    S    
C35   C36   S    
C32   H21   S    
C31   C32   S    
C13   C14   A    
C34   H30   S    
C34   C35   S    
C17   H3    S    
C12   N1    A    
C29   C34   S    
C7    C14   A    
O2    Zn2   S    
C4    C6    A    
C36   H25   S    
O5    Zn1   S    
C32   C33   S    
C15   O7    A    
C33   H19   S    
C16   O8    A    
C12   H11   S    
C31   H23   S    
N1    Zn1   S    
C5    C28   A    
C18   H4    S    
C6    C27   A    
C20   C23   S    
C30   C31   S    
O3    Zn2   S    
C17   C23   S    
C1    O3    A    
C2    O4    A    
C26   C29   A    
C12   C14   A    
C32   H20   S    
C23   H5    S    
C21   C23   S    
C35   H28   S    
C1    C26   S    
C22   C24   S    
C7    H15   S    
C35   H27   S    
C20   H2    S    
C25   C30   A    
C7    C9    A    
C9    H14   S    
C10   H13   S    
C3    C26   A    
C20   C22   S    
C3    C5    A    
C36   H26   S    
N2    Zn2   S    
C17   C22   S    
C28   C30   A    
C19   C24   S    
C36   H24   S    
C11   C13   A    
C17   C19   S    
C2    C25   S    
C18   C20   S    
C33   H17   S    
C16   O6    A    
O4    Zn1   S    
C8    C13   A    
C4    H7    S    
C9    N2    A    
C8    C10   A    
O7    Zn2   S    
C10   N1    A    
C8    H16   S    
C1    O1    A    
