data_mof_unit_63581.cif
_audit_creation_date              2013-03-05T15:40:27-0500
_audit_creation_method            fapswitch 2.2
_symmetry_space_group_name_H-M    P1
_symmetry_Int_Tables_number       1
_space_group_crystal_system       triclinic
_cell_length_a                    23.670199
_cell_length_b                    31.230571
_cell_length_c                    19.372282
_cell_angle_alpha                 89.983069
_cell_angle_beta                  127.013031
_cell_angle_gamma                 90.025936
_cell_volume                      11435.0150206

loop_
_atom_site_label
_atom_site_type_symbol
_atom_site_description
_atom_site_fract_x
_atom_site_fract_y
_atom_site_fract_z
_atom_type_partial_charge
O1    O     O_R   0.820280 0.231270 0.140580 -0.587837
O2    O     O_R   0.179720 0.768730 0.859420 -0.603146
O3    O     O_R   0.179720 0.231270 0.859420 -0.595827
O4    O     O_R   0.820280 0.768730 0.140580 -0.599255
O5    O     O_R   0.320280 0.731270 0.140580 -0.596043
O6    O     O_R   0.679720 0.268730 0.859420 -0.599055
O7    O     O_R   0.679720 0.731270 0.859420 -0.590180
O8    O     O_R   0.320280 0.268730 0.140580 -0.602872
O9    O     O_R   0.768770 0.179750 0.037530 -0.570785
O10   O     O_R   0.231230 0.820250 0.962470 -0.524711
O11   O     O_R   0.231230 0.179750 0.962470 -0.534626
O12   O     O_R   0.768770 0.820250 0.037530 -0.543649
O13   O     O_R   0.268770 0.679750 0.037530 -0.535129
O14   O     O_R   0.731230 0.320250 0.962470 -0.543137
O15   O     O_R   0.731230 0.679750 0.962470 -0.556682
O16   O     O_R   0.268770 0.320250 0.037530 -0.524374
C1    C     C_R   0.807853 0.191610 0.117850 0.894134
C2    C     C_R   0.195037 0.808331 0.882201 0.877167
C3    C     C_R   0.194530 0.191521 0.882519 0.865263
C4    C     C_R   0.804849 0.808542 0.117599 0.874637
C5    C     C_R   0.305366 0.691530 0.117484 0.865798
C6    C     C_R   0.695205 0.308539 0.882378 0.873021
C7    C     C_R   0.691957 0.691598 0.882102 0.891298
C8    C     C_R   0.305032 0.308330 0.117812 0.876475
O17   O     O_R   0.694370 0.275780 0.051550 -0.574520
O18   O     O_R   0.305630 0.724220 0.948450 -0.585228
O19   O     O_R   0.305630 0.275780 0.948450 -0.582299
O20   O     O_R   0.694370 0.724220 0.051550 -0.583619
O21   O     O_R   0.194370 0.775780 0.051550 -0.581492
O22   O     O_R   0.805630 0.224220 0.948450 -0.583923
O23   O     O_R   0.805630 0.775780 0.948450 -0.573539
O24   O     O_R   0.194370 0.224220 0.051550 -0.585656
O25   O     O_R   0.642860 0.224260 0.948500 -0.573033
O26   O     O_R   0.357140 0.775740 0.051500 -0.580252
O27   O     O_R   0.357140 0.224260 0.051500 -0.571588
O28   O     O_R   0.642860 0.775740 0.948500 -0.596478
O29   O     O_R   0.142860 0.724260 0.948500 -0.572119
O30   O     O_R   0.857140 0.275740 0.051500 -0.596471
O31   O     O_R   0.857140 0.724260 0.051500 -0.575422
O32   O     O_R   0.142860 0.275740 0.948500 -0.579095
C9    C     C_R   0.641991 0.250123 0.000196 0.844217
C10   C     C_R   0.358012 0.749884 0.999804 0.807889
C11   C     C_R   0.358034 0.250160 0.999850 0.811908
C12   C     C_R   0.642022 0.749906 0.000263 0.795761
C13   C     C_R   0.141957 0.750151 0.000132 0.812729
C14   C     C_R   0.857987 0.249913 0.999757 0.796834
C15   C     C_R   0.857994 0.750123 0.999774 0.842213
C16   C     C_R   0.141997 0.249877 0.000215 0.808227
Cu1   Cu    Cu3+1 0.780520 0.280530 0.061040 0.981108
Cu2   Cu    Cu3+1 0.219480 0.719470 0.938960 0.987177
Cu3   Cu    Cu3+1 0.219480 0.280530 0.938960 0.996579
Cu4   Cu    Cu3+1 0.780520 0.719470 0.061040 0.973016
Cu5   Cu    Cu3+1 0.280520 0.780530 0.061040 0.995808
Cu6   Cu    Cu3+1 0.719480 0.219470 0.938960 0.964977
Cu7   Cu    Cu3+1 0.719480 0.780530 0.938960 0.982191
Cu8   Cu    Cu3+1 0.280520 0.219470 0.061040 0.988321
C17   C     C_1   0.581195 0.250407 0.000343 -0.145323
C18   C     C_1   0.418802 0.749650 0.999641 -0.159646
C19   C     C_1   0.418829 0.250457 0.999693 -0.151430
C20   C     C_1   0.581250 0.749671 0.000458 -0.160345
C21   C     C_1   0.081139 0.750436 0.000241 -0.151480
C22   C     C_1   0.918782 0.249687 0.999611 -0.161515
C23   C     C_1   0.918763 0.750405 0.999571 -0.147247
C24   C     C_1   0.081231 0.249638 0.000430 -0.159653
C25   C     C_1   0.530037 0.250536 0.000181 0.021277
C26   C     C_1   0.469986 0.749579 0.999853 0.010199
C27   C     C_1   0.469992 0.250560 0.999863 0.018430
C28   C     C_1   0.530069 0.749589 0.000251 0.009359
C29   C     C_1   0.029962 0.750538 0.000044 0.017826
C30   C     C_1   0.969973 0.249601 0.999840 0.009286
C31   C     C_1   0.969914 0.750523 0.999717 0.019663
C32   C     C_1   0.030058 0.249576 0.000239 0.010155
C33   C     C_2   0.835834 0.099269 0.261251 0.141593
C34   C     C_2   0.165855 0.906074 0.748239 0.148813
C35   C     C_2   0.150524 0.086779 0.758345 0.149680
C36   C     C_2   0.839915 0.912107 0.242505 0.145920
C37   C     C_2   0.348537 0.586964 0.242016 0.147875
C38   C     C_2   0.662149 0.411510 0.756778 0.144229
C39   C     C_2   0.664054 0.599458 0.738565 0.129697
C40   C     C_2   0.334003 0.405795 0.252232 0.148348
C41   C     C_2   0.900537 0.081692 0.297336 0.100788
C42   C     C_2   0.095792 0.915395 0.698935 0.162129
C43   C     C_2   0.086841 0.093243 0.681020 0.126967
C44   C     C_2   0.909260 0.909994 0.311034 0.150626
C45   C     C_2   0.412987 0.593099 0.318584 0.126791
C46   C     C_2   0.591748 0.411255 0.691580 0.144076
C47   C     C_2   0.600648 0.580511 0.704254 0.107533
C48   C     C_2   0.403779 0.415804 0.300380 0.160859
C49   C     C_2   0.802511 0.126055 0.182717 0.433569
C50   C     C_2   0.196097 0.879682 0.827051 0.465465
C51   C     C_2   0.177228 0.117125 0.830586 0.435615
C52   C     C_2   0.811223 0.882666 0.167864 0.449679
C53   C     C_2   0.321524 0.617187 0.169465 0.435232
C54   C     C_2   0.690867 0.382397 0.831849 0.457436
C55   C     C_2   0.697134 0.625858 0.817579 0.435008
C56   C     C_2   0.303451 0.379460 0.173255 0.465619
C57   C     C_2   0.838966 0.159948 0.186417 -0.351039
C58   C     C_2   0.173623 0.839015 0.813578 -0.364938
C59   C     C_2   0.170944 0.159556 0.815636 -0.365642
C60   C     C_2   0.824607 0.840436 0.184126 -0.362306
C61   C     C_2   0.328955 0.659615 0.184470 -0.364726
C62   C     C_2   0.675540 0.340330 0.815669 -0.363147
C63   C     C_2   0.660898 0.659956 0.813381 -0.332473
C64   C     C_2   0.326852 0.339021 0.186546 -0.365098
H1    H     H_    0.891373 0.166793 0.245383 0.137337
H2    H     H_    0.141041 0.826575 0.747827 0.095383
H3    H     H_    0.148345 0.171681 0.751424 0.145818
H4    H     H_    0.848149 0.828423 0.248818 0.109097
H5    H     H_    0.352565 0.671806 0.248903 0.145634
H6    H     H_    0.650461 0.328288 0.750609 0.105227
H7    H     H_    0.608937 0.667007 0.753835 0.127350
H8    H     H_    0.360554 0.326704 0.252365 0.096230
Cu9   Cu    Cu3+1 0.944230 0.000000 0.500020 1.062968
Cu10  Cu    Cu3+1 0.055770 0.000000 0.499980 1.040543
Cu11  Cu    Cu3+1 0.444230 0.500000 0.500020 1.039213
Cu12  Cu    Cu3+1 0.555770 0.500000 0.499980 1.064956
C65   C     C_R   0.439866 0.442635 0.378976 0.818543
C66   C     C_R   0.560983 0.556503 0.622219 0.787757
C67   C     C_R   0.559418 0.442210 0.619932 0.775116
C68   C     C_R   0.442724 0.559571 0.384335 0.827572
C69   C     C_R   0.941006 0.941801 0.380953 0.785754
C70   C     C_R   0.057235 0.059603 0.615555 0.828098
C71   C     C_R   0.060048 0.942564 0.620874 0.819222
C72   C     C_R   0.939213 0.056696 0.378071 0.800197
O33   O     O_R   0.502640 0.455510 0.411000 -0.585580
O34   O     O_R   0.497360 0.544490 0.589000 -0.585903
O35   O     O_R   0.497360 0.455510 0.589000 -0.596739
O36   O     O_R   0.502640 0.544490 0.411000 -0.583991
O37   O     O_R   0.002640 0.955510 0.411000 -0.596950
O38   O     O_R   0.997360 0.044490 0.589000 -0.583737
O39   O     O_R   0.997360 0.955510 0.589000 -0.584731
O40   O     O_R   0.002640 0.044490 0.411000 -0.583584
O41   O     O_R   0.408410 0.455510 0.411000 -0.533636
O42   O     O_R   0.591590 0.544490 0.589000 -0.536504
O43   O     O_R   0.591590 0.455510 0.589000 -0.548635
O44   O     O_R   0.408410 0.544490 0.411000 -0.561840
O45   O     O_R   0.908410 0.955510 0.411000 -0.553249
O46   O     O_R   0.091590 0.044490 0.589000 -0.563500
O47   O     O_R   0.091590 0.955510 0.589000 -0.536618
O48   O     O_R   0.908410 0.044490 0.411000 -0.539764
N1    N     N_R   0.798480 0.094227 0.297778 0.131170
O49   O     O_R   0.779270 0.128179 0.317681 -0.347092
O50   O     O_R   0.768708 0.057778 0.290441 -0.274406
N2    N     N_R   0.208733 0.914336 0.719955 0.087732
O51   O     O_R   0.228612 0.953211 0.720197 -0.288635
O52   O     O_R   0.239844 0.882529 0.711937 -0.402291
N3    N     N_R   0.190075 0.047967 0.776796 0.123507
O53   O     O_R   0.258791 0.049535 0.824375 -0.324159
O54   O     O_R   0.159502 0.011108 0.763534 -0.407615
N4    N     N_R   0.793755 0.942922 0.240041 0.094247
O55   O     O_R   0.805936 0.983624 0.241136 -0.390703
O56   O     O_R   0.734234 0.930527 0.223422 -0.366057
N5    N     N_R   0.308111 0.548648 0.224602 0.122956
O57   O     O_R   0.239497 0.550893 0.178018 -0.326033
O58   O     O_R   0.337568 0.511397 0.237908 -0.407086
N6    N     N_R   0.709718 0.439073 0.754714 0.092049
O59   O     O_R   0.702084 0.480418 0.752599 -0.380974
O60   O     O_R   0.767442 0.423372 0.770811 -0.370918
N7    N     N_R   0.698904 0.597446 0.698410 0.123874
O61   O     O_R   0.716211 0.632912 0.680236 -0.351298
O62   O     O_R   0.728643 0.561936 0.700581 -0.286215
N8    N     N_R   0.292117 0.413024 0.282223 0.087270
O63   O     O_R   0.270644 0.451460 0.281571 -0.291201
O64   O     O_R   0.263368 0.380535 0.292376 -0.401930
O65   O     O_3   0.932274 0.086878 0.256586 -0.624809
C73   C     C_3   0.920884 0.049428 0.208771 0.081160
H9    H     H_    0.863915 0.040211 0.166530 0.142914
H10   H     H_    0.952446 0.022330 0.253101 0.172085
C74   C     C_3   0.944108 0.057729 0.151551 -0.338302
H11   H     H_    0.914046 0.085350 0.108233 0.219586
H12   H     H_    0.001362 0.065866 0.192844 0.233282
C75   C     C_3   0.931361 0.018599 0.096667 -0.885922
H13   H     H_    0.961448 0.990654 0.138721 0.267814
H14   H     H_    0.949301 0.025531 0.056437 0.257915
H15   H     H_    0.874125 0.010580 0.053200 0.263598
O66   O     O_3   0.058019 0.904810 0.730437 -0.595434
C76   C     C_3   0.004540 0.874395 0.675865 0.056371
H16   H     H_    0.023520 0.842174 0.705488 0.148601
H17   H     H_    0.989757 0.872630 0.609233 0.104292
C77   C     C_3   0.938418 0.885098 0.669199 -0.282050
H18   H     H_    0.951816 0.885224 0.734934 0.225750
H19   H     H_    0.919273 0.917539 0.640724 0.235532
C78   C     C_3   0.879474 0.852651 0.613027 -0.906109
H20   H     H_    0.864151 0.852656 0.546390 0.259629
H21   H     H_    0.832419 0.861273 0.609779 0.264206
H22   H     H_    0.897101 0.820020 0.641000 0.259160
O67   O     O_3   0.044263 0.127194 0.672118 -0.638212
C79   C     C_3   0.997991 0.143038 0.586251 0.077315
H23   H     H_    0.963764 0.167538 0.585800 0.187012
H24   H     H_    0.961111 0.118174 0.539600 0.165870
C80   C     C_3   0.037921 0.164775 0.555991 -0.429277
H25   H     H_    0.070416 0.191541 0.600405 0.230544
H26   H     H_    0.073657 0.141505 0.556533 0.215940
C81   C     C_3   0.986526 0.182386 0.464446 -0.838666
H27   H     H_    0.953843 0.156115 0.418619 0.247958
H28   H     H_    0.016625 0.197641 0.443939 0.258174
H29   H     H_    0.951236 0.206749 0.462109 0.262424
O68   O     O_3   0.954071 0.882509 0.308024 -0.607004
C82   C     C_3   0.993200 0.856292 0.382973 0.052727
H30   H     H_    0.977532 0.822473 0.362316 0.158222
H31   H     H_    0.983282 0.862765 0.431588 0.090389
C83   C     C_3   0.072343 0.860650 0.426160 -0.309762
H32   H     H_    0.083221 0.849870 0.380523 0.222674
H33   H     H_    0.088624 0.894682 0.442635 0.250265
C84   C     C_3   0.116343 0.834002 0.508728 -0.851545
H34   H     H_    0.107657 0.845107 0.556179 0.255203
H35   H     H_    0.173356 0.837536 0.538067 0.284066
H36   H     H_    0.101805 0.799627 0.494042 0.243546
O69   O     O_3   0.455810 0.626633 0.326400 -0.638149
C85   C     C_3   0.502920 0.642689 0.412007 0.079205
H37   H     H_    0.536998 0.666947 0.411487 0.186615
H38   H     H_    0.539893 0.617865 0.458637 0.169341
C86   C     C_3   0.464067 0.664910 0.443251 -0.432469
H39   H     H_    0.432046 0.691902 0.399268 0.230428
H40   H     H_    0.428007 0.642028 0.442992 0.215316
C87   C     C_3   0.516391 0.682207 0.534893 -0.834916
H41   H     H_    0.548427 0.655681 0.580355 0.248716
H42   H     H_    0.487077 0.697967 0.555996 0.256405
H43   H     H_    0.552238 0.706085 0.537092 0.264368
O70   O     O_3   0.547200 0.386657 0.700199 -0.606450
C88   C     C_3   0.503926 0.359410 0.627639 0.062314
H44   H     H_    0.520307 0.325791 0.649485 0.154671
H45   H     H_    0.508267 0.364641 0.573928 0.094440
C89   C     C_3   0.426636 0.364427 0.592724 -0.309998
H46   H     H_    0.421055 0.355427 0.643872 0.221677
H47   H     H_    0.410096 0.398346 0.574680 0.247559
C90   C     C_3   0.377916 0.336301 0.513384 -0.852377
H48   H     H_    0.381587 0.345453 0.460764 0.268957
H49   H     H_    0.322349 0.340569 0.489784 0.275302
H50   H     H_    0.392550 0.302048 0.530017 0.244360
O71   O     O_3   0.572504 0.582441 0.749683 -0.621059
C91   C     C_3   0.583275 0.542524 0.790592 0.076058
H51   H     H_    0.636288 0.528565 0.817599 0.135276
H52   H     H_    0.541712 0.519467 0.743514 0.177245
C92   C     C_3   0.578399 0.548685 0.865032 -0.350628
H53   H     H_    0.618570 0.572560 0.911248 0.223298
H54   H     H_    0.525068 0.561085 0.839394 0.234380
C93   C     C_3   0.591270 0.506651 0.912712 -0.876794
H55   H     H_    0.551274 0.482392 0.867884 0.269415
H56   H     H_    0.587051 0.512091 0.966096 0.256938
H57   H     H_    0.645049 0.494228 0.940602 0.261865
O72   O     O_3   0.440630 0.406344 0.267174 -0.596958
C94   C     C_3   0.494894 0.376079 0.320192 0.057958
H58   H     H_    0.476251 0.344003 0.289691 0.148322
H59   H     H_    0.510585 0.373470 0.387166 0.107341
C95   C     C_3   0.560129 0.387973 0.325682 -0.283922
H60   H     H_    0.545803 0.388983 0.259508 0.225384
H61   H     H_    0.578957 0.420281 0.355065 0.235931
C96   C     C_3   0.619831 0.355727 0.380029 -0.903822
H62   H     H_    0.636073 0.354867 0.447075 0.261202
H63   H     H_    0.666207 0.365223 0.382450 0.263887
H64   H     H_    0.602518 0.323251 0.351101 0.258779
O73   O     O_3   0.730690 0.122486 0.115299 -0.581571
C97   C     C_3   0.714448 0.080927 0.078864 0.108255
H65   H     H_    0.657677 0.074758 0.048128 0.182996
H66   H     H_    0.744224 0.055011 0.127468 0.169695
C98   C     C_3   0.725563 0.078490 0.008758 -0.363732
H67   H     H_    0.688792 0.101095 0.955705 0.241548
H68   H     H_    0.780591 0.087988 0.036188 0.223409
C99   C     C_3   0.712416 0.033350 0.972014 -0.944665
H69   H     H_    0.751388 0.010844 0.023450 0.252196
H70   H     H_    0.718662 0.032950 0.919628 0.267700
H71   H     H_    0.658011 0.022617 0.945129 0.263395
O74   O     O_3   0.235253 0.896658 0.910552 -0.589934
C100  C     C_3   0.280342 0.930612 0.923830 0.102302
H72   H     H_    0.295740 0.947948 0.982921 0.167351
H73   H     H_    0.253686 0.954862 0.871560 0.220287
C101  C     C_3   0.348034 0.913438 0.939841 -0.383875
H74   H     H_    0.376107 0.892262 0.997602 0.225944
H75   H     H_    0.334696 0.894184 0.883702 0.256916
C102  C     C_3   0.397169 0.949869 0.954592 -0.786614
H76   H     H_    0.370547 0.970906 0.896747 0.299998
H77   H     H_    0.445751 0.936457 0.966441 0.248723
H78   H     H_    0.412603 0.969165 0.011693 0.253657
O75   O     O_3   0.213818 0.101480 0.914265 -0.560185
C103  C     C_3   0.166564 0.078706 0.922439 0.093357
H79   H     H_    0.147107 0.049276 0.881872 0.175606
H80   H     H_    0.120573 0.099195 0.903179 0.133631
C104  C     C_3   0.205393 0.065443 0.016755 -0.311706
H81   H     H_    0.251735 0.045259 0.037056 0.232955
H82   H     H_    0.224856 0.094514 0.058214 0.228372
C105  C     C_3   0.157095 0.040272 0.029611 -0.909004
H83   H     H_    0.110875 0.060078 0.010933 0.257339
H84   H     H_    0.186823 0.031213 0.098710 0.261892
H85   H     H_    0.138143 0.010600 0.990000 0.269961
O76   O     O_3   0.786497 0.898593 0.086978 -0.587960
C106  C     C_3   0.721412 0.920577 0.046263 0.072834
H86   H     H_    0.708025 0.933821 0.984831 0.161699
H87   H     H_    0.725912 0.948794 0.083747 0.193031
C107  C     C_3   0.660184 0.891018 0.023014 -0.347401
H88   H     H_    0.653180 0.865461 0.978625 0.240433
H89   H     H_    0.671818 0.875668 0.082024 0.228024
C108  C     C_3   0.591114 0.915975 0.978755 -0.866803
H90   H     H_    0.596229 0.941237 0.022576 0.279195
H91   H     H_    0.547816 0.893865 0.962159 0.258859
H92   H     H_    0.577098 0.931061 0.918342 0.251000
O77   O     O_3   0.283193 0.601543 0.085602 -0.560591
C109  C     C_3   0.328534 0.577535 0.075853 0.094070
H93   H     H_    0.347659 0.548253 0.116826 0.174788
H94   H     H_    0.374814 0.597237 0.093439 0.134236
C110  C     C_3   0.287571 0.563781 0.981485 -0.312803
H95   H     H_    0.240876 0.544437 0.962869 0.232732
H96   H     H_    0.268481 0.592671 0.939555 0.228242
C111  C     C_3   0.333689 0.537222 0.966980 -0.908364
H97   H     H_    0.380200 0.556166 0.983935 0.257966
H98   H     H_    0.302432 0.527816 0.897890 0.261864
H99   H     H_    0.352219 0.507722 0.007079 0.270025
O78   O     O_3   0.717180 0.398802 0.912936 -0.589463
C112  C     C_3   0.782718 0.419958 0.951747 0.066753
H100  H     H_    0.796160 0.435575 0.011445 0.154777
H101  H     H_    0.779245 0.446480 0.911498 0.190658
C113  C     C_3   0.842919 0.388660 0.978391 -0.332896
H102  H     H_    0.849280 0.365358 0.025925 0.240287
H103  H     H_    0.830377 0.370642 0.921278 0.225619
C114  C     C_3   0.912816 0.412194 0.019193 -0.883107
H104  H     H_    0.908783 0.434345 0.971539 0.277047
H105  H     H_    0.955447 0.388644 0.039900 0.261087
H106  H     H_    0.927073 0.430638 0.076689 0.257045
O79   O     O_3   0.768091 0.621278 0.887152 -0.586040
C115  C     C_3   0.782507 0.578253 0.915128 0.078690
H107  H     H_    0.778751 0.557373 0.866015 0.205846
H108  H     H_    0.745144 0.566677 0.928108 0.123919
C116  C     C_3   0.857644 0.575260 0.998959 -0.290402
H109  H     H_    0.895652 0.587465 0.987772 0.242180
H110  H     H_    0.862095 0.595454 0.049288 0.224716
C117  C     C_3   0.876813 0.529158 0.031180 -0.933769
H111  H     H_    0.840061 0.516439 0.043930 0.247017
H112  H     H_    0.931573 0.527955 0.092106 0.269646
H113  H     H_    0.873976 0.508717 0.982300 0.272015
O80   O     O_3   0.262287 0.396167 0.089443 -0.591016
C118  C     C_3   0.218400 0.430502 0.077782 0.099701
H114  H     H_    0.202029 0.447728 0.018169 0.166749
H115  H     H_    0.246338 0.454735 0.129984 0.218679
C119  C     C_3   0.151342 0.413891 0.064150 -0.379448
H116  H     H_    0.121914 0.392735 0.006377 0.225494
H117  H     H_    0.165575 0.394742 0.120817 0.257838
C120  C     C_3   0.103425 0.450713 0.051071 -0.788521
H118  H     H_    0.131422 0.471773 0.108940 0.301403
H119  H     H_    0.055293 0.437701 0.040979 0.248909
H120  H     H_    0.087071 0.469885 0.993451 0.253080

loop_
_geom_bond_atom_site_label_1
_geom_bond_atom_site_label_2
_geom_bond_distance
_ccdc_geom_bond_type
C81   H28   1.110304 S    
C56   O80   1.397505 S    
C107  C108  1.525961 S    
O26   C10   1.296463 A    
C87   H43   1.110760 S    
O7    Cu7   1.969988 S    
C65   O41   1.287436 A    
C10   C18   1.440838 S    
C39   C47   1.357491 D    
C120  H118  1.110904 S    
C110  H95   1.111867 S    
C105  H83   1.110986 S    
C14   C22   1.440744 S    
C79   C80   1.537556 S    
N8    O63   1.300868 A    
O18   Cu2   1.939706 S    
C81   H29   1.110757 S    
Cu11  O44   1.965355 S    
C102  H76   1.110942 S    
C22   C30   1.209042 T    
C97   H66   1.113299 S    
C111  H99   1.111012 S    
C7    C63   1.452959 S    
O19   Cu3   1.939839 S    
C106  H87   1.105603 S    
O3    C3    1.294353 A    
C46   C67   1.472334 S    
C55   O79   1.390179 S    
C75   H15   1.110646 S    
C57   H1    1.087752 S    
C13   C21   1.440873 S    
C112  H101  1.106010 S    
C82   H30   1.111050 S    
C54   O78   1.392904 S    
O8    Cu8   1.969988 S    
O6    Cu6   1.969942 S    
C33   C41   1.359094 D    
C77   H19   1.111419 S    
N8    O64   1.300649 A    
C86   H40   1.110643 S    
C93   H56   1.110332 S    
Cu2   Cu5   2.683877 S    
C114  H105  1.110514 S    
C83   H32   1.111572 S    
C116  H109  1.111759 S    
C115  C116  1.527020 S    
C47   C66   1.474062 S    
O17   C9    1.297487 A    
C3    C59   1.454783 S    
O20   C12   1.297767 A    
O21   C13   1.297564 A    
C78   H20   1.110987 S    
C90   H48   1.111219 S    
O12   C4    1.293856 A    
C117  H113  1.110146 S    
C91   H52   1.112490 S    
O13   C5    1.292060 A    
C46   O70   1.393230 S    
C23   C31   1.209054 T    
C56   C64   1.340468 D    
Cu9   O45   1.965535 S    
O28   C12   1.296279 A    
C109  H93   1.112915 S    
O29   C13   1.296537 A    
C120  H120  1.110808 S    
O31   C15   1.296458 A    
C110  C111  1.526058 S    
O32   C16   1.296410 A    
N2    O51   1.300859 A    
C45   O69   1.400542 S    
C88   C89   1.529495 S    
C58   H2    1.088790 S    
C34   C50   1.485497 S    
N6    O60   1.300801 A    
C80   C81   1.526424 S    
C40   C48   1.356633 D    
O28   Cu7   1.936238 S    
C15   C23   1.440801 S    
O29   Cu2   1.936374 S    
C119  C120  1.525777 S    
O10   C2    1.298716 A    
C104  H82   1.111839 S    
C33   C49   1.480407 S    
O4    C4    1.296863 A    
O5    C5    1.294168 A    
C54   C62   1.348608 D    
O9    Cu6   1.965673 S    
C98   H68   1.110558 S    
O11   Cu8   1.965717 S    
N3    O53   1.300944 A    
O16   Cu3   1.965717 S    
Cu12  O43   1.965358 S    
O22   Cu6   1.939706 S    
C96   H62   1.110971 S    
C108  H90   1.111001 S    
C38   C54   1.487716 S    
O73   C97   1.415603 S    
Cu11  Cu12  2.640638 S    
C71   O47   1.287178 A    
C113  H102  1.110418 S    
C72   O40   1.285887 A    
C79   H24   1.109839 S    
C98   H67   1.111471 S    
C69   O45   1.287851 A    
O2    Cu2   1.969942 S    
C37   N5    1.439398 S    
O74   C100  1.413589 S    
C76   H17   1.117084 S    
C82   C83   1.529946 S    
C50   O74   1.397039 S    
C66   O42   1.281189 A    
C35   C51   1.480350 S    
C111  H98   1.110343 S    
C37   C45   1.356327 D    
C73   H10   1.113320 S    
C74   H12   1.111593 S    
C44   O68   1.393058 S    
O70   C88   1.419681 S    
C55   C63   1.339050 D    
C84   H35   1.110320 S    
C60   H4    1.086719 S    
Cu9   O38   1.968057 S    
C78   H22   1.110904 S    
C64   H8    1.088789 S    
C119  H116  1.111633 S    
C97   C98   1.532914 S    
C44   C69   1.469943 S    
C116  H110  1.111774 S    
C115  H108  1.115103 S    
C88   H44   1.111028 S    
C36   N4    1.435415 S    
C104  H81   1.111903 S    
C94   C95   1.528200 S    
C17   C25   1.209059 T    
N7    O62   1.300842 A    
O69   C85   1.420805 S    
C100  H73   1.108055 S    
C40   N8    1.437123 S    
C117  H111  1.110818 S    
C90   H49   1.110344 S    
C85   H38   1.109649 S    
Cu12  O33   1.968060 S    
C92   C93   1.526499 S    
O18   C10   1.297639 A    
O25   Cu6   1.936374 S    
C95   H60   1.111743 S    
O66   C76   1.417944 S    
C114  H106  1.110824 S    
O27   Cu8   1.936238 S    
O22   C14   1.297747 A    
C103  H80   1.115901 S    
C99   H69   1.109668 S    
C85   C86   1.537767 S    
O1    C1    1.287854 A    
C113  C114  1.525434 S    
C98   C99   1.524585 S    
O14   C6    1.294355 A    
C38   N6    1.436560 S    
O7    C7    1.287952 A    
O8    C8    1.289463 A    
Cu10  O46   1.965533 S    
C43   C70   1.460552 S    
C118  C119  1.533948 S    
O30   C14   1.296324 A    
O12   Cu7   1.965717 S    
O13   Cu2   1.965673 S    
C103  H79   1.112990 S    
C105  H85   1.111033 S    
N4    O55   1.300657 A    
C117  H112  1.110237 S    
C51   C59   1.345397 D    
C1    C57   1.451420 S    
C95   C96   1.526096 S    
C67   O35   1.276707 A    
C102  H78   1.110814 S    
O75   C103  1.412237 S    
C53   O77   1.388040 S    
C89   H46   1.111603 S    
C36   C44   1.355529 D    
O30   Cu1   1.936374 S    
C33   N1    1.435396 S    
C86   H39   1.110703 S    
C75   H13   1.110939 S    
C93   H57   1.111344 S    
O11   C3    1.291778 A    
Cu11  O34   1.968057 S    
C83   H33   1.109861 S    
N3    O54   1.300145 A    
C108  H92   1.110886 S    
N1    O50   1.300548 A    
C48   O72   1.392064 S    
C16   C24   1.440855 S    
Cu12  O42   1.965533 S    
C61   H5    1.084228 S    
C94   H58   1.110584 S    
O6    C6    1.296717 A    
C63   H7    1.088011 S    
C107  H88   1.110230 S    
C74   H11   1.111685 S    
O10   Cu5   1.965673 S    
C75   H14   1.110311 S    
C25   C27   1.417560 S    
C83   C84   1.526453 S    
C92   H53   1.111954 S    
N5    O58   1.300085 A    
Cu4   Cu7   2.683813 S    
C81   H27   1.110280 S    
C114  H104  1.110626 S    
O23   C15   1.297535 A    
O24   C16   1.297665 A    
C109  H94   1.115736 S    
C34   C42   1.356629 D    
C99   H71   1.110931 S    
C120  H119  1.110319 S    
C110  H96   1.111798 S    
C70   O46   1.285639 A    
N2    O52   1.300626 A    
O80   C118  1.413629 S    
O3    Cu3   1.969988 S    
Cu11  O41   1.965535 S    
C35   N3    1.439189 S    
C112  H100  1.110731 S    
C67   O43   1.288599 A    
C80   H25   1.110725 S    
C68   O44   1.285715 A    
C109  C110  1.527296 S    
C118  H114  1.110956 S    
C80   H26   1.110668 S    
C39   C55   1.480882 S    
C97   H65   1.110795 S    
N7    O61   1.300620 A    
C4    C60   1.465073 S    
C103  C104  1.527328 S    
O72   C94   1.417842 S    
C106  C107  1.539050 S    
O15   Cu4   1.965717 S    
C52   O76   1.393176 S    
Cu10  O37   1.968060 S    
C62   H6    1.087019 S    
C53   C61   1.345235 D    
O32   Cu3   1.936238 S    
C89   C90   1.526318 S    
C42   C71   1.477178 S    
C77   H18   1.111739 S    
Cu9   Cu10  2.640638 S    
C86   C87   1.526473 S    
C34   N2    1.437407 S    
C93   H55   1.110985 S    
C71   O39   1.282095 A    
C105  H84   1.110363 S    
C72   O48   1.281982 A    
C69   O37   1.275792 A    
C68   O36   1.272175 A    
C59   H3    1.084290 S    
O25   C9    1.296539 A    
C51   O75   1.387883 S    
C9    C17   1.440807 S    
O67   C79   1.420538 S    
C35   C43   1.355857 D    
C12   C20   1.440764 S    
C37   C53   1.480841 S    
C91   H51   1.117265 S    
C113  H103  1.110688 S    
O17   Cu1   1.939706 S    
O79   C115  1.411727 S    
O19   C11   1.297568 A    
C101  H74   1.111633 S    
C20   C28   1.209049 T    
O26   Cu5   1.936374 S    
C108  H91   1.110541 S    
C76   H16   1.110590 S    
C82   H31   1.117699 S    
O23   Cu7   1.939839 S    
O24   Cu8   1.939839 S    
C26   C28   1.417566 S    
O65   C73   1.413609 S    
O2    C2    1.289584 A    
O77   C109  1.412256 S    
C84   H34   1.111453 S    
O4    Cu4   1.969988 S    
O5    Cu5   1.969942 S    
N6    O59   1.301098 A    
C112  C113  1.538773 S    
C78   H21   1.110349 S    
O76   C106  1.415818 S    
C119  H117  1.109398 S    
O14   Cu1   1.965673 S    
Cu1   Cu6   2.683877 S    
Cu11  O35   1.968144 S    
Cu3   Cu8   2.683813 S    
C104  C105  1.526059 S    
C29   C31   1.417557 S    
C18   C26   1.209069 T    
C106  H86   1.110667 S    
C94   H59   1.117001 S    
O68   C82   1.420289 S    
C40   C56   1.486020 S    
C100  H72   1.110947 S    
C77   C78   1.526103 S    
C19   C27   1.209072 T    
C38   C46   1.355783 D    
O15   C7    1.297093 A    
O31   Cu4   1.936238 S    
O16   C8    1.298781 A    
C49   O73   1.391018 S    
C92   H54   1.111599 S    
C43   O67   1.400483 S    
C95   H61   1.111408 S    
C96   H63   1.110348 S    
C41   C72   1.472967 S    
C87   H41   1.110402 S    
C99   H70   1.110221 S    
C91   C92   1.526584 S    
C49   C57   1.339738 D    
C79   H23   1.110832 S    
C8    C64   1.459701 S    
C45   C68   1.461056 S    
C101  C102  1.525674 S    
C76   C77   1.528127 S    
Cu9   O48   1.965355 S    
Cu10  O47   1.965358 S    
C118  H115  1.107967 S    
C36   C52   1.488390 S    
O9    C1    1.296548 A    
C111  H97   1.110907 S    
C42   O66   1.392008 S    
C73   H9    1.114502 S    
C74   C75   1.526129 S    
N4    O56   1.300718 A    
O27   C11   1.296494 A    
O78   C112  1.415424 S    
C52   C60   1.348700 D    
C84   H36   1.110784 S    
C21   C29   1.209074 T    
C102  H77   1.110443 S    
Cu9   O39   1.968144 S    
Cu10  O40   1.968142 S    
C101  H75   1.109423 S    
C89   H47   1.110372 S    
C11   C19   1.440872 S    
C66   O34   1.286719 A    
C6    C62   1.465572 S    
C116  C117  1.525652 S    
C115  H107  1.112140 S    
C48   C65   1.477940 S    
C5    C61   1.454847 S    
C88   H45   1.117369 S    
N1    O49   1.300573 A    
O20   Cu4   1.939839 S    
O21   Cu5   1.939706 S    
C47   O71   1.388487 S    
C39   N7    1.436052 S    
C70   O38   1.271914 A    
C107  H89   1.110499 S    
C24   C32   1.209077 T    
C100  C101  1.534123 S    
C96   H64   1.110908 S    
C90   H50   1.110815 S    
C73   C74   1.526916 S    
C85   H37   1.110828 S    
Cu12  O36   1.968142 S    
O71   C91   1.415474 S    
C41   O65   1.388366 S    
C30   C32   1.417569 S    
C2    C58   1.459773 S    
N5    O57   1.300952 A    
C65   O33   1.282231 A    
O1    Cu1   1.969942 S    
C50   C58   1.340347 D    
C87   H42   1.110310 S    
