data_mof_unit_46520.cif
_audit_creation_date              2013-03-05T16:00:42-0500
_audit_creation_method            fapswitch 2.2
_symmetry_space_group_name_H-M    P1
_symmetry_Int_Tables_number       1
_space_group_crystal_system       triclinic
_cell_length_a                    6.929971
_cell_length_b                    31.365149
_cell_length_c                    34.998338
_cell_angle_alpha                 90.0
_cell_angle_beta                  90.000789
_cell_angle_gamma                 90.001177
_cell_volume                      7607.22380039

loop_
_atom_site_label
_atom_site_type_symbol
_atom_site_description
_atom_site_fract_x
_atom_site_fract_y
_atom_site_fract_z
_atom_type_partial_charge
O1    O     O_R   0.417270 0.211480 0.210950 -0.596650
O2    O     O_R   0.582730 0.788520 0.789050 -0.596924
O3    O     O_R   0.582730 0.788520 0.710950 -0.596643
O4    O     O_R   0.417270 0.211480 0.289050 -0.596931
O5    O     O_R   0.917270 0.288520 0.289050 -0.596642
O6    O     O_R   0.082730 0.711480 0.710950 -0.596929
O7    O     O_R   0.082730 0.711480 0.789050 -0.596646
O8    O     O_R   0.917270 0.288520 0.210950 -0.596927
O9    O     O_R   0.746940 0.206370 0.288750 -0.596499
O10   O     O_R   0.253060 0.793630 0.711250 -0.593701
O11   O     O_R   0.253060 0.793630 0.788750 -0.596496
O12   O     O_R   0.746940 0.206370 0.211250 -0.593707
O13   O     O_R   0.246940 0.293630 0.211250 -0.596497
O14   O     O_R   0.753060 0.706370 0.788750 -0.593705
O15   O     O_R   0.753060 0.706370 0.711250 -0.596499
O16   O     O_R   0.246940 0.293630 0.288750 -0.593699
C1    C     C_R   0.578063 0.195951 0.301999 0.976717
C2    C     C_R   0.422009 0.804104 0.698092 0.975056
C3    C     C_R   0.421939 0.804049 0.801998 0.976689
C4    C     C_R   0.577988 0.195897 0.198092 0.975087
C5    C     C_R   0.078063 0.304049 0.198002 0.976700
C6    C     C_R   0.922009 0.695897 0.801908 0.975078
C7    C     C_R   0.921933 0.695951 0.698001 0.976722
C8    C     C_R   0.077994 0.304104 0.301908 0.975053
O17   O     O_3   0.583760 0.276950 0.250000 -0.269292
O18   O     O_3   0.416240 0.723050 0.750000 -0.269296
O19   O     O_3   0.083760 0.223050 0.250000 -0.269296
O20   O     O_3   0.916240 0.776950 0.750000 -0.269291
V1    V     V_3+5 0.858600 0.245000 0.250000 1.178862
V2    V     V_3+5 0.141400 0.755000 0.750000 1.178867
V3    V     V_3+5 0.358600 0.255000 0.250000 1.178868
V4    V     V_3+5 0.641400 0.745000 0.750000 1.178866
C9    C     C_R   0.977155 0.588341 0.537558 0.574025
C10   C     C_R   0.022388 0.412176 0.461768 0.567617
C11   C     C_R   0.023456 0.411672 0.037563 0.574064
C12   C     C_R   0.976957 0.587829 0.961789 0.567503
C13   C     C_R   0.476316 0.911674 0.962436 0.574074
C14   C     C_R   0.523252 0.087827 0.038208 0.567464
C15   C     C_R   0.522982 0.088344 0.462445 0.574053
C16   C     C_R   0.477484 0.912181 0.538232 0.567589
N1    N     N_R   0.967501 0.574318 0.574541 -0.178223
N2    N     N_R   0.036622 0.426239 0.424862 -0.178007
N3    N     N_R   0.032458 0.425691 0.074554 -0.178244
N4    N     N_R   0.963378 0.573767 0.924872 -0.177982
N5    N     N_R   0.467545 0.925692 0.925444 -0.178255
N6    N     N_R   0.536612 0.073766 0.075128 -0.177975
N7    N     N_R   0.532489 0.074322 0.425460 -0.178233
N8    N     N_R   0.463390 0.926244 0.575140 -0.178003
C17   C     C_R   0.975396 0.531658 0.582953 0.639693
C18   C     C_R   0.043161 0.468951 0.416645 0.635196
C19   C     C_R   0.023923 0.468343 0.082974 0.639592
C20   C     C_R   0.957468 0.531053 0.916644 0.635365
C21   C     C_R   0.476295 0.968341 0.917022 0.639532
C22   C     C_R   0.542307 0.031051 0.083359 0.635430
C23   C     C_R   0.524470 0.031663 0.417047 0.639622
C24   C     C_R   0.456993 0.968956 0.583360 0.635237
C25   C     C_R   0.980861 0.500721 0.553316 -0.225371
C26   C     C_R   0.021409 0.499818 0.446046 -0.227244
C27   C     C_R   0.018384 0.499285 0.053341 -0.225394
C28   C     C_R   0.979291 0.500193 0.946048 -0.227215
C29   C     C_R   0.481851 0.999285 0.946653 -0.225396
C30   C     C_R   0.520456 0.000193 0.053953 -0.227205
C31   C     C_R   0.518999 0.000725 0.446684 -0.225370
C32   C     C_R   0.478765 0.999822 0.553958 -0.227235
C33   C     C_R   0.994138 0.515080 0.514996 -0.004044
C34   C     C_R   0.008632 0.485456 0.484377 -0.004317
C35   C     C_R   0.005825 0.484929 0.015010 -0.003991
C36   C     C_R   0.991352 0.514552 0.984389 -0.004371
C37   C     C_R   0.494167 0.984929 0.984988 -0.003979
C38   C     C_R   0.508636 0.014551 0.015609 -0.004389
C39   C     C_R   0.505875 0.015084 0.485006 -0.004038
C40   C     C_R   0.491386 0.985460 0.515626 -0.004330
C41   C     C_R   0.992996 0.559113 0.507198 -0.086638
C42   C     C_R   0.010260 0.441422 0.492185 -0.087407
C43   C     C_R   0.007664 0.440899 0.007201 -0.086673
C44   C     C_R   0.989030 0.558583 0.992206 -0.087390
C45   C     C_R   0.492090 0.940900 0.992799 -0.086690
C46   C     C_R   0.511194 0.058581 0.007790 -0.087387
C47   C     C_R   0.507163 0.059116 0.492806 -0.086654
C48   C     C_R   0.489606 0.941426 0.507815 -0.087403
C49   C     C_R   0.976937 0.456124 0.560467 0.367644
C50   C     C_R   0.014407 0.544364 0.438739 0.365127
C51   C     C_R   0.021553 0.543883 0.060505 0.367616
C52   C     C_R   0.987050 0.455654 0.938733 0.365132
C53   C     C_R   0.478935 0.043883 0.939486 0.367607
C54   C     C_R   0.512439 0.955657 0.061271 0.365133
C55   C     C_R   0.522767 0.956127 0.439530 0.367638
C56   C     C_R   0.485936 0.044367 0.561267 0.365126
C57   C     C_R   0.994955 0.427330 0.530083 -0.168491
C58   C     C_R   0.003651 0.573187 0.469232 -0.165341
C59   C     C_R   0.003587 0.572674 0.030116 -0.168415
C60   C     C_R   0.997755 0.426830 0.969226 -0.165458
C61   C     C_R   0.496886 0.072672 0.969876 -0.168391
C62   C     C_R   0.501746 0.926832 0.030777 -0.165498
C63   C     C_R   0.504756 0.927334 0.469915 -0.168479
C64   C     C_R   0.496676 0.073189 0.530774 -0.165364
O21   O     O_2   0.970429 0.630537 0.530146 -0.517767
O22   O     O_2   0.018364 0.369926 0.469003 -0.519830
O23   O     O_2   0.030787 0.369483 0.030147 -0.517749
O24   O     O_2   0.980383 0.630078 0.969035 -0.519845
O25   O     O_2   0.468773 0.869487 0.969853 -0.517741
O26   O     O_2   0.520031 0.130076 0.030958 -0.519845
O27   O     O_2   0.529833 0.130538 0.469857 -0.517754
O28   O     O_2   0.481374 0.869931 0.530995 -0.519831
O29   O     O_2   0.981747 0.519554 0.619880 -0.431225
O30   O     O_2   0.073417 0.481187 0.380222 -0.430895
O31   O     O_2   0.017030 0.480429 0.119901 -0.431131
O32   O     O_2   0.927749 0.518805 0.880206 -0.430988
O33   O     O_2   0.483379 0.980423 0.880094 -0.431099
O34   O     O_2   0.571846 0.018799 0.119802 -0.431015
O35   O     O_2   0.518005 0.019561 0.380120 -0.431206
O36   O     O_2   0.426852 0.981195 0.619786 -0.430908
H1    H     H_    0.991330 0.393500 0.536325 0.215470
H2    H     H_    0.998372 0.606974 0.462855 0.215538
H3    H     H_    0.006636 0.606504 0.036368 0.215463
H4    H     H_    0.003615 0.393047 0.962844 0.215555
H5    H     H_    0.494031 0.106502 0.963621 0.215464
H6    H     H_    0.495688 0.893052 0.037160 0.215560
H7    H     H_    0.508258 0.893505 0.463671 0.215472
H8    H     H_    0.502083 0.106976 0.537151 0.215543
C65   C     C_R   0.882333 0.389279 0.369463 0.401085
C66   C     C_R   0.778350 0.609251 0.626721 0.403878
C67   C     C_R   0.117693 0.610741 0.869481 0.401206
C68   C     C_R   0.221596 0.390774 0.126742 0.403736
C69   C     C_R   0.382288 0.110745 0.130515 0.401250
C70   C     C_R   0.278434 0.890785 0.873247 0.403692
C71   C     C_R   0.617682 0.889279 0.630537 0.401112
C72   C     C_R   0.721618 0.109247 0.373275 0.403861
C73   C     C_R   0.896803 0.359484 0.339434 -0.260637
C74   C     C_R   0.771330 0.638808 0.657062 -0.260313
C75   C     C_R   0.103222 0.640529 0.839448 -0.260682
C76   C     C_R   0.228626 0.361210 0.157079 -0.260278
C77   C     C_R   0.396761 0.140532 0.160549 -0.260695
C78   C     C_R   0.271403 0.861219 0.842912 -0.260268
C79   C     C_R   0.603210 0.859484 0.660565 -0.260647
C80   C     C_R   0.728646 0.138805 0.342935 -0.260317
H9    H     H_    0.773871 0.354415 0.320867 0.181287
H10   H     H_    0.639053 0.642173 0.673268 0.179627
H11   H     H_    0.226173 0.645602 0.820887 0.181262
H12   H     H_    0.360880 0.357853 0.173293 0.179672
H13   H     H_    0.273802 0.145607 0.179107 0.181257
H14   H     H_    0.139165 0.857868 0.826691 0.179683
H15   H     H_    0.726147 0.854413 0.679130 0.181283
H16   H     H_    0.860916 0.142167 0.326726 0.179618
C81   C     C_R   0.067218 0.336110 0.333214 -0.184907
C82   C     C_R   0.932030 0.664202 0.666393 -0.179820
C83   C     C_R   0.932791 0.663894 0.833217 -0.184886
C84   C     C_R   0.067955 0.335801 0.166396 -0.179843
C85   C     C_R   0.567202 0.163894 0.166783 -0.184888
C86   C     C_R   0.432053 0.835802 0.833603 -0.179834
C87   C     C_R   0.432789 0.836111 0.666787 -0.184904
C88   C     C_R   0.567957 0.164203 0.333608 -0.179798
C89   C     C_R   0.225056 0.342921 0.357617 -0.121796
C90   C     C_R   0.101797 0.659535 0.644821 -0.143943
C91   C     C_R   0.774945 0.657083 0.857617 -0.121956
C92   C     C_R   0.898205 0.340459 0.144817 -0.143796
C93   C     C_R   0.725053 0.157081 0.142385 -0.121990
C94   C     C_R   0.601787 0.840454 0.855188 -0.143768
C95   C     C_R   0.274947 0.842923 0.642386 -0.121824
C96   C     C_R   0.398194 0.159538 0.355181 -0.143938
H17   H     H_    0.357972 0.325276 0.353726 0.136999
H18   H     H_    0.228070 0.678651 0.651072 0.138482
H19   H     H_    0.642021 0.674722 0.853721 0.137020
H20   H     H_    0.771953 0.321332 0.151059 0.138457
H21   H     H_    0.857984 0.174719 0.146283 0.137030
H22   H     H_    0.728023 0.821321 0.848952 0.138445
H23   H     H_    0.142025 0.825280 0.646277 0.137005
H24   H     H_    0.271927 0.178656 0.348932 0.138476
C97   C     C_R   0.211922 0.371949 0.387853 -0.001630
C98   C     C_R   0.110282 0.630557 0.614523 -0.010106
C99   C     C_R   0.788079 0.628058 0.887856 -0.001437
C100  C     C_R   0.889713 0.369442 0.114522 -0.010304
C101  C     C_R   0.711919 0.128056 0.112146 -0.001360
C102  C     C_R   0.610281 0.869438 0.885482 -0.010408
C103  C     C_R   0.288082 0.871953 0.612151 -0.001582
C104  C     C_R   0.389706 0.130560 0.385480 -0.010210
H25   H     H_    0.334537 0.376308 0.406584 0.173768
H26   H     H_    0.242419 0.627699 0.598232 0.170749
H27   H     H_    0.665456 0.623700 0.906584 0.173961
H28   H     H_    0.757592 0.372293 0.098224 0.170543
H29   H     H_    0.834546 0.123698 0.093419 0.174025
H30   H     H_    0.742390 0.872286 0.901784 0.170467
H31   H     H_    0.165464 0.876313 0.593421 0.173808
H32   H     H_    0.257571 0.127703 0.401772 0.170715
C105  C     C_R   0.042585 0.395503 0.394042 0.038487
C106  C     C_R   0.950694 0.605073 0.605211 0.044992
C107  C     C_R   0.957423 0.604509 0.894053 0.038335
C108  C     C_R   0.049273 0.394939 0.105223 0.045160
C109  C     C_R   0.542568 0.104509 0.105946 0.038279
C110  C     C_R   0.450734 0.894941 0.894774 0.045221
C111  C     C_R   0.457424 0.895506 0.605960 0.038453
C112  C     C_R   0.549288 0.105075 0.394790 0.045039
N9    N     N_R   0.944405 0.439064 0.597921 0.276371
O37   O     O_R   0.781388 0.446548 0.615116 -0.247725
O38   O     O_R   0.055584 0.408891 0.610810 -0.275358
N10   N     N_R   0.007560 0.561251 0.400700 0.276394
O39   O     O_R   0.860302 0.552611 0.378964 -0.240620
O40   O     O_R   0.122376 0.592287 0.391136 -0.280219
N11   N     N_R   0.053205 0.560955 0.097984 0.276381
O41   O     O_R   0.216120 0.553620 0.115270 -0.247548
O42   O     O_R   0.941244 0.591016 0.110819 -0.275363
N12   N     N_R   0.994785 0.438787 0.900693 0.276391
O43   O     O_R   0.142181 0.447579 0.879043 -0.240756
O44   O     O_R   0.880733 0.407641 0.891055 -0.280172
N13   N     N_R   0.447573 0.060959 0.901999 0.276385
O45   O     O_R   0.284695 0.053670 0.884682 -0.247486
O46   O     O_R   0.559786 0.090985 0.889183 -0.275363
N14   N     N_R   0.504408 0.938796 0.099311 0.276390
O47   O     O_R   0.356968 0.947638 0.120932 -0.240797
O48   O     O_R   0.618200 0.907614 0.108973 -0.280155
N15   N     N_R   0.555122 0.939066 0.402071 0.276375
O49   O     O_R   0.718116 0.946521 0.384857 -0.247686
O50   O     O_R   0.443787 0.908913 0.389194 -0.275359
N16   N     N_R   0.492986 0.061249 0.599306 0.276395
O51   O     O_R   0.640273 0.052574 0.621023 -0.240645
O52   O     O_R   0.378349 0.092311 0.608886 -0.280206
N17   N     N_R   0.704949 0.412580 0.374569 0.236687
O53   O     O_R   0.653353 0.426400 0.408099 -0.421851
O54   O     O_R   0.587556 0.417916 0.345936 -0.339288
N18   N     N_R   0.610033 0.584121 0.618081 0.234405
O55   O     O_R   0.573015 0.572300 0.583203 -0.419033
O56   O     O_R   0.485136 0.575438 0.644739 -0.339030
N19   N     N_R   0.295107 0.587457 0.874604 0.236675
O57   O     O_R   0.346779 0.573698 0.908151 -0.422018
O58   O     O_R   0.412462 0.582085 0.845972 -0.339289
N20   N     N_R   0.389873 0.415928 0.118122 0.234420
O59   O     O_R   0.426794 0.427815 0.083259 -0.418948
O60   O     O_R   0.514832 0.424570 0.144781 -0.338989
N21   N     N_R   0.204858 0.087468 0.125385 0.236673
O61   O     O_R   0.153172 0.073724 0.091834 -0.422070
O62   O     O_R   0.087499 0.082089 0.154016 -0.339306
N22   N     N_R   0.110183 0.915950 0.881856 0.234424
O63   O     O_R   0.073239 0.927847 0.916716 -0.418930
O64   O     O_R   0.985269 0.924594 0.855191 -0.338889
N23   N     N_R   0.795076 0.912577 0.625428 0.236686
O65   O     O_R   0.846686 0.926387 0.591895 -0.421886
O66   O     O_R   0.912468 0.917918 0.654060 -0.339290
N24   N     N_R   0.889911 0.084110 0.381908 0.234391
O67   O     O_R   0.926990 0.072299 0.416786 -0.419041
O68   O     O_R   0.014724 0.075407 0.355241 -0.338908

loop_
_geom_bond_atom_site_label_1
_geom_bond_atom_site_label_2
_geom_bond_distance
_ccdc_geom_bond_type
O17   V3    1.705473 S    
C16   O28   1.349426 S    
C56   C64   1.400644 A    
O18   V4    1.705475 S    
O12   V1    1.976361 S    
O19   V1    1.705500 S    
C96   C104  1.397861 A    
C37   C45   1.407832 A    
N19   O57   1.301130 A    
C10   N2    1.368440 A    
C73   H9    1.083184 S    
C102  H30   1.082432 S    
N18   O56   1.301460 A    
C53   N13   1.433666 S    
O15   V4    1.976394 S    
C102  C110  1.402899 A    
C29   C37   1.417778 A    
N13   O45   1.301383 A    
O16   V3    1.976393 S    
C93   C101  1.398950 A    
C30   C54   1.421254 A    
O11   C3    1.300542 A    
N12   O44   1.301062 A    
O12   C4    1.300305 A    
C98   H26   1.082421 S    
O8    V1    1.973926 S    
C42   C57   1.402078 A    
C15   N7    1.368663 A    
C71   C79   1.409926 A    
C41   C58   1.402079 A    
C69   N21   1.441208 S    
C8    C81   1.487893 S    
C26   C50   1.421247 A    
C103  C111  1.403504 A    
C29   C53   1.421284 A    
N16   O52   1.301051 A    
C88   C96   1.405538 A    
C104  C112  1.402915 A    
C38   C46   1.407958 A    
C46   C61   1.402091 A    
C72   N24   1.439848 S    
C98   C106  1.402913 A    
C34   C42   1.407968 A    
N24   O68   1.301442 A    
C45   C62   1.402096 A    
O1    V3    1.973940 S    
C3    C86   1.490066 S    
C17   C25   1.420877 A    
C4    C85   1.487897 S    
C22   O34   1.347697 S    
O3    C2    1.296905 A    
O2    V4    1.973936 S    
N1    C17   1.371156 A    
N7    C112  1.447815 S    
C70   C110  1.417862 A    
C16   N8    1.368443 A    
N22   O63   1.301260 A    
N8    C111  1.447295 S    
C54   C62   1.400664 A    
C27   C35   1.417767 A    
C21   C29   1.420893 A    
C26   C34   1.417883 A    
C76   H12   1.083114 S    
O11   V2    1.976358 S    
C59   H3    1.083625 S    
N14   O47   1.301363 A    
N9    O38   1.301074 A    
C23   C31   1.420872 A    
C31   C55   1.421279 A    
N23   O65   1.301120 A    
C16   C48   1.407737 A    
C75   C83   1.406984 A    
C83   C91   1.404080 A    
C97   C105  1.403502 A    
C50   N10   1.433557 S    
N9    O37   1.301354 A    
O9    V1    1.976375 S    
C49   C57   1.400738 A    
C100  H28   1.082431 S    
C96   H24   1.083091 S    
C55   N15   1.433665 S    
N7    C23   1.371152 A    
N5    C21   1.371126 A    
N11   O41   1.301376 A    
O16   C8    1.300297 A    
O7    V2    1.973926 S    
C95   C103  1.398950 A    
C12   C44   1.407743 A    
C67   C107  1.418227 A    
N23   O66   1.301535 A    
C30   C38   1.417891 A    
C99   H27   1.081867 S    
O3    V4    1.973930 S    
C61   H5    1.083624 S    
C19   O31   1.347714 S    
C11   O23   1.349447 S    
C97   H25   1.081881 S    
N18   O55   1.301261 A    
C80   C88   1.407541 A    
C68   C76   1.410489 A    
C94   C102  1.397859 A    
C19   C27   1.420892 A    
O5    V1    1.973916 S    
N13   O46   1.301090 A    
O17   V1    2.152195 S    
O10   C2    1.300299 A    
C7    C82   1.490082 S    
C57   H1    1.083615 S    
C69   C109  1.418229 A    
N12   O43   1.301363 A    
O13   C5    1.300541 A    
C35   C36   1.421904 A    
C76   C84   1.407547 A    
C5    C84   1.490073 S    
O20   V4    2.152158 S    
C52   N12   1.433591 S    
N10   O40   1.301055 A    
C33   C41   1.407823 A    
C93   H21   1.083169 S    
C68   C108  1.417878 A    
C75   H11   1.083185 S    
C104  H32   1.082424 S    
N16   O51   1.301353 A    
C17   O29   1.347711 S    
C14   C46   1.407743 A    
C91   H19   1.083168 S    
N17   O53   1.301121 A    
C67   C75   1.409919 A    
C92   C100  1.397858 A    
C64   H8    1.083624 S    
C71   C111  1.418230 A    
C39   C47   1.407821 A    
C40   C48   1.407970 A    
C55   C63   1.400737 A    
C72   C112  1.417853 A    
C65   C105  1.418229 A    
C87   C95   1.404083 A    
C44   C59   1.402089 A    
C70   N22   1.439901 S    
C54   N14   1.433599 S    
N21   O61   1.301128 A    
C78   H14   1.083106 S    
O10   V2    1.976373 S    
N15   O49   1.301353 A    
C82   C90   1.405530 A    
C11   C43   1.407658 A    
N6    C22   1.370957 A    
C24   C32   1.420859 A    
O8    C5    1.297784 A    
C18   C26   1.420858 A    
C77   C85   1.406985 A    
C12   O24   1.349421 S    
C36   C44   1.407962 A    
O9    C1    1.300543 A    
C48   C63   1.402079 A    
C52   C60   1.400658 A    
C60   H4    1.083628 S    
C20   O32   1.347697 S    
C31   C39   1.417745 A    
C66   N18   1.439867 S    
C43   C60   1.402094 A    
C10   C42   1.407739 A    
O4    C1    1.297791 A    
N2    C105  1.447287 S    
C9    C41   1.407670 A    
O6    V2    1.973921 S    
N2    C18   1.370934 A    
O18   V2    2.152196 S    
N20   O60   1.301468 A    
O19   V3    2.152160 S    
N21   O62   1.301535 A    
C80   H16   1.083116 S    
N15   O50   1.301081 A    
C12   N4    1.368464 A    
C1    C88   1.490078 S    
C35   C43   1.407828 A    
C28   C52   1.421251 A    
N6    C109  1.447352 S    
C51   N11   1.433666 S    
C2    C87   1.487894 S    
C74   H10   1.083119 S    
C90   H18   1.083093 S    
C63   H7    1.083614 S    
C11   N3    1.368647 A    
C94   H22   1.083089 S    
C103  H31   1.081879 S    
C58   H2    1.083620 S    
C69   C77   1.409918 A    
N8    C24   1.370938 A    
C13   C45   1.407659 A    
N24   O67   1.301263 A    
C65   C73   1.409928 A    
O1    C4    1.296895 A    
C32   C56   1.421249 A    
C86   C94   1.405534 A    
C23   O35   1.347710 S    
O2    C3    1.297783 A    
C65   N17   1.441249 S    
O13   V3    1.976378 S    
N20   O59   1.301262 A    
C27   C51   1.421287 A    
N10   O39   1.301347 A    
C101  C109  1.403518 A    
N22   O64   1.301456 A    
N4    C20   1.370952 A    
C68   N20   1.439906 S    
N19   O58   1.301535 A    
O20   V2    1.705500 S    
C15   O27   1.349447 S    
N17   O54   1.301535 A    
O7    C6    1.296896 A    
C51   C59   1.400748 A    
C71   N23   1.441244 S    
C50   C58   1.400638 A    
C99   C107  1.403515 A    
C28   C36   1.417887 A    
C9    N1    1.368667 A    
O14   C6    1.300303 A    
C72   C80   1.410475 A    
C92   H20   1.083094 S    
C81   C89   1.404087 A    
C39   C40   1.421902 A    
C14   O26   1.349423 S    
N14   O48   1.301070 A    
C24   O36   1.347685 S    
C74   C82   1.407552 A    
C13   O25   1.349448 S    
C62   H6    1.083629 S    
C90   C98   1.397853 A    
N3    C19   1.371135 A    
C56   N16   1.433566 S    
O5    C8    1.296903 A    
C67   N19   1.441213 S    
N3    C108  1.447774 S    
C100  C108  1.402896 A    
C79   C87   1.406979 A    
O6    C7    1.297797 A    
O15   C7    1.300538 A    
C79   H15   1.083183 S    
C10   O22   1.349424 S    
C95   H23   1.083174 S    
N1    C106  1.447829 S    
C25   C49   1.421277 A    
C73   C81   1.406981 A    
C32   C40   1.417885 A    
C101  H29   1.081859 S    
C37   C38   1.421903 A    
N11   O42   1.301087 A    
C14   N6    1.368471 A    
O4    V3    1.973930 S    
C66   C106  1.417874 A    
N4    C107  1.447335 S    
C49   N9    1.433664 S    
C91   C99   1.398952 A    
N5    C110  1.447756 S    
C47   C64   1.402083 A    
C53   C61   1.400749 A    
O14   V4    1.976380 S    
C6    C83   1.487894 S    
C70   C78   1.410489 A    
C20   C28   1.420853 A    
C33   C34   1.421907 A    
C89   C97   1.398955 A    
C18   O30   1.347681 S    
C22   C30   1.420849 A    
C21   O33   1.347716 S    
C77   H13   1.083187 S    
C84   C92   1.405534 A    
C9    O21   1.349450 S    
C85   C93   1.404078 A    
C13   N5    1.368640 A    
C66   C74   1.410483 A    
C89   H17   1.083177 S    
C15   C47   1.407672 A    
C25   C33   1.417739 A    
C78   C86   1.407542 A    
