data_mof_unit_20486.cif
_audit_creation_date              2012-12-10T17:34:24-0500
_audit_creation_method            fapswitch 2.2
_symmetry_space_group_name_H-M    P1
_symmetry_Int_Tables_number       1
_space_group_crystal_system       triclinic
_cell_length_a                    12.455064
_cell_length_b                    13.063665
_cell_length_c                    14.31617
_cell_angle_alpha                 76.977218
_cell_angle_beta                  100.519591
_cell_angle_gamma                 116.615278
_cell_volume                      2020.0457451

loop_
_atom_site_label
_atom_site_type_symbol
_atom_type_description
_atom_site_fract_x
_atom_site_fract_y
_atom_site_fract_z
_atom_type_partial_charge
C1    C     C_R   0.854648 0.285564 0.512414 0.952406
C2    C     C_1   0.999415 0.500092 0.228931 -0.155974
C3    C     C_R   0.285858 0.023124 0.371891 -0.201538
C4    C     C_R   0.227312 0.838547 0.478213 -0.175813
C5    C     C_R   0.793077 0.097306 0.622485 0.371169
C6    C     C_R   0.700102 0.025891 0.681378 0.241686
C7    C     C_R   0.578845 0.998351 0.644056 0.355767
C8    C     C_R   0.552523 0.035276 0.544975 -0.049754
C9    C     C_R   0.647421 0.124871 0.492241 -0.114157
C10   C     C_R   0.433266 0.990478 0.498088 0.101451
C11   C     C_R   0.405238 0.056945 0.412957 0.016858
C12   C     C_R   0.000064 0.499628 0.668611 0.816975
C13   C     C_R   0.497670 0.150717 0.365065 -0.303590
C14   C     C_R   0.618733 0.177626 0.398877 0.473646
C15   C     C_R   0.344633 0.877121 0.527578 0.410162
C16   C     C_R   0.196853 0.915515 0.405786 -0.247047
C17   C     C_R   0.768265 0.162304 0.535709 -0.273709
C18   C     C_R   0.312404 0.291769 0.621062 0.324157
C19   C     C_R   0.763538 0.650134 0.375681 0.539478
C20   C     C_R   0.662864 0.672266 0.338348 -0.347760
C21   C     C_R   0.552233 0.604142 0.375231 0.408145
C22   C     C_R   0.543615 0.520595 0.460059 -0.148536
C23   C     C_R   0.144765 0.714108 0.489582 0.774716
C24   C     C_R   0.646516 0.495510 0.494632 0.064815
C25   C     C_R   0.436421 0.460206 0.510341 -0.137393
C26   C     C_R   0.422046 0.359376 0.578870 -0.179833
C27   C     C_R   0.520157 0.333395 0.612449 0.371150
C28   C     C_R   0.630924 0.400609 0.573501 0.340106
C29   C     C_R   0.344170 0.498601 0.499290 -0.039185
C30   C     C_R   0.232632 0.340745 0.614827 0.573665
C31   C     C_R   0.000003 0.500399 0.331397 0.828539
C32   C     C_1   0.000157 0.499150 0.771135 -0.179356
C33   C     C_1   0.999928 0.498964 0.856653 -0.014108
C34   C     C_1   0.999580 0.499045 0.957341 0.007423
C35   C     C_1   0.999354 0.499298 0.042786 0.011019
C36   C     C_1   0.999258 0.499721 0.143453 -0.000137
Cu1   Cu    Cu3+1 0.098280 0.475420 0.520190 0.999225
Cu2   Cu    Cu3+1 0.901720 0.524580 0.479810 1.029443
H1    H     H_    0.107299 0.887789 0.368108 0.200475
H2    H     H_    0.350496 0.578446 0.453550 0.215467
H3    H     H_    0.668105 0.737689 0.275251 0.172666
H4    H     H_    0.475947 0.196520 0.296601 0.138481
H5    H     H_    0.262894 0.076382 0.309191 0.156583
N1    N     N_R   0.246290 0.438200 0.550780 -0.253301
N2    N     N_R   0.754310 0.561180 0.449760 -0.178180
O1    O     O_R   0.972510 0.318130 0.525390 -0.514627
O2    O     O_R   0.806530 0.359650 0.491290 -0.525869
O3    O     O_R   0.083010 0.479240 0.641000 -0.548763
O4    O     O_R   0.917030 0.520750 0.606900 -0.501847
O5    O     O_R   0.193470 0.640350 0.508710 -0.560914
O6    O     O_R   0.027490 0.681870 0.474610 -0.531673
O7    O     O_R   0.082970 0.479250 0.393100 -0.577665
O8    O     O_R   0.916990 0.520760 0.359000 -0.507712
O9    O     O_3   0.512149 0.246484 0.691148 -0.541022
C37   C     C_3   0.544443 0.294843 0.776566 -0.210726
H6    H     H_    0.483137 0.333035 0.783989 0.144085
H7    H     H_    0.639579 0.361337 0.780393 0.160016
H8    H     H_    0.536233 0.224581 0.838934 0.189527
O10   O     O_3   0.284555 0.181326 0.673072 -0.545844
C38   C     C_3   0.252078 0.103577 0.607697 -0.192612
H9    H     H_    0.329849 0.121559 0.568952 0.187169
H10   H     H_    0.175228 0.106110 0.554990 0.114726
H11   H     H_    0.222996 0.014134 0.648698 0.182206
O11   O     O_3   0.870919 0.712618 0.334239 -0.705805
H12   H     H_    0.863386 0.773790 0.281698 0.291861
O12   O     O_3   0.453571 0.614128 0.319905 -0.727529
H13   H     H_    0.387727 0.534772 0.320783 0.321310
O13   O     O_3   0.724586 0.377155 0.621161 -0.696409
H14   H     H_    0.697596 0.293155 0.646715 0.334263
O14   O     O_3   0.378547 0.799940 0.594131 -0.701872
H15   H     H_    0.311004 0.750720 0.634695 0.326602
O15   O     O_3   0.910375 0.123171 0.660639 -0.498376
C39   C     C_3   0.939221 0.034325 0.648835 -0.153888
H16   H     H_    0.942486 0.036174 0.571275 0.121225
H17   H     H_    0.875219 0.946882 0.681709 0.158880
H18   H     H_    0.029755 0.049123 0.686325 0.208723
O16   O     O_3   0.486977 0.946452 0.704055 -0.698886
H19   H     H_    0.503792 0.888937 0.755118 0.337872
O17   O     O_3   0.732614 0.991528 0.776523 -0.705619
H20   H     H_    0.676191 0.991149 0.817238 0.332241
O18   O     O_3   0.709500 0.252428 0.340693 -0.746339
H21   H     H_    0.673845 0.280991 0.278503 0.317619
O19   O     O_3   0.134837 0.286858 0.668317 -0.505459
C40   C     C_3   0.174662 0.304353 0.764697 -0.221083
H22   H     H_    0.094404 0.273854 0.804458 0.201583
H23   H     H_    0.229925 0.397893 0.770012 0.126687
H24   H     H_    0.226049 0.252970 0.800745 0.167645

loop_
_geom_bond_atom_site_label_1
_geom_bond_atom_site_label_2
_ccdc_geom_bond_type
C37   H6    S    
C21   O12   S    
C39   H16   S    
C19   C20   A    
C18   C26   A    
C40   H24   S    
C31   O7    A    
C12   O3    A    
C12   O4    A    
C27   O9    S    
C7    C8    A    
Cu2   O4    S    
O16   H19   S    
C3    H5    S    
C26   C27   A    
C38   H11   S    
C24   N2    A    
C28   O13   S    
C40   H23   S    
C5    O15   S    
C10   C15   A    
C5    C6    A    
C1    O1    A    
C5    C17   A    
C38   H10   S    
C34   C35   T    
C30   O19   S    
Cu2   N2    S    
O13   H14   S    
C35   C36   S    
C8    C9    A    
C22   C25   A    
O14   H15   S    
C18   C30   A    
C7    O16   S    
O12   H13   S    
O10   C38   S    
C13   C14   A    
C12   C32   S    
C39   H17   S    
C30   N1    A    
C13   H4    S    
C20   H3    S    
C25   C29   A    
C40   H22   S    
C4    C23   S    
C1    O2    A    
C23   O5    A    
Cu2   O6    S    
C25   C26   A    
O18   H21   S    
C38   H9    S    
C4    C16   A    
C9    C14   A    
Cu1   Cu2   S    
C23   O6    A    
O19   C40   S    
C19   O11   S    
C33   C34   S    
C31   O8    A    
Cu1   O3    S    
Cu2   O2    S    
C9    C17   A    
C37   H7    S    
C29   N1    A    
C39   H18   S    
C22   C24   A    
C2    C36   T    
Cu1   O7    S    
C15   O14   S    
O9    C37   S    
C24   C28   A    
O15   C39   S    
C19   N2    A    
C6    C7    A    
C1    C17   S    
C32   C33   T    
C4    C15   A    
O11   H12   S    
Cu1   O5    S    
C11   C13   A    
C6    O17   S    
Cu2   O8    S    
Cu1   N1    S    
C29   H2    S    
C3    C11   A    
C10   C11   A    
C16   H1    S    
O17   H20   S    
C18   O10   S    
C20   C21   A    
C8    C10   A    
C37   H8    S    
C27   C28   A    
C2    C31   S    
C14   O18   S    
Cu1   O1    S    
C21   C22   A    
C3    C16   A    
