data_mof_unit_34907.cif
_audit_creation_date              2012-12-10T19:42:33-0500
_audit_creation_method            fapswitch 2.2
_symmetry_space_group_name_H-M    P1
_symmetry_Int_Tables_number       1
_space_group_crystal_system       triclinic
_cell_length_a                    10.91981
_cell_length_b                    10.911318
_cell_length_c                    9.816593
_cell_angle_alpha                 98.933545
_cell_angle_beta                  98.546891
_cell_angle_gamma                 92.774429
_cell_volume                      1139.55864114

loop_
_atom_site_label
_atom_site_type_symbol
_atom_type_description
_atom_site_fract_x
_atom_site_fract_y
_atom_site_fract_z
_atom_type_partial_charge
C1    C     C_R   0.501263 0.262056 0.499187 0.789881
C2    C     C_R   0.502336 0.738165 0.500748 0.800593
C3    C     C_R   0.871853 0.493517 0.503590 -0.088393
C4    C     C_R   0.127513 0.498270 0.496895 -0.079430
C5    C     C_R   0.957438 0.516390 0.630236 -0.005449
C6    C     C_R   0.041561 0.471678 0.370415 -0.009658
C7    C     C_R   0.306798 0.084982 0.022820 -0.101103
C8    C     C_R   0.733335 0.926206 0.966612 -0.102220
C9    C     C_R   0.337126 0.052707 0.154835 -0.169147
C10   C     C_R   0.693289 0.953060 0.833791 -0.175786
C11   C     C_R   0.458594 0.076754 0.228493 0.041117
C12   C     C_R   0.568926 0.925789 0.770142 0.040002
C13   C     C_R   0.552131 0.132425 0.165952 0.096804
C14   C     C_R   0.482713 0.872516 0.843810 0.095192
C15   C     C_R   0.518000 0.167266 0.033825 -0.178522
C16   C     C_R   0.526439 0.842462 0.975937 -0.196887
C17   C     C_R   0.396381 0.143865 0.963296 -0.195644
C18   C     C_R   0.650711 0.868849 0.036551 -0.188871
C19   C     C_R   0.481694 0.915161 0.375778 -0.220226
C20   C     C_R   0.531638 0.085773 0.623547 -0.222474
C21   C     C_R   0.505614 0.872643 0.503503 -0.052748
C22   C     C_R   0.504872 0.128045 0.496130 -0.047926
C23   C     C_R   0.261928 0.499775 0.499557 0.805996
C24   C     C_R   0.737826 0.497444 0.500520 0.799311
C25   C     C_R   0.533016 0.959680 0.629590 0.066925
C26   C     C_R   0.483128 0.041396 0.369641 0.073633
C27   C     C_2   0.510121 0.510679 0.078964 -0.083469
C28   C     C_2   0.488893 0.490293 0.921035 -0.073533
C29   C     C_R   0.164403 0.510967 0.037095 -0.126448
C30   C     C_R   0.827735 0.457571 0.953349 -0.103394
C31   C     C_R   0.130245 0.538578 0.169593 -0.051764
C32   C     C_R   0.866210 0.437074 0.822528 -0.064549
C33   C     C_R   0.077322 0.444045 0.229627 0.121025
C34   C     C_R   0.920034 0.536373 0.770564 0.131879
C35   C     C_R   0.054178 0.323273 0.152932 -0.121942
C36   C     C_R   0.937120 0.655193 0.852300 -0.137295
C37   C     C_R   0.085227 0.297036 0.018992 -0.138178
C38   C     C_R   0.902298 0.674155 0.984765 -0.136367
C39   C     C_R   0.142277 0.390103 0.962047 -0.160740
C40   C     C_R   0.845998 0.576143 0.034351 -0.157509
C41   C     C_R   0.915362 0.468728 0.376349 -0.216911
C42   C     C_R   0.083827 0.519923 0.624638 -0.251026
Cu1   Cu    Cu3+1 0.521120 0.521140 0.639640 0.961900
Cu2   Cu    Cu3+1 0.478880 0.478860 0.360360 0.958857
H1    H     H_    0.167907 0.368707 0.859162 0.124895
H2    H     H_    0.816113 0.592877 0.135253 0.120363
H3    H     H_    0.585993 0.211171 0.983553 0.155078
H4    H     H_    0.464038 0.799589 0.033622 0.166419
H5    H     H_    0.462172 0.849659 0.279008 0.147342
H6    H     H_    0.552375 0.151450 0.720224 0.145790
H7    H     H_    0.417481 0.420384 0.865060 0.153440
H8    H     H_    0.580574 0.581530 0.134963 0.153744
H9    H     H_    0.620421 0.618063 0.904820 0.222885
H10   H     H_    0.380489 0.380958 0.095162 0.224433
H11   H     H_    0.207392 0.583337 0.992372 0.164926
H12   H     H_    0.784283 0.381600 0.992092 0.157944
H13   H     H_    0.146611 0.632765 0.226338 0.117995
H14   H     H_    0.852409 0.344759 0.760775 0.109801
H15   H     H_    0.011575 0.249835 0.196621 0.156683
H16   H     H_    0.976123 0.733128 0.813042 0.115121
H17   H     H_    0.063882 0.204830 0.958776 0.121295
H18   H     H_    0.918862 0.764811 0.049286 0.124108
H19   H     H_    0.850476 0.447288 0.279859 0.190073
H20   H     H_    0.148497 0.538430 0.721618 0.170808
H21   H     H_    0.371973 0.169660 0.861154 0.146339
H22   H     H_    0.682393 0.846755 0.139133 0.149878
H23   H     H_    0.213881 0.062725 0.965759 0.135477
H24   H     H_    0.828675 0.950559 0.015484 0.130809
H25   H     H_    0.265574 0.008352 0.199977 0.134997
H26   H     H_    0.759372 0.996373 0.780467 0.135263
N1    N     N_2   0.447120 0.447110 0.150550 -0.280540
N2    N     N_2   0.552880 0.552890 0.849450 -0.279377
O1    O     O_R   0.517830 0.337490 0.617920 -0.594402
O2    O     O_R   0.482170 0.662510 0.382080 -0.591468
O3    O     O_R   0.482150 0.301790 0.382070 -0.576619
O4    O     O_R   0.517850 0.698210 0.617930 -0.576576
O5    O     O_R   0.337480 0.517860 0.617920 -0.574910
O6    O     O_R   0.662520 0.482140 0.382080 -0.581797
O7    O     O_R   0.301810 0.482160 0.382070 -0.572962
O8    O     O_R   0.698190 0.517840 0.617930 -0.570704
C43   C     C_2   0.684841 0.154264 0.233536 0.807139
O9    O     O_2   0.757277 0.217225 0.184355 -0.660546
O10   O     O_R   0.728905 0.100998 0.350329 -0.789643
H27   H     H_    0.820611 0.123385 0.385174 0.324779
C44   C     C_2   0.347935 0.847194 0.787597 0.830090
O11   O     O_2   0.300730 0.891468 0.687032 -0.628820
O12   O     O_R   0.273620 0.774126 0.852621 -0.802209
H28   H     H_    0.183768 0.765477 0.806470 0.317152

loop_
_geom_bond_atom_site_label_1
_geom_bond_atom_site_label_2
_ccdc_geom_bond_type
Cu1   O1    S    
C30   C32   A    
O12   H28   S    
Cu1   N2    S    
C32   H14   S    
C5    C42   A    
C16   H4    S    
C43   O9    D    
C27   N1    D    
C44   O11   D    
C40   H2    S    
C19   C21   A    
C9    H25   S    
C28   H7    S    
C20   C25   A    
C13   C43   S    
Cu2   N1    S    
C35   H15   S    
C19   C26   A    
C20   H6    S    
C24   O8    A    
H10   N1    S    
C7    C17   A    
C6    C41   A    
C31   C33   A    
C15   H3    S    
C2    O2    A    
C39   H1    S    
C1    C22   S    
C3    C24   S    
C28   N2    D    
C43   O10   S    
C44   O12   S    
C37   C39   A    
C1    O3    A    
C4    C6    A    
C4    C23   S    
C29   H11   S    
C11   C26   S    
C36   H16   S    
Cu1   O8    S    
C30   H12   S    
C8    C18   A    
C32   C34   A    
Cu2   O3    S    
Cu1   Cu2   S    
C19   H5    S    
O10   H27   S    
C5    C34   S    
C29   C39   A    
C2    C21   S    
C30   C40   A    
C23   O5    A    
Cu2   O2    S    
C9    C11   A    
C10   C12   A    
C10   H26   S    
C8    C10   A    
C12   C14   A    
C8    H24   S    
C13   C15   A    
C14   C16   A    
C18   H22   S    
C41   H19   S    
C42   H20   S    
C2    O4    A    
C27   H8    S    
C24   O6    A    
Cu1   O4    S    
C15   C17   A    
C21   C25   A    
C3    C41   A    
C35   C37   A    
Cu2   O7    S    
C14   C44   S    
C20   C22   A    
C3    C5    A    
C37   H17   S    
Cu1   O5    S    
C17   H21   S    
C6    C33   S    
C12   C25   S    
C1    O1    A    
C31   H13   S    
Cu2   O6    S    
C29   C31   A    
C38   C40   A    
C11   C13   A    
C4    C42   A    
C36   C38   A    
C33   C35   A    
C34   C36   A    
C7    H23   S    
C7    C9    A    
C16   C18   A    
C22   C26   A    
C27   C28   S    
C23   O7    A    
H9    N2    S    
C38   H18   S    
