data_mof_unit_19554.cif
_audit_creation_date              2012-12-10T17:19:22-0500
_audit_creation_method            fapswitch 2.2
_symmetry_space_group_name_H-M    P1
_symmetry_Int_Tables_number       1
_space_group_crystal_system       triclinic
_cell_length_a                    15.076667
_cell_length_b                    10.864469
_cell_length_c                    9.571211
_cell_angle_alpha                 90.402445
_cell_angle_beta                  90.123056
_cell_angle_gamma                 92.611888
_cell_volume                      1566.09207614

loop_
_atom_site_label
_atom_site_type_symbol
_atom_type_description
_atom_site_fract_x
_atom_site_fract_y
_atom_site_fract_z
_atom_type_partial_charge
C1    C     C_R   0.507081 0.263091 0.500325 0.805007
C2    C     C_R   0.907316 0.531088 0.375444 0.072555
C3    C     C_R   0.952929 0.454171 0.746559 -0.221354
C4    C     C_R   0.045197 0.453029 0.745569 -0.220145
C5    C     C_R   0.092339 0.478976 0.622465 0.129205
C6    C     C_R   0.046684 0.505821 0.497895 0.023184
C7    C     C_R   0.093898 0.531688 0.372693 0.078206
C8    C     C_R   0.046681 0.559446 0.248867 0.154954
C9    C     C_R   0.953674 0.557827 0.252254 -0.256939
C10   C     C_R   0.184527 0.477873 0.622279 -0.242689
C11   C     C_R   0.231820 0.501807 0.499216 -0.082115
C12   C     C_R   0.328679 0.500033 0.499832 0.820011
C13   C     C_R   0.186761 0.528018 0.375433 -0.251601
C14   C     C_R   0.558856 0.122963 0.754582 -0.158236
C15   C     C_R   0.549129 0.065223 0.883453 -0.158097
C16   C     C_R   0.505382 0.950329 0.891145 -0.140412
C17   C     C_R   0.479661 0.887963 0.768823 -0.162718
C18   C     C_R   0.498278 0.939732 0.635610 0.094041
C19   C     C_R   0.524850 0.065603 0.630815 0.096908
C20   C     C_R   0.515065 0.129319 0.503001 -0.120384
C21   C     C_R   0.500747 0.062930 0.378588 -0.211621
C22   C     C_R   0.493202 0.935739 0.380163 -0.214987
C23   C     C_R   0.495173 0.737628 0.501580 0.783110
C24   C     C_R   0.491787 0.872329 0.507144 -0.113789
C25   C     C_R   0.618286 0.664008 0.145779 -0.167131
C26   C     C_R   0.676250 0.743680 0.074095 -0.233895
C27   C     C_R   0.676424 0.743266 0.930173 -0.192985
C28   C     C_R   0.618505 0.663354 0.857127 -0.146884
C29   C     C_R   0.558212 0.580464 0.925866 0.190285
C30   C     C_R   0.558137 0.580594 0.075619 0.211748
C31   C     C_R   0.444819 0.423198 0.073183 -0.075389
C32   C     C_R   0.444829 0.423249 0.925094 -0.071078
C33   C     C_R   0.671311 0.501009 0.500136 0.789313
C34   C     C_R   0.814834 0.529179 0.376677 -0.237832
C35   C     C_R   0.768179 0.503275 0.500320 -0.069342
C36   C     C_R   0.814288 0.479680 0.623888 -0.253280
C37   C     C_R   0.906749 0.480104 0.623953 0.124202
C38   C     C_R   0.953642 0.505909 0.499046 0.059197
Cu1   Cu    Cu3+1 0.499990 0.499990 0.640660 0.918673
Cu2   Cu    Cu3+1 0.500010 0.500010 0.359340 0.928136
H1    H     H_    0.779266 0.548444 0.281278 0.158201
H2    H     H_    0.594756 0.211327 0.753276 0.161112
H3    H     H_    0.573207 0.111287 0.977739 0.136549
H4    H     H_    0.492982 0.908146 0.991822 0.138565
H5    H     H_    0.442408 0.801774 0.781969 0.169438
H6    H     H_    0.486917 0.887108 0.281160 0.164186
H7    H     H_    0.399644 0.360294 0.127981 0.136601
H8    H     H_    0.624014 0.672077 0.255911 0.202314
H9    H     H_    0.721393 0.806258 0.130982 0.154658
H10   H     H_    0.721480 0.805798 0.874365 0.155489
H11   H     H_    0.623647 0.671562 0.747102 0.204042
H12   H     H_    0.778302 0.459477 0.719647 0.156758
H13   H     H_    0.399679 0.360342 0.868939 0.141821
H14   H     H_    0.917686 0.434043 0.842912 0.140258
H15   H     H_    0.079809 0.431276 0.840934 0.134698
H16   H     H_    0.219390 0.457110 0.717922 0.149874
H17   H     H_    0.225138 0.546051 0.282052 0.170541
H18   H     H_    0.917013 0.578353 0.158223 0.143966
H19   H     H_    0.495267 0.109237 0.279250 0.161728
N1    N     N_R   0.500860 0.501210 0.147910 -0.198106
N2    N     N_R   0.500890 0.501290 0.852040 -0.204207
O1    O     O_R   0.499990 0.319640 0.618810 -0.588129
O2    O     O_R   0.500000 0.319660 0.381240 -0.579707
O3    O     O_R   0.370250 0.499960 0.618800 -0.584141
O4    O     O_R   0.370260 0.499980 0.381230 -0.584645
O5    O     O_R   0.500000 0.680340 0.618760 -0.613064
O6    O     O_R   0.500010 0.680360 0.381190 -0.599820
O7    O     O_R   0.629740 0.500020 0.618770 -0.608226
O8    O     O_R   0.629750 0.500040 0.381200 -0.600183
C39   C     C_3   0.092224 0.591424 0.111812 -0.417206
C40   C     C_3   0.131782 0.723379 0.113577 -0.814308
H20   H     H_    0.078419 0.789271 0.129445 0.253790
H21   H     H_    0.181844 0.737269 0.198011 0.249005
H22   H     H_    0.164528 0.743548 0.011952 0.240683
H23   H     H_    0.143905 0.525040 0.087266 0.187116
H24   H     H_    0.043860 0.583762 0.024043 0.204517

loop_
_geom_bond_atom_site_label_1
_geom_bond_atom_site_label_2
_ccdc_geom_bond_type
Cu2   N1    S    
Cu1   O7    S    
C35   C36   A    
C1    O1    A    
C7    C8    A    
Cu1   O3    S    
C26   C27   A    
C29   C30   A    
Cu2   O2    S    
C18   C24   A    
C23   O5    A    
C28   C29   A    
C17   H5    S    
C32   N2    A    
C21   H19   S    
C5    C6    A    
C12   O3    A    
C28   H11   S    
C13   H17   S    
C15   C16   A    
C34   C35   A    
C23   O6    A    
C19   C20   A    
C8    C9    A    
Cu2   O6    S    
C30   N1    A    
C23   C24   S    
C6    C38   A    
C39   C40   S    
C10   H16   S    
C16   H4    S    
C36   H12   S    
C27   H10   S    
C33   O8    A    
C14   H2    S    
C2    C34   A    
C31   H7    S    
C21   C22   A    
C34   H1    S    
C1    O2    A    
Cu1   N2    S    
C29   N2    A    
Cu2   O8    S    
C26   H9    S    
Cu1   Cu2   S    
C40   H21   S    
C18   C19   A    
C25   C26   A    
C31   N1    A    
C37   C38   A    
C2    C38   A    
C31   C32   A    
C17   C18   A    
C25   H8    S    
C3    H14   S    
C22   H6    S    
Cu2   O4    S    
C4    H15   S    
C39   H24   S    
Cu1   O5    S    
C22   C24   A    
C3    C4    A    
C32   H13   S    
C39   H23   S    
C25   C30   A    
Cu1   O1    S    
C9    H18   S    
C1    C20   S    
C14   C19   A    
C4    C5    A    
C40   H22   S    
C11   C12   S    
C6    C7    A    
C12   O4    A    
C8    C39   S    
C15   H3    S    
C5    C10   A    
C11   C13   A    
C16   C17   A    
C33   C35   S    
C10   C11   A    
C7    C13   A    
C40   H20   S    
C20   C21   A    
C3    C37   A    
C36   C37   A    
C27   C28   A    
C14   C15   A    
C2    C9    A    
C33   O7    A    
