data_mof_unit_44753.cif
_audit_creation_date              2012-12-10T18:43:43-0500
_audit_creation_method            fapswitch 2.2
_symmetry_space_group_name_H-M    P1
_symmetry_Int_Tables_number       1
_space_group_crystal_system       triclinic
_cell_length_a                    10.810519
_cell_length_b                    10.778712
_cell_length_c                    9.925004
_cell_angle_alpha                 89.802819
_cell_angle_beta                  106.32227
_cell_angle_gamma                 92.043622
_cell_volume                      1109.1526197

loop_
_atom_site_label
_atom_site_type_symbol
_atom_type_description
_atom_site_fract_x
_atom_site_fract_y
_atom_site_fract_z
_atom_type_partial_charge
C1    C     C_R   0.505572 0.260375 0.502853 0.969525
C2    C     C_R   0.493866 0.739554 0.497117 0.955834
C3    C     C_R   0.258323 0.501973 0.438898 0.885557
C4    C     C_R   0.741730 0.498501 0.561050 0.888381
C5    C     C_R   0.596376 0.558548 0.103458 -0.110574
C6    C     C_R   0.404017 0.440777 0.896659 -0.123284
C7    C     C_R   0.597336 0.561245 0.961119 0.421811
C8    C     C_R   0.402787 0.438553 0.038960 0.444817
C9    C     C_2   0.120892 0.520715 0.399782 0.102679
C10   C     C_2   0.879562 0.481982 0.599797 0.112104
C11   C     C_2   0.053907 0.470036 0.482411 0.138162
C12   C     C_2   0.945126 0.532451 0.515617 0.139986
C13   C     C_R   0.472026 0.066958 0.376303 -0.254170
C14   C     C_R   0.525528 0.932821 0.623957 -0.224688
C15   C     C_R   0.457945 0.939983 0.367169 0.366569
C16   C     C_R   0.538172 0.059890 0.633262 0.455639
C17   C     C_R   0.489559 0.872186 0.493860 -0.227602
C18   C     C_R   0.508371 0.127661 0.506355 -0.228636
H1    H     H_    0.673372 0.603407 0.184190 0.231806
H2    H     H_    0.327266 0.395527 0.815980 0.235792
H3    H     H_    0.451511 0.119011 0.279716 0.253907
H4    H     H_    0.546226 0.880602 0.720428 0.256421
N1    N     N_R   0.499970 0.499970 0.857200 -0.174828
N2    N     N_R   0.500030 0.500030 0.142800 -0.161376
O1    O     O_R   0.499990 0.316750 0.614620 -0.556908
O2    O     O_R   0.500010 0.683250 0.385380 -0.550098
O3    O     O_R   0.499990 0.316780 0.385290 -0.588519
O4    O     O_R   0.500010 0.683220 0.614710 -0.579731
O5    O     O_R   0.317810 0.500000 0.571850 -0.625446
O6    O     O_R   0.682190 0.500000 0.428150 -0.633730
O7    O     O_R   0.317810 0.500030 0.342520 -0.522635
O8    O     O_R   0.682190 0.499970 0.657480 -0.527104
Zn1   Zn    Zn3+2 0.500000 0.499980 0.653120 1.094849
Zn2   Zn    Zn3+2 0.500000 0.500020 0.346880 1.106807
Br1   Br    Br    0.901385 0.702319 0.460851 -0.379155
Br2   Br    Br    0.094549 0.298910 0.534010 -0.368136
Br3   Br    Br    0.949475 0.376592 0.757069 -0.192269
Br4   Br    Br    0.054268 0.628857 0.244048 -0.178908
S1    S     S_3+6 0.737553 0.637335 0.934843 0.108286
O9    O     O_2   0.789804 0.730515 0.051121 -0.219951
O10   O     O_2   0.836476 0.541030 0.944731 -0.232121
O11   O     O_3   0.717476 0.714596 0.784211 -0.533110
H5    H     H_    0.805383 0.743061 0.783280 0.399072
S2    S     S_3+6 0.262379 0.363008 0.065397 0.121520
O12   O     O_2   0.164061 0.459797 0.056293 -0.205138
O13   O     O_2   0.209427 0.270176 0.948912 -0.206033
O14   O     O_3   0.282458 0.285428 0.215817 -0.540837
H6    H     H_    0.194550 0.256926 0.216702 0.396044
S3    S     S_3+6 0.398275 0.875370 0.195010 0.109079
O15   O     O_2   0.301000 0.771846 0.192642 -0.197416
O16   O     O_2   0.334720 0.972314 0.091760 -0.201112
O17   O     O_3   0.521797 0.820001 0.144728 -0.513558
H7    H     H_    0.582363 0.892174 0.150104 0.389477
S4    S     S_3+6 0.592521 0.124635 0.805885 0.084060
O18   O     O_2   0.478530 0.173265 0.844856 -0.272873
O19   O     O_2   0.653089 0.027443 0.910387 -0.238255
O20   O     O_3   0.702339 0.240599 0.813229 -0.491851
H8    H     H_    0.708630 0.285356 0.902056 0.391867

loop_
_geom_bond_atom_site_label_1
_geom_bond_atom_site_label_2
_ccdc_geom_bond_type
C1    O1    A    
C11   C12   S    
C15   C17   A    
C3    C9    S    
C6    H2    S    
O14   H6    S    
S2    O14   S    
S3    O17   S    
C1    O3    A    
O8    Zn1   S    
C14   H4    S    
C16   S4    S    
C13   C15   A    
C1    C18   S    
O7    Zn2   S    
C13   H3    S    
C2    O2    A    
S2    O12   D    
C2    C17   S    
C3    O7    A    
C9    C11   D    
C14   C17   A    
C3    O5    A    
O20   H8    S    
C4    O8    A    
C5    N2    A    
C10   C12   D    
C13   C18   A    
C10   Br3   S    
C7    N1    A    
C6    N1    A    
C16   C18   A    
C11   Br2   S    
C8    N2    A    
S2    O13   D    
O4    Zn1   S    
S1    O11   S    
S4    O19   D    
C15   S3    S    
O3    Zn2   S    
C14   C16   A    
C2    O4    A    
O11   H5    S    
O6    Zn2   S    
C4    C10   S    
O5    Zn1   S    
O17   H7    S    
N1    Zn1   S    
S1    O10   D    
S3    O15   D    
S1    O9    D    
C5    C7    A    
C7    S1    S    
S4    O18   D    
C9    Br4   S    
C6    C8    A    
S3    O16   D    
C5    H1    S    
O2    Zn2   S    
C4    O6    A    
C8    S2    S    
O1    Zn1   S    
C12   Br1   S    
S4    O20   S    
N2    Zn2   S    
