data_mof_unit_52311.cif
_audit_creation_date              2013-03-05T16:41:16-0500
_audit_creation_method            fapswitch 2.2
_symmetry_space_group_name_H-M    P1
_symmetry_Int_Tables_number       1
_space_group_crystal_system       triclinic
_cell_length_a                    10.606028
_cell_length_b                    10.68056
_cell_length_c                    9.914934
_cell_angle_alpha                 89.091591
_cell_angle_beta                  91.984744
_cell_angle_gamma                 89.967998
_cell_volume                      1122.33149116

loop_
_atom_site_label
_atom_site_type_symbol
_atom_site_description
_atom_site_fract_x
_atom_site_fract_y
_atom_site_fract_z
_atom_type_partial_charge
O1    O     O_R   0.500020 0.316790 0.614690 -0.581286
O2    O     O_R   0.500000 0.316760 0.385350 -0.582157
C1    C     C_R   0.493306 0.260782 0.500807 0.956077
O3    O     O_R   0.319080 0.500020 0.614640 -0.606875
O4    O     O_R   0.319070 0.499980 0.385300 -0.570607
C2    C     C_R   0.262248 0.496473 0.497034 0.980659
Zn1   Zn    Zn3+2 0.500010 0.500020 0.653130 1.111108
Zn2   Zn    Zn3+2 0.499990 0.499980 0.346870 1.129314
O5    O     O_R   0.500000 0.683240 0.614650 -0.573616
O6    O     O_R   0.499980 0.683210 0.385310 -0.570459
O7    O     O_R   0.680930 0.500020 0.614700 -0.618355
O8    O     O_R   0.680920 0.499980 0.385360 -0.599688
C3    C     C_R   0.503110 0.739701 0.499622 0.943747
C4    C     C_R   0.736653 0.514081 0.502253 1.018268
C5    C     C_2   0.933193 0.592465 0.408736 0.292698
C6    C     C_2   0.866942 0.548693 0.511992 -0.404785
H1    H     H_    0.914138 0.531490 0.609889 0.195645
C7    C     C_2   0.069217 0.590829 0.428507 0.562891
C8    C     C_2   0.128501 0.489847 0.483772 -0.046906
C9    C     C_R   0.538340 0.063972 0.611946 -0.067928
C10   C     C_R   0.479167 0.129136 0.504883 -0.184990
C11   C     C_R   0.411251 0.063918 0.402880 0.296375
C12   C     C_R   0.421406 0.934061 0.401967 -0.107057
H2    H     H_    0.370287 0.881931 0.325157 0.250501
C13   C     C_R   0.496818 0.871784 0.500336 -0.078655
C14   C     C_R   0.548317 0.936753 0.609984 -0.031654
C15   C     C_3   0.677890 0.938332 0.680963 0.252304
C16   C     C_3   0.663218 0.081462 0.684989 0.699896
C17   C     C_R   0.392077 0.477890 0.067303 0.059514
N1    N     N_R   0.499170 0.499140 0.142800 -0.120898
C18   C     C_R   0.609628 0.507050 0.075289 0.043535
H3    H     H_    0.698201 0.514384 0.130973 0.199195
C19   C     C_R   0.609585 0.508567 0.931826 0.062708
H4    H     H_    0.697773 0.519401 0.881381 0.183827
N2    N     N_R   0.499170 0.499180 0.857150 -0.104847
C20   C     C_R   0.392250 0.473360 0.926023 0.033055
C21   C     C_3   0.262727 0.532781 0.913302 0.222507
C22   C     C_3   0.268261 0.545606 0.067923 0.654489
N3    N     N_R   0.878064 0.633954 0.280965 0.247124
O9    O     O_R   0.777913 0.704396 0.275600 -0.287909
O10   O     O_R   0.938624 0.616725 0.170931 -0.234436
N4    N     N_R   0.755557 0.153515 0.608561 0.193774
O11   O     O_R   0.764529 0.140723 0.478854 -0.309192
O12   O     O_R   0.827234 0.234724 0.670440 -0.236233
N5    N     N_R   0.257638 0.651938 0.836216 0.217059
O13   O     O_R   0.159992 0.679598 0.758272 -0.282388
O14   O     O_R   0.348426 0.733181 0.847518 -0.264476
N6    N     N_R   0.164599 0.444097 0.868161 0.255098
O15   O     O_R   0.046168 0.475146 0.872905 -0.251403
O16   O     O_R   0.193389 0.328647 0.842260 -0.243862
N7    N     N_R   0.275832 0.675580 0.113446 0.217889
O17   O     O_R   0.173115 0.741859 0.116107 -0.170319
O18   O     O_R   0.384009 0.731803 0.129488 -0.339996
F1    F     F_    0.177892 0.476979 0.134460 -0.555119
F2    F     F_    0.134298 0.696722 0.397113 -0.580245
N8    N     N_R   0.069776 0.368268 0.495280 0.205737
O19   O     O_R   0.988278 0.331478 0.403013 -0.250435
O20   O     O_R   0.118905 0.284645 0.578134 -0.230007
N9    N     N_R   0.334632 0.126698 0.299957 0.242855
O21   O     O_R   0.320862 0.078727 0.180494 -0.230589
O22   O     O_R   0.265201 0.222050 0.329851 -0.284096
N10   N     N_R   0.681560 0.879637 0.815864 0.251797
O23   O     O_R   0.774469 0.903662 0.900663 -0.183343
O24   O     O_R   0.596160 0.799388 0.850667 -0.299472
N11   N     N_R   0.782813 0.895992 0.599926 0.183010
O25   O     O_R   0.766251 0.873666 0.472078 -0.309591
O26   O     O_R   0.897102 0.895234 0.652061 -0.210049
F3    F     F_    0.648124 0.127859 0.813376 -0.558730

loop_
_geom_bond_atom_site_label_1
_geom_bond_atom_site_label_2
_geom_bond_distance
_ccdc_geom_bond_type
C17   C22   1.499086 S    
C8    N8    1.445073 S    
O4    Zn2   1.969208 S    
N7    O18   1.301301 A    
C12   H2    1.081257 S    
C18   C19   1.422249 A    
C21   C22   1.540426 S    
C15   N11   1.470138 S    
C15   N10   1.467411 S    
C5    C7    1.449244 S    
C18   H3    1.076559 S    
N2    C20   1.369792 A    
C22   F1    1.385765 S    
Zn2   O8    1.943522 S    
C15   C16   1.537807 S    
Zn2   N1    2.023220 S    
N10   O23   1.301349 A    
N6    O16   1.301809 A    
C19   H4    1.081226 S    
N11   O25   1.299523 A    
N9    O21   1.301586 A    
N3    O10   1.300546 A    
O1    Zn1   1.999689 S    
C10   C11   1.413980 A    
C9    C10   1.391060 A    
C21   N6    1.470695 S    
Zn1   O7    1.969209 S    
C2    C8    1.421972 S    
C17   C20   1.402449 A    
C5    N3    1.440042 S    
C14   C15   1.522347 S    
C17   N1    1.359680 A    
N4    O12   1.300745 A    
C7    F2    1.362746 S    
O3    Zn1   1.943522 S    
O4    C2    1.279393 A    
Zn1   N2    2.023051 S    
C16   N4    1.469470 S    
N6    O15   1.301562 A    
C16   F3    1.387666 S    
O8    C4    1.293649 A    
O2    C1    1.287216 A    
N5    O14   1.299698 A    
N1    C18   1.371232 A    
O7    C4    1.286577 A    
C4    C6    1.431056 S    
C1    C10   1.414201 S    
N9    O22   1.300433 A    
N4    O11   1.302168 A    
C21   N5    1.474101 S    
C5    C6    1.339942 D    
C9    C14   1.363322 A    
N3    O9    1.300418 A    
C12   C13   1.399357 A    
N7    O17   1.300146 A    
N8    O19   1.302083 A    
O3    C2    1.295066 A    
C7    C8    1.347407 D    
C11   N9    1.439304 S    
Zn1   O5    1.987790 S    
O5    C3    1.283080 A    
C11   C12   1.391255 A    
C20   C21   1.513372 S    
N10   O24   1.298927 A    
C22   N7    1.467903 S    
C9    C16   1.500570 S    
C19   N2    1.368238 A    
C13   C14   1.394610 A    
N5    O13   1.301542 A    
N11   O26   1.301166 A    
Zn2   O6    1.999689 S    
O2    Zn2   1.987792 S    
C3    C13   1.412404 S    
N8    O20   1.300243 A    
C6    H1    1.089525 S    
O1    C1    1.285984 A    
O6    C3    1.291827 A    
