data_mof_unit_58775.cif
_audit_creation_date              2013-03-05T15:50:08-0500
_audit_creation_method            fapswitch 2.2
_symmetry_space_group_name_H-M    P1
_symmetry_Int_Tables_number       1
_space_group_crystal_system       triclinic
_cell_length_a                    12.104915
_cell_length_b                    12.758921
_cell_length_c                    15.635921
_cell_angle_alpha                 84.614918
_cell_angle_beta                  113.972211
_cell_angle_gamma                 95.66769
_cell_volume                      2191.97385761

loop_
_atom_site_label
_atom_site_type_symbol
_atom_site_description
_atom_site_fract_x
_atom_site_fract_y
_atom_site_fract_z
_atom_type_partial_charge
O1    O     O_R   0.580150 0.341050 0.504560 -0.604920
O2    O     O_R   0.419850 0.658950 0.495440 -0.651472
O3    O     O_R   0.388090 0.353760 0.493600 -0.564507
O4    O     O_R   0.611910 0.646240 0.506400 -0.555321
C1    C     C_R   0.475291 0.299650 0.497804 0.904882
C2    C     C_R   0.526214 0.700236 0.505441 0.928551
O5    O     O_R   0.650890 0.490020 0.640860 -0.602780
O6    O     O_R   0.349110 0.509980 0.359140 -0.579912
O7    O     O_R   0.458830 0.502730 0.629890 -0.561844
O8    O     O_R   0.541170 0.497270 0.370110 -0.512161
C3    C     C_R   0.573345 0.491244 0.679176 0.953379
C4    C     C_R   0.425010 0.500677 0.320422 0.959451
Zn1   Zn    Zn3+2 0.628240 0.491510 0.507320 1.100380
Zn2   Zn    Zn3+2 0.371760 0.508490 0.492680 1.088788
C5    C     C_R   0.612683 0.473808 0.781046 -0.276633
C6    C     C_R   0.378821 0.480512 0.219426 -0.290723
C7    C     C_R   0.768426 0.465351 0.939327 -0.204624
C8    C     C_R   0.213646 0.447339 0.068636 -0.190115
C9    C     C_R   0.734461 0.495503 0.844089 0.290049
C10   C     C_R   0.253007 0.462521 0.163980 0.286411
C11   C     C_R   0.526711 0.429170 0.816328 0.185350
C12   C     C_R   0.462739 0.472371 0.178376 0.199088
C13   C     C_R   0.555844 0.429396 0.912418 0.016679
C14   C     C_R   0.421826 0.436716 0.087244 -0.036283
C15   C     C_R   0.679658 0.433356 0.973812 0.041627
C16   C     C_R   0.297009 0.437665 0.029635 0.057736
C17   C     C_R   0.466091 0.425342 0.949622 0.096314
C18   C     C_R   0.503412 0.415178 0.047728 0.078997
C19   C     C_R   0.622214 0.386447 0.103111 -0.109232
C20   C     C_R   0.342967 0.441245 0.893489 -0.103074
C21   C     C_R   0.711809 0.403504 0.068362 -0.081934
C22   C     C_R   0.258244 0.437867 0.932730 -0.114031
H1    H     H_    0.805503 0.393404 0.115106 0.199692
H2    H     H_    0.163769 0.445983 0.887023 0.201958
H3    H     H_    0.862816 0.474012 0.987358 0.212152
H4    H     H_    0.117318 0.442065 0.025075 0.201486
H5    H     H_    0.646701 0.353189 0.173724 0.197403
H6    H     H_    0.310579 0.462019 0.819899 0.206037
C23   C     C_R   0.549138 0.812495 0.514257 -0.134093
C24   C     C_R   0.463673 0.187139 0.508189 -0.108975
C25   C     C_R   0.481474 0.037746 0.619022 -0.019025
C26   C     C_R   0.598618 0.976302 0.444266 -0.050865
C27   C     C_R   0.459593 0.143204 0.591841 -0.163527
C28   C     C_R   0.604154 0.868144 0.459601 -0.160344
C29   C     C_R   0.493112 0.128085 0.450665 -0.061662
C30   C     C_R   0.507783 0.864911 0.570028 -0.050529
C31   C     C_R   0.534605 0.027682 0.484574 0.022044
C32   C     C_R   0.509374 0.976033 0.560187 0.039792
H7    H     H_    0.645241 0.826755 0.424137 0.239704
H8    H     H_    0.447497 0.193522 0.639106 0.216230
N1    N     N_R   0.799120 0.480200 0.517090 -0.154305
N2    N     N_R   0.200880 0.519800 0.482910 -0.166006
C33   C     C_R   0.057876 0.636700 0.485131 0.262926
C34   C     C_R   0.964409 0.368161 0.553765 0.249624
C35   C     C_R   0.165019 0.618926 0.476616 -0.078348
C36   C     C_R   0.853062 0.388651 0.556003 -0.059960
C37   C     C_R   0.134050 0.433980 0.502839 0.477733
C38   C     C_R   0.859459 0.557176 0.479543 0.456216
C39   C     C_R   0.029169 0.448912 0.520047 -0.202130
C40   C     C_R   0.983604 0.549183 0.498502 -0.202250
H9    H     H_    0.807358 0.328688 0.585888 0.186670
H10   H     H_    0.220295 0.685985 0.466059 0.209542
N3    N     N_R   0.029900 0.743644 0.486408 0.247602
O9    O     O_R   0.071157 0.820789 0.444547 -0.273350
O10   O     O_R   0.973775 0.765735 0.537328 -0.322693
N4    N     N_R   0.015384 0.270238 0.596079 0.246449
O11   O     O_R   0.109118 0.270143 0.675779 -0.266063
O12   O     O_R   0.951630 0.182043 0.569338 -0.282780
N5    N     N_R   0.583368 0.520989 0.219794 0.241824
O13   O     O_R   0.670002 0.469305 0.283756 -0.364626
O14   O     O_R   0.610650 0.608457 0.180640 -0.278763
N6    N     N_R   0.428446 0.357931 0.762043 0.197294
O15   O     O_R   0.427051 0.259072 0.791122 -0.310306
O16   O     O_R   0.330280 0.393517 0.697284 -0.361754
N7    N     N_R   0.163509 0.460330 0.202257 0.224432
O17   O     O_R   0.156820 0.382245 0.260094 -0.314635
O18   O     O_R   0.073071 0.520391 0.163413 -0.364074
N8    N     N_R   0.823847 0.547168 0.813143 0.236311
O19   O     O_R   0.799902 0.633292 0.759160 -0.306593
O20   O     O_R   0.935033 0.519612 0.851650 -0.407399
C41   C     C_2   0.450405 0.802705 0.628412 0.926624
O21   O     O_2   0.504074 0.732441 0.684272 -0.586952
O22   O     O_R   0.334393 0.823825 0.618229 -0.753893
H11   H     H_    0.304569 0.775647 0.660882 0.364872
C42   C     C_2   0.462500 0.163840 0.350695 0.929495
O23   O     O_2   0.405332 0.102990 0.289310 -0.571502
O24   O     O_R   0.501154 0.264450 0.326524 -0.774152
H12   H     H_    0.480852 0.274693 0.256891 0.337782
C43   C     C_2   0.495213 0.001981 0.715677 0.952782
O25   O     O_2   0.423692 0.027150 0.746059 -0.492815
O26   O     O_R   0.592837 0.943091 0.773270 -0.762014
H13   H     H_    0.592899 0.924092 0.837718 0.376642
C44   C     C_2   0.667028 0.033564 0.391607 0.991533
O27   O     O_2   0.681689 0.990330 0.330734 -0.534715
O28   O     O_R   0.718070 0.135840 0.413735 -0.751106
H14   H     H_    0.762392 0.166358 0.373272 0.379655
N9    N     N_R   0.795176 0.630336 0.402340 0.256892
O29   O     O_R   0.835210 0.656400 0.336943 -0.275235
O30   O     O_R   0.689132 0.658758 0.386842 -0.333979
N10   N     N_R   0.154962 0.330233 0.487470 0.233395
O31   O     O_R   0.086032 0.288720 0.408815 -0.304004
O32   O     O_R   0.224156 0.270024 0.556199 -0.265488

loop_
_geom_bond_atom_site_label_1
_geom_bond_atom_site_label_2
_geom_bond_distance
_ccdc_geom_bond_type
C28   H7    1.079199 S    
C15   C21   1.392195 A    
C25   C43   1.483640 S    
O24   H12   1.012480 S    
N3    O10   1.301694 A    
C16   C22   1.392040 A    
C44   O27   1.223462 D    
C26   C44   1.489664 S    
N4    O12   1.300464 A    
O28   H14   1.013927 S    
C8    C16   1.394332 A    
O7    Zn2   1.966546 S    
N9    O29   1.303081 A    
C42   O23   1.223491 D    
C5    C9    1.418160 A    
O1    C1    1.292439 A    
C18   C19   1.408888 A    
C14   C16   1.410680 A    
N8    O20   1.301078 A    
C37   C39   1.433683 A    
C38   C40   1.420976 A    
C35   H10   1.075720 S    
C20   H6    1.069888 S    
N1    C36   1.362115 A    
O4    Zn1   2.001535 S    
N5    O14   1.300988 A    
N9    O30   1.288676 A    
Zn1   N1    2.029988 S    
C3    C5    1.466779 S    
C24   C27   1.391724 A    
Zn2   N2    2.029990 S    
C4    C6    1.484229 S    
C6    C12   1.420513 A    
C21   H1    1.083844 S    
C13   C17   1.420660 A    
C43   O26   1.398434 S    
C12   N5    1.436818 S    
N2    C35   1.359435 A    
C6    C10   1.420967 A    
C33   C35   1.398331 A    
N4    O11   1.300544 A    
C39   C40   1.400696 A    
C44   O28   1.398608 S    
C17   C20   1.412855 A    
C25   C27   1.390253 A    
O2    C2    1.295203 A    
C38   N9    1.450066 S    
C26   C28   1.381819 A    
C41   O22   1.398239 S    
C33   C40   1.417565 A    
O5    C3    1.304576 A    
C30   C32   1.410769 A    
C34   C39   1.424191 A    
C29   C31   1.399162 A    
C24   C29   1.394399 A    
C34   C36   1.412761 A    
C11   N6    1.439567 S    
C31   C32   1.425751 A    
O4    C2    1.295185 A    
O26   H13   1.013800 S    
N8    O19   1.301522 A    
C37   N10   1.431554 S    
C41   O21   1.222960 D    
C10   N7    1.431927 S    
C22   H2    1.083830 S    
C9    N8    1.436701 S    
C29   C42   1.489179 S    
N7    O17   1.300538 A    
C30   C41   1.488628 S    
O7    C3    1.299137 A    
O22   H11   1.013824 S    
C5    C11   1.414986 A    
O6    C4    1.308321 A    
N10   O32   1.298944 A    
N1    C38   1.393296 A    
N7    O18   1.301012 A    
O3    Zn2   2.001534 S    
O8    C4    1.304097 A    
C23   C30   1.410190 A    
N6    O16   1.298468 A    
C11   C13   1.397064 A    
C12   C14   1.409401 A    
O1    Zn1   1.949466 S    
O6    Zn2   1.990916 S    
C2    C23   1.440476 S    
C14   C18   1.419128 A    
N6    O15   1.300914 A    
O3    C1    1.293910 A    
O8    Zn1   1.966547 S    
C27   H8    1.084137 S    
C23   C28   1.390382 A    
C34   N4    1.429983 S    
C7    C15   1.398157 A    
C19   C21   1.388826 A    
C20   C22   1.388434 A    
C33   N3    1.441801 S    
N10   O31   1.300140 A    
C7    C9    1.400273 A    
C25   C32   1.421713 A    
C8    C10   1.394907 A    
C26   C31   1.414946 A    
C13   C15   1.412579 A    
N5    O13   1.302069 A    
O2    Zn2   1.949466 S    
N2    C37   1.384322 A    
N3    O9    1.301642 A    
C42   O24   1.394129 S    
O5    Zn1   1.990917 S    
C1    C24   1.428916 S    
C19   H5    1.076060 S    
C17   C18   1.408936 A    
C36   H9    1.081266 S    
C7    H3    1.084017 S    
C43   O25   1.223153 D    
C8    H4    1.084368 S    
