data_mof_unit_65305.cif
_audit_creation_date              2013-03-05T16:27:59-0500
_audit_creation_method            fapswitch 2.2
_symmetry_space_group_name_H-M    P1
_symmetry_Int_Tables_number       1
_space_group_crystal_system       triclinic
_cell_length_a                    28.260521
_cell_length_b                    18.254714
_cell_length_c                    21.619271
_cell_angle_alpha                 89.997954
_cell_angle_beta                  139.787585
_cell_angle_gamma                 90.001795
_cell_volume                      7200.71053646

loop_
_atom_site_label
_atom_site_type_symbol
_atom_site_description
_atom_site_fract_x
_atom_site_fract_y
_atom_site_fract_z
_atom_type_partial_charge
O1    O     O_R   0.892660 0.939370 0.892650 -0.600167
O2    O     O_R   0.107340 0.060630 0.107350 -0.606724
O3    O     O_R   0.107340 0.939370 0.107350 -0.600616
O4    O     O_R   0.892660 0.060630 0.892650 -0.606923
O5    O     O_R   0.392660 0.439370 0.892650 -0.600546
O6    O     O_R   0.607340 0.560630 0.107350 -0.606859
O7    O     O_R   0.607340 0.439370 0.107350 -0.600303
O8    O     O_R   0.392660 0.560630 0.892650 -0.606738
C1    C     C_R   0.858716 0.000014 0.858291 0.968418
C2    C     C_R   0.141284 0.000015 0.141719 0.968429
C3    C     C_R   0.358716 0.500014 0.858281 0.968452
C4    C     C_R   0.641284 0.500015 0.141711 0.968414
O9    O     O_R   0.999980 0.939370 0.907380 -0.610121
O10   O     O_R   0.000020 0.060630 0.092620 -0.601390
O11   O     O_R   0.000020 0.939370 0.092620 -0.609570
O12   O     O_R   0.999980 0.060630 0.907380 -0.600914
O13   O     O_R   0.499980 0.439370 0.907380 -0.609739
O14   O     O_R   0.500020 0.560630 0.092620 -0.600953
O15   O     O_R   0.500020 0.439370 0.092620 -0.610080
O16   O     O_R   0.499980 0.560630 0.907380 -0.601256
C5    C     C_R   0.999743 0.999895 0.878283 0.923226
C6    C     C_R   0.000333 0.999891 0.121794 0.922622
C7    C     C_R   0.499693 0.499894 0.878232 0.922794
C8    C     C_R   0.500260 0.499893 0.121721 0.923190
Zn1   Zn    Zn3+2 1.000000 0.919050 0.000000 1.079196
Zn2   Zn    Zn3+2 1.000000 0.080950 0.000000 1.102829
Zn3   Zn    Zn3+2 0.500000 0.419050 0.000000 1.079118
Zn4   Zn    Zn3+2 0.500000 0.580950 0.000000 1.102946
C9    C     C_3   0.975652 0.923629 0.761546 -0.437881
C10   C     C_3   0.054791 0.057236 0.267823 -0.453780
C11   C     C_3   0.025233 0.923865 0.239320 -0.438387
C12   C     C_3   0.944678 0.056691 0.731700 -0.454651
C13   C     C_3   0.475039 0.423797 0.760948 -0.438110
C14   C     C_3   0.555284 0.556726 0.268262 -0.454586
C15   C     C_3   0.524406 0.423641 0.238514 -0.437926
C16   C     C_3   0.445049 0.557078 0.732032 -0.454120
H1    H     H_    0.008807 0.878141 0.814449 0.222010
H2    H     H_    0.044162 0.112708 0.238283 0.234377
H3    H     H_    0.992535 0.878039 0.186891 0.222166
H4    H     H_    0.954831 0.112280 0.760702 0.234302
H5    H     H_    0.507864 0.378071 0.813522 0.222122
H6    H     H_    0.545096 0.612306 0.239219 0.234308
H7    H     H_    0.491281 0.378131 0.185645 0.222011
H8    H     H_    0.455559 0.612593 0.761408 0.234358
H9    H     H_    0.918595 0.914315 0.720656 0.236893
H10   H     H_    0.110338 0.042774 0.305820 0.208965
H11   H     H_    0.082365 0.915121 0.280249 0.236341
H12   H     H_    0.889315 0.041724 0.694006 0.208750
H13   H     H_    0.417921 0.414889 0.720009 0.236566
H14   H     H_    0.610659 0.541795 0.305976 0.208766
H15   H     H_    0.581468 0.414366 0.279406 0.236856
H16   H     H_    0.389565 0.542489 0.694168 0.208886
C17   C     C_3   0.982667 0.920995 0.697364 0.159865
C18   C     C_3   0.053875 0.060388 0.337955 0.155586
C19   C     C_3   0.018287 0.921155 0.303577 0.159869
C20   C     C_3   0.945374 0.059763 0.661341 0.156046
C21   C     C_3   0.482028 0.421100 0.696738 0.159808
C22   C     C_3   0.554575 0.559802 0.338607 0.156027
C23   C     C_3   0.517396 0.421002 0.302702 0.159867
C24   C     C_3   0.445855 0.560167 0.661785 0.155773
H17   H     H_    0.031835 0.886900 0.736103 0.154013
H18   H     H_    0.030456 0.114632 0.327791 0.136067
H19   H     H_    0.969532 0.886472 0.265255 0.153751
H20   H     H_    0.968017 0.114302 0.670629 0.135596
H21   H     H_    0.530926 0.386615 0.735217 0.153916
H22   H     H_    0.531881 0.614321 0.329258 0.135633
H23   H     H_    0.468256 0.386867 0.263993 0.153974
H24   H     H_    0.468982 0.614515 0.671591 0.135803
H25   H     H_    0.120369 0.988869 0.811444 0.248858
H26   H     H_    0.909102 0.077474 0.210390 0.216331
H27   H     H_    0.879810 0.987209 0.188653 0.248514
H28   H     H_    0.089859 0.078700 0.788635 0.215908
H29   H     H_    0.620256 0.487784 0.811385 0.248619
H30   H     H_    0.410070 0.578612 0.211295 0.215944
H31   H     H_    0.379644 0.488751 0.188566 0.248835
H32   H     H_    0.590533 0.577897 0.789274 0.216208
C25   C     C_3   0.081729 0.015424 0.867794 0.497213
C26   C     C_3   0.918165 0.014523 0.132072 0.496941
C27   C     C_3   0.581801 0.514812 0.867884 0.496992
C28   C     C_3   0.418262 0.515359 0.132195 0.497192
C29   C     C_3   0.001551 0.999619 0.812222 -0.150360
C30   C     C_3   0.998523 0.999584 0.187855 -0.150272
C31   C     C_3   0.501501 0.499602 0.812170 -0.150299
C32   C     C_3   0.498452 0.499613 0.187781 -0.150358
C33   C     C_3   0.999194 0.000138 0.688993 -0.173612
C34   C     C_3   0.000799 0.000087 0.311004 -0.173678
C35   C     C_3   0.499195 0.500101 0.688992 -0.173665
C36   C     C_3   0.500806 0.500132 0.311006 -0.173611
C37   C     C_3   0.077194 0.021855 0.791257 -0.557777
C38   C     C_3   0.922546 0.020838 0.208468 -0.557125
C39   C     C_3   0.577363 0.521184 0.791437 -0.557274
C40   C     C_3   0.422788 0.521782 0.208723 -0.557739
C41   C     C_1   0.782177 0.000034 0.781836 -0.091393
C42   C     C_1   0.217823 0.000036 0.218171 -0.091329
C43   C     C_1   0.282177 0.500035 0.781829 -0.091315
C44   C     C_1   0.717823 0.500035 0.218165 -0.091381
C45   C     C_1   0.717329 0.000031 0.717123 -0.116103
C46   C     C_1   0.282671 0.000032 0.282880 -0.116167
C47   C     C_1   0.217329 0.500031 0.717121 -0.116141
C48   C     C_1   0.782670 0.500032 0.282878 -0.116128
O17   O     O_R   0.939350 0.892680 0.439340 -0.591603
O18   O     O_R   0.060650 0.107320 0.560660 -0.606537
O19   O     O_R   0.060650 0.892680 0.560660 -0.591495
O20   O     O_R   0.939350 0.107320 0.439340 -0.607043
O21   O     O_R   0.439350 0.392680 0.439340 -0.591520
O22   O     O_R   0.560650 0.607320 0.560660 -0.606971
O23   O     O_R   0.560650 0.392680 0.560660 -0.591593
O24   O     O_R   0.439350 0.607320 0.439340 -0.606697
C49   C     C_R   0.000001 0.858721 0.499955 1.005555
C50   C     C_R   0.000000 0.141278 0.499999 0.905297
C51   C     C_R   0.499999 0.358721 0.500026 1.005932
C52   C     C_R   0.500000 0.641278 0.500001 0.905151
O25   O     O_R   0.939380 0.000000 0.531980 -0.538517
O26   O     O_R   0.060620 1.000000 0.468020 -0.538197
O27   O     O_R   0.439380 0.500000 0.531980 -0.538320
O28   O     O_R   0.560620 0.500000 0.468020 -0.538515
O29   O     O_R   0.060570 0.000000 0.653170 -0.642879
O30   O     O_R   0.939430 0.000000 0.346830 -0.643181
O31   O     O_R   0.560570 0.500000 0.653170 -0.643071
O32   O     O_R   0.439430 0.500000 0.346830 -0.642907
C53   C     C_R   0.999830 0.001177 0.621470 0.898624
C54   C     C_R   0.000165 0.001098 0.378526 0.898117
C55   C     C_R   0.499833 0.501121 0.621473 0.898275
C56   C     C_R   0.500170 0.501169 0.378529 0.898569
Zn5   Zn    Zn3+2 0.919050 1.000000 0.419040 1.120243
Zn6   Zn    Zn3+2 0.080950 0.000000 0.580960 1.120811
Zn7   Zn    Zn3+2 0.419050 0.500000 0.419040 1.120662
Zn8   Zn    Zn3+2 0.580950 0.500000 0.580960 1.120345
O33   O     O_R   0.499910 0.107290 0.447610 -0.602510
O34   O     O_R   0.500090 0.892710 0.552390 -0.606631
O35   O     O_R   0.500090 0.107290 0.552390 -0.602676
O36   O     O_R   0.499910 0.892710 0.447610 -0.606699
O37   O     O_R   0.999910 0.607290 0.447610 -0.602769
O38   O     O_R   0.000090 0.392710 0.552390 -0.606733
O39   O     O_R   0.000090 0.607290 0.552390 -0.602459
O40   O     O_R   0.999910 0.392710 0.447610 -0.606567
C57   C     C_R   0.499999 0.140774 0.499999 0.905385
C58   C     C_R   0.500000 0.859225 0.500001 0.905629
C59   C     C_R   0.000001 0.640775 0.499999 0.905393
C60   C     C_R   0.000000 0.359225 0.500001 0.905634
O41   O     O_R   0.607280 0.000000 0.555010 -0.613579
O42   O     O_R   0.392720 1.000000 0.444990 -0.613570
O43   O     O_R   0.107280 0.500000 0.555010 -0.613564
O44   O     O_R   0.892720 0.500000 0.444990 -0.613578
O45   O     O_R   0.607300 1.000000 0.659580 -0.590081
O46   O     O_R   0.392700 1.000000 0.340420 -0.590079
O47   O     O_R   0.107300 0.500000 0.659580 -0.590080
O48   O     O_R   0.892700 0.500000 0.340420 -0.590085
C61   C     C_R   0.640779 0.000013 0.640722 0.904965
C62   C     C_R   0.359221 0.000013 0.359278 0.904972
C63   C     C_R   0.140779 0.500013 0.640722 0.904988
C64   C     C_R   0.859221 0.500013 0.359278 0.904957
Zn9   Zn    Zn3+2 0.499950 1.000000 0.430140 1.079379
Zn10  Zn    Zn3+2 0.500050 1.000000 0.569860 1.079285
Zn11  Zn    Zn3+2 0.999950 0.500000 0.430140 1.079273
Zn12  Zn    Zn3+2 0.000050 0.500000 0.569860 1.079391
C65   C     C_1   0.000003 0.782167 0.499971 -0.078744
C66   C     C_1   0.000001 0.217823 0.500002 -0.130777
C67   C     C_1   0.499998 0.282167 0.500013 -0.078557
C68   C     C_1   0.500000 0.717823 0.500003 -0.130898
C69   C     C_1   0.499998 0.217328 0.500002 -0.119045
C70   C     C_1   0.500000 0.782667 0.500003 -0.132360
C71   C     C_1   0.000002 0.717328 0.499990 -0.119081
C72   C     C_1   0.000001 0.282667 0.500003 -0.132305
N1    N     N_R   0.920465 0.883797 0.604934 0.256569
O49   O     O_R   0.930556 0.855071 0.560655 -0.397230
O50   O     O_R   0.863284 0.862550 0.579102 -0.302796
N2    N     N_R   0.128659 0.057662 0.437815 0.242745
O51   O     O_R   0.152018 0.111083 0.495779 -0.354296
O52   O     O_R   0.174653 0.006999 0.467032 -0.300913
N3    N     N_R   0.080925 0.884698 0.396446 0.256582
O53   O     O_R   0.071032 0.855426 0.440748 -0.396687
O54   O     O_R   0.138558 0.864555 0.422801 -0.302687
N4    N     N_R   0.870557 0.055968 0.561615 0.243008
O55   O     O_R   0.846315 0.109072 0.502850 -0.353841
O56   O     O_R   0.825338 0.004670 0.533299 -0.301284
N5    N     N_R   0.419546 0.384385 0.604019 0.256559
O57   O     O_R   0.429520 0.355301 0.559741 -0.396964
O58   O     O_R   0.362063 0.363854 0.577834 -0.302602
N6    N     N_R   0.629390 0.556079 0.438341 0.242994
O59   O     O_R   0.653576 0.609205 0.497051 -0.353840
O60   O     O_R   0.674662 0.504826 0.466717 -0.301255
N7    N     N_R   0.579628 0.383855 0.395165 0.256570
O61   O     O_R   0.569547 0.355085 0.439440 -0.397290
O62   O     O_R   0.636844 0.362691 0.421040 -0.302791
N8    N     N_R   0.371048 0.557026 0.561984 0.242879
O63   O     O_R   0.347366 0.610278 0.503665 -0.354153
O64   O     O_R   0.325324 0.506178 0.533168 -0.301143
N9    N     N_R   0.130831 0.954082 0.935538 0.203977
O65   O     O_R   0.156325 0.906862 0.921292 -0.381770
O66   O     O_R   0.146669 0.944092 0.009422 -0.360612
N10   N     N_R   0.888004 0.083836 0.076824 0.206775
O67   O     O_R   0.917893 0.146567 0.120162 -0.395556
O68   O     O_R   0.826563 0.084324 0.984855 -0.311384
N11   N     N_R   0.869689 0.952733 0.064839 0.204164
O69   O     O_R   0.853689 0.942916 0.990804 -0.359470
O70   O     O_R   0.845075 0.904881 0.079824 -0.382247
N12   N     N_R   0.111233 0.084969 0.922474 0.207095
O71   O     O_R   0.172628 0.085959 0.014454 -0.310952
O72   O     O_R   0.080750 0.147443 0.878637 -0.395462
N13   N     N_R   0.630469 0.453151 0.935259 0.204108
O73   O     O_R   0.655333 0.405494 0.920472 -0.382154
O74   O     O_R   0.646428 0.443267 0.009253 -0.359800
N14   N     N_R   0.388715 0.584888 0.077474 0.207074
O75   O     O_R   0.327326 0.585842 0.985490 -0.310995
O76   O     O_R   0.419153 0.647381 0.121274 -0.395468
N15   N     N_R   0.369201 0.453986 0.064487 0.203990
O77   O     O_R   0.343746 0.406737 0.078767 -0.381779
O78   O     O_R   0.353363 0.444000 0.990603 -0.360538
N16   N     N_R   0.611770 0.584189 0.922976 0.206879
O79   O     O_R   0.673198 0.584817 0.014948 -0.311245
O80   O     O_R   0.581708 0.646848 0.879501 -0.395508

loop_
_geom_bond_atom_site_label_1
_geom_bond_atom_site_label_2
_geom_bond_distance
_ccdc_geom_bond_type
C27   N16   1.482966 S    
C21   N5    1.476252 S    
N3    O53   1.299980 A    
O4    C1    1.268090 A    
O44   Zn12  1.995460 S    
N1    O49   1.299860 A    
C35   C39   1.568705 S    
C12   H12   1.113228 S    
N13   O73   1.302285 A    
C24   N8    1.470144 S    
C14   H6    1.109249 S    
C36   C56   1.473694 S    
C49   C65   1.397464 S    
N14   O76   1.301515 A    
O32   Zn7   2.035210 S    
O41   C61   1.284787 A    
O22   C52   1.268396 A    
C26   C38   1.563382 S    
O39   C59   1.285358 A    
C12   C29   1.557503 S    
N3    O54   1.302028 A    
C25   C37   1.563413 S    
O12   C5    1.272243 A    
C11   C30   1.560626 S    
C7    C31   1.467603 S    
O14   C8    1.272239 A    
C6    C30   1.467620 S    
O23   Zn8   1.993801 S    
O5    C3    1.268556 A    
N7    O62   1.302032 A    
O38   C60   1.285346 A    
O26   Zn6   2.036990 S    
C43   C47   1.183177 T    
O11   Zn1   2.036033 S    
O25   Zn5   2.036990 S    
C2    C42   1.396520 S    
C16   C31   1.557615 S    
O17   C49   1.268433 A    
O22   Zn8   1.993804 S    
O7    Zn3   1.993306 S    
C10   H2    1.109268 S    
C15   C23   1.545018 S    
O30   C54   1.272663 A    
H30   C40   1.113132 S    
N9    O66   1.301177 A    
O19   Zn6   1.993801 S    
O29   C53   1.272776 A    
N4    O55   1.301443 A    
C20   N4    1.470143 S    
C51   C67   1.397468 S    
C23   H23   1.114536 S    
C23   C36   1.570743 S    
C17   H17   1.114533 S    
O40   C60   1.285339 A    
C22   H22   1.115672 S    
O11   C6    1.268848 A    
O38   Zn12  1.994812 S    
O20   Zn5   1.993799 S    
C36   C40   1.568699 S    
C11   H3    1.112999 S    
N5    O58   1.302038 A    
C19   H19   1.114546 S    
C34   C54   1.473616 S    
O17   Zn5   1.993805 S    
C20   H20   1.115669 S    
C33   C53   1.473691 S    
N12   O71   1.302099 A    
O48   Zn11  1.992437 S    
C15   H7    1.113011 S    
O29   Zn6   2.035212 S    
C65   C71   1.183612 T    
C27   C39   1.563378 S    
C16   H16   1.113214 S    
C66   C72   1.183709 T    
O24   C52   1.268396 A    
O31   Zn8   2.035212 S    
O43   C63   1.284780 A    
O21   C51   1.268399 A    
O27   Zn7   2.036990 S    
N1    O50   1.302034 A    
C11   H11   1.110547 S    
O1    Zn1   1.993313 S    
C17   C33   1.570734 S    
N13   O74   1.301184 A    
O9    Zn1   2.036009 S    
H26   C38   1.113156 S    
C14   C32   1.557514 S    
H25   C37   1.108406 S    
O6    C4    1.268091 A    
C19   N3    1.476249 S    
C24   C35   1.570471 S    
N6    O60   1.299954 A    
O12   Zn2   2.036035 S    
O7    C4    1.268551 A    
O6    Zn4   1.993311 S    
C14   H14   1.113231 S    
O27   C55   1.270460 A    
O21   Zn7   1.993805 S    
O9    C5    1.268856 A    
N15   O77   1.302238 A    
O13   Zn3   2.036009 S    
O3    Zn1   1.993306 S    
O14   Zn4   2.036007 S    
H29   C39   1.108478 S    
O34   Zn10  1.994812 S    
C1    C41   1.396517 S    
C34   C38   1.568676 S    
C18   N2    1.470124 S    
C28   C32   1.582093 S    
C18   C34   1.570407 S    
O40   Zn11  1.994785 S    
C33   C37   1.568708 S    
O16   Zn4   2.036035 S    
C27   N13   1.490136 S    
O16   C7    1.272266 A    
C47   C63   1.396715 S    
C48   C64   1.396717 S    
O39   Zn12  1.994783 S    
C21   C35   1.570750 S    
C9    H9    1.110567 S    
C68   C70   1.183709 T    
C28   C40   1.563414 S    
C35   C55   1.473648 S    
O47   C63   1.284724 A    
N7    O61   1.299870 A    
C9    C29   1.560637 S    
O35   C57   1.285322 A    
C10   C18   1.537133 S    
C26   C30   1.582132 S    
O43   Zn11  1.995458 S    
C26   N10   1.482975 S    
C25   C29   1.582090 S    
C57   C69   1.397466 S    
C67   C69   1.183610 T    
O36   Zn9   1.994785 S    
O1    C1    1.268553 A    
C58   C70   1.397544 S    
O13   C7    1.268855 A    
O10   Zn2   2.036007 S    
C23   N7    1.476252 S    
O47   Zn12  1.992437 S    
C13   C31   1.560664 S    
H31   C40   1.108404 S    
N5    O57   1.299939 A    
C11   C19   1.545097 S    
O45   Zn10  1.992437 S    
C17   N1    1.476253 S    
N2    O51   1.301429 A    
O30   Zn5   2.035210 S    
C5    C29   1.467591 S    
O37   C59   1.285317 A    
N16   O80   1.301514 A    
C15   H15   1.110565 S    
O8    Zn4   1.993308 S    
C22   C36   1.570572 S    
O18   C50   1.268394 A    
N8    O64   1.299954 A    
O34   C58   1.285343 A    
C41   C45   1.183177 T    
O15   Zn3   2.036033 S    
N6    O59   1.301435 A    
N15   O78   1.301180 A    
C46   C62   1.396715 S    
C3    C43   1.396520 S    
O41   Zn9   1.995458 S    
C13   C21   1.545062 S    
C10   C30   1.557668 S    
O33   Zn9   1.994810 S    
O37   Zn11  1.994810 S    
O23   C51   1.268422 A    
C10   H10   1.113214 S    
O35   Zn10  1.994783 S    
C45   C61   1.396717 S    
O48   C64   1.284719 A    
C25   N12   1.482904 S    
C21   H21   1.114531 S    
N12   O72   1.301514 A    
O18   Zn6   1.993804 S    
C50   C66   1.397309 S    
O2    Zn2   1.993311 S    
O4    Zn2   1.993308 S    
C15   C32   1.560631 S    
O46   C62   1.284724 A    
O31   C55   1.272707 A    
C60   C72   1.397544 S    
O25   C53   1.270437 A    
C18   H18   1.115674 S    
O19   C49   1.268388 A    
C13   H5    1.113001 S    
N10   O67   1.301511 A    
O10   C6    1.272284 A    
C19   C34   1.570796 S    
C59   C71   1.397468 S    
O15   C8    1.268863 A    
C8    C32   1.467589 S    
C25   N9    1.490128 S    
O44   C64   1.284783 A    
O3    C2    1.268555 A    
O20   C50   1.268397 A    
H28   C37   1.113135 S    
O5    Zn3   1.993313 S    
O42   C62   1.284778 A    
C20   C33   1.570589 S    
C28   N14   1.482905 S    
O46   Zn9   1.992437 S    
C9    C17   1.545009 S    
O8    C3    1.268089 A    
C44   C48   1.183177 T    
O26   C54   1.270483 A    
N2    O52   1.299948 A    
H27   C38   1.108496 S    
C26   N11   1.490140 S    
C12   H4    1.109244 S    
O24   Zn7   1.993799 S    
N9    O65   1.302259 A    
N4    O56   1.299950 A    
C16   H8    1.109253 S    
H32   C39   1.113147 S    
N11   O69   1.301176 A    
C27   C31   1.582096 S    
C52   C68   1.397309 S    
C28   N15   1.490136 S    
O33   C57   1.285353 A    
N14   O75   1.302098 A    
C24   H24   1.115672 S    
N16   O79   1.302093 A    
O28   Zn8   2.036990 S    
C13   H13   1.110559 S    
C9    H1    1.113012 S    
C14   C22   1.537185 S    
C42   C46   1.183177 T    
C4    C44   1.396519 S    
C22   N6    1.470134 S    
O42   Zn10  1.995460 S    
C16   C24   1.537201 S    
N8    O63   1.301429 A    
O28   C56   1.270441 A    
O36   C58   1.285342 A    
C12   C20   1.537202 S    
O45   C61   1.284716 A    
O32   C56   1.272766 A    
N10   O68   1.302091 A    
N11   O70   1.302309 A    
O2    C2    1.268091 A    
