data_mof_unit_35205.cif
_audit_creation_date              2012-12-11T15:09:43-0500
_audit_creation_method            fapswitch 2.2
_symmetry_space_group_name_H-M    P1
_symmetry_Int_Tables_number       1
_space_group_crystal_system       triclinic
_cell_length_a                    21.108872
_cell_length_b                    7.151049
_cell_length_c                    14.023229
_cell_angle_alpha                 88.611397
_cell_angle_beta                  98.800543
_cell_angle_gamma                 91.409098
_cell_volume                      2090.81151989

loop_
_atom_site_label
_atom_site_type_symbol
_atom_type_description
_atom_site_fract_x
_atom_site_fract_y
_atom_site_fract_z
_atom_type_partial_charge
O1    O     O_R   0.447130 0.507140 0.597350 -0.536556
O2    O     O_R   0.552870 0.007140 0.402650 -0.539001
O3    O     O_R   0.578910 0.181280 0.586990 -0.535474
O4    O     O_R   0.421090 0.681280 0.413010 -0.533077
C1    C     C_R   0.604755 0.344920 0.606657 0.756540
C2    C     C_R   0.395374 0.843887 0.393116 0.770061
O5    O     O_R   0.449230 0.177860 0.608640 -0.539205
O6    O     O_R   0.550770 0.677860 0.391360 -0.532606
O7    O     O_R   0.422260 0.000770 0.424450 -0.539433
O8    O     O_R   0.577740 0.500770 0.575550 -0.543614
C3    C     C_R   0.432425 0.342303 0.633203 0.881999
C4    C     C_R   0.567848 0.848672 0.366631 0.890657
O9    O     O_3   0.491310 0.336980 0.439550 -0.382979
O10   O     O_3   0.508690 0.836980 0.560450 -0.392157
V1    V     V_3+5 0.501610 0.064760 0.511210 1.648954
V2    V     V_3+5 0.498390 0.564760 0.488790 1.661329
C5    C     C_R   0.613568 0.883637 0.117971 0.386667
C6    C     C_R   0.384895 0.302568 0.878587 0.410782
C7    C     C_R   0.606804 0.865251 0.288931 -0.366543
C8    C     C_R   0.393500 0.337469 0.709713 -0.341104
C9    C     C_R   0.912542 0.839155 0.300607 0.473504
C10   C     C_R   0.088621 0.364057 0.701752 0.454543
C11   C     C_R   0.877490 0.880638 0.374532 0.284865
C12   C     C_R   0.124239 0.404475 0.626879 0.288934
C13   C     C_R   0.814516 0.944645 0.350206 0.384153
C14   C     C_R   0.189608 0.450974 0.650066 0.389982
C15   C     C_R   0.780665 0.908228 0.257012 -0.077923
C16   C     C_R   0.221953 0.399834 0.742538 -0.091251
C17   C     C_R   0.816481 0.878237 0.180200 -0.197709
C18   C     C_R   0.186475 0.392525 0.821994 -0.193303
C19   C     C_R   0.712075 0.897305 0.237503 -0.037424
C20   C     C_R   0.289114 0.365146 0.760006 -0.036251
C21   C     C_R   0.681061 0.911326 0.140505 -0.306077
C22   C     C_R   0.320416 0.356076 0.856122 -0.341592
C23   C     C_R   0.719054 0.942565 0.068169 0.455339
C24   C     C_R   0.290820 0.438905 0.924793 0.456592
C25   C     C_R   0.782257 0.882507 0.084343 0.294809
C26   C     C_R   0.223697 0.419816 0.916431 0.376961
C27   C     C_R   0.673673 0.860639 0.310486 0.617693
C28   C     C_R   0.326664 0.340014 0.686538 0.623223
C29   C     C_R   0.576835 0.876893 0.193206 0.498003
C30   C     C_R   0.422368 0.306024 0.805030 0.484851
C31   C     C_R   0.884471 0.853890 0.203236 -0.237320
C32   C     C_R   0.117283 0.374771 0.799139 -0.253565
C33   C     C_1   0.164676 0.860397 0.173413 -0.010132
C34   C     C_1   0.835810 0.356033 0.825438 -0.025004
C35   C     C_1   0.217127 0.858389 0.224466 0.083665
C36   C     C_1   0.783606 0.354204 0.773694 0.144986
C37   C     C_1   0.279409 0.854495 0.283065 0.112280
C38   C     C_1   0.721272 0.353873 0.715231 0.149926
C39   C     C_1   0.332336 0.850155 0.332700 -0.037235
C40   C     C_1   0.668114 0.352101 0.666190 -0.042664
O11   O     O_R   0.922300 0.202240 0.924350 -0.534343
O12   O     O_R   0.077700 0.702240 0.075650 -0.492765
O13   O     O_R   0.050780 0.535130 0.891350 -0.530031
O14   O     O_R   0.949220 0.035130 0.108650 -0.562461
C41   C     C_R   0.071872 0.371891 0.870402 0.933379
C42   C     C_R   0.928813 0.866205 0.130275 0.885673
O15   O     O_R   0.921100 0.531560 0.912990 -0.502999
O16   O     O_R   0.078900 0.031560 0.087010 -0.533413
O17   O     O_R   0.947120 0.708470 0.097370 -0.505560
O18   O     O_R   0.052880 0.208470 0.902630 -0.531860
C43   C     C_R   0.897121 0.362942 0.890452 0.756584
C44   C     C_R   0.102653 0.864191 0.110014 0.791375
O19   O     O_3   0.008710 0.375800 0.060400 -0.370238
O20   O     O_3   0.991290 0.875800 0.939600 -0.370380
V3    V     V_3+5 0.998380 0.648080 0.988790 1.784315
V4    V     V_3+5 0.001620 0.148080 0.011210 1.687335
F1    F     F_    0.511767 0.868206 0.173759 -0.564601
F2    F     F_    0.486380 0.277136 0.825531 -0.621432
S1    S     S_3+6 0.699906 0.125632 0.981979 0.139580
O21   O     O_2   0.683541 0.050511 0.881919 -0.285294
O22   O     O_2   0.644825 0.235508 0.005858 -0.245225
O23   O     O_3   0.763145 0.272505 0.985850 -0.445134
H1    H     H_    0.800949 0.192485 0.989311 0.314416
S2    S     S_3+6 0.333590 0.639676 0.978719 0.199922
O24   O     O_2   0.366564 0.592356 0.078875 -0.218773
O25   O     O_2   0.383722 0.700201 0.918378 -0.260661
O26   O     O_3   0.284965 0.821402 0.982455 -0.448240
H2    H     H_    0.295222 0.869409 0.048800 0.393823
S3    S     S_3+6 0.576866 0.805366 0.002299 0.215740
O27   O     O_2   0.621569 0.679070 0.962037 -0.257945
O28   O     O_2   0.516305 0.697052 0.011331 -0.196974
O29   O     O_3   0.558326 0.985021 0.924646 -0.391776
H3    H     H_    0.541911 0.926251 0.862195 0.398522
S4    S     S_3+6 0.416656 0.213511 0.995106 0.224422
O30   O     O_2   0.366253 0.198294 0.060021 -0.290323
O31   O     O_2   0.441141 0.021624 0.984648 -0.206829
O32   O     O_3   0.477620 0.349096 0.047222 -0.388675
H4    H     H_    0.516189 0.303357 0.023591 0.422205
F3    F     F_    0.700205 0.808876 0.401343 -0.624406
F4    F     F_    0.299609 0.313199 0.593558 -0.629325
F5    F     F_    0.975794 0.799731 0.322603 -0.596449
F6    F     F_    0.024460 0.329754 0.680629 -0.608131
S5    S     S_3+6 0.789558 0.127628 0.419803 0.119973
O33   O     O_2   0.730898 0.221439 0.367487 -0.328014
O34   O     O_2   0.775925 0.051926 0.515695 -0.250028
O35   O     O_3   0.849101 0.289325 0.438681 -0.457834
H5    H     H_    0.834535 0.380029 0.482550 0.405939
S6    S     S_3+6 0.220864 0.639372 0.583905 0.119793
O36   O     O_2   0.283637 0.713494 0.636176 -0.328551
O37   O     O_2   0.229865 0.576340 0.485447 -0.254602
O38   O     O_3   0.168176 0.814247 0.571459 -0.456935
H6    H     H_    0.187996 0.914288 0.535002 0.403014
S7    S     S_3+6 0.910930 0.844388 0.497499 0.185954
O39   O     O_2   0.928283 0.028468 0.544867 -0.225317
O40   O     O_2   0.862047 0.744194 0.548703 -0.300201
O41   O     O_3   0.976782 0.714091 0.507996 -0.387764
H7    H     H_    0.991255 0.700493 0.578380 0.395765
S8    S     S_3+6 0.088731 0.385599 0.503953 0.194663
O42   O     O_2   0.088363 0.573264 0.453431 -0.222531
O43   O     O_2   0.127999 0.255120 0.455562 -0.296732
O44   O     O_3   0.013082 0.301175 0.493285 -0.380095
H8    H     H_    0.998714 0.291562 0.422902 0.395773
S9    S     S_3+6 0.805172 0.755828 0.989432 0.029539
O45   O     O_2   0.853051 0.867318 0.941397 -0.384013
O46   O     O_2   0.833802 0.576770 0.031511 -0.320215
O47   O     O_3   0.741363 0.702716 0.906482 -0.421656
H9    H     H_    0.755487 0.727015 0.843080 0.369216
S10   S     S_3+6 0.192226 0.491021 0.017321 -0.013083
O48   O     O_2   0.167348 0.680284 0.985978 -0.352298
O49   O     O_2   0.140547 0.361737 0.043925 -0.374727
O50   O     O_3   0.248540 0.508361 0.115700 -0.476141
H10   H     H_    0.227144 0.467795 0.171071 0.365970

loop_
_geom_bond_atom_site_label_1
_geom_bond_atom_site_label_2
_ccdc_geom_bond_type
O20   V4    S    
C15   C17   A    
S5    O33   D    
O1    C3    A    
S2    O26   S    
O2    C4    A    
C2    O7    A    
S3    O27   D    
S5    O35   S    
O50   H10   S    
C35   C37   S    
O5    C3    A    
S7    O40   D    
C6    S4    S    
C9    F5    S    
C23   C25   A    
C12   C14   A    
C6    C30   A    
C8    C28   A    
S4    O31   D    
O19   V3    S    
S9    O45   D    
C11   S7    S    
C30   F2    S    
O41   H7    S    
C18   C26   A    
O11   V4    S    
O47   H9    S    
C24   S2    S    
C31   C42   S    
O15   V3    S    
C9    C31   A    
C10   C32   A    
O14   C42   A    
C16   C18   A    
C37   C39   T    
C38   C40   T    
C19   C21   A    
C1    C40   S    
C2    C39   S    
C22   C24   A    
S10   O50   S    
C26   S10   S    
S9    O47   S    
C42   O17   A    
C36   C38   S    
O20   V3    S    
C23   S1    S    
O6    V2    S    
C17   C31   A    
C10   F6    S    
C18   C32   A    
C5    C21   A    
C27   F3    S    
S3    O28   D    
S10   O49   D    
S8    O43   D    
C33   C35   T    
S7    O41   S    
C34   C36   T    
C3    C8    S    
O23   H1    S    
C15   C19   A    
C16   C20   A    
C12   S8    S    
O29   H3    S    
O4    C2    A    
S1    O22   D    
S4    O30   D    
O12   V3    S    
S9    O46   D    
O14   V4    S    
S6    O38   S    
C28   F4    S    
S8    O42   D    
C20   C22   A    
O4    V2    S    
O17   V3    S    
C8    C30   A    
C32   C41   S    
O6    C4    A    
O19   V4    S    
S6    O37   D    
O1    V2    S    
S2    O24   D    
O2    V1    S    
C6    C22   A    
S8    O44   S    
C7    C27   A    
C13   S5    S    
C9    C11   A    
C10   C12   A    
C41   O18   A    
C24   C26   A    
S3    O29   S    
O3    V1    S    
S10   O48   D    
C29   F1    S    
O44   H8    S    
O15   C43   A    
S2    O25   D    
O3    C1    A    
S4    O32   S    
S1    O23   S    
O13   V3    S    
S5    O34   D    
C25   S9    S    
C13   C15   A    
S7    O39   D    
C33   C44   S    
C14   C16   A    
O18   V4    S    
C34   C43   S    
O16   C44   A    
O13   C41   A    
O7    V1    S    
S1    O21   D    
O8    V2    S    
O11   C43   A    
O12   C44   A    
C4    C7    S    
O5    V1    S    
S6    O36   D    
C21   C23   A    
C19   C27   A    
C5    S3    S    
C20   C28   A    
C5    C29   A    
O26   H2    S    
C1    O8    A    
C11   C13   A    
O16   V4    S    
O35   H5    S    
O9    V2    S    
C17   C25   A    
O38   H6    S    
O10   V1    S    
O32   H4    S    
C7    C29   A    
C14   S6    S    
