data_mof_unit_47194.cif
_audit_creation_date              2012-10-26T17:12:27-0400
_audit_creation_method            fapswitch 2.2
_symmetry_space_group_name_H-M    P1
_symmetry_Int_Tables_number       1
_space_group_crystal_system       triclinic
_cell_length_a                    16.885743
_cell_length_b                    16.818621
_cell_length_c                    16.879539
_cell_angle_alpha                 67.842323
_cell_angle_beta                  68.29834
_cell_angle_gamma                 67.90368
_cell_volume                      3965.87947456

loop_
_atom_site_label
_atom_site_type_symbol
_atom_type_description
_atom_site_fract_x
_atom_site_fract_y
_atom_site_fract_z
_atom_type_partial_charge
C1    C     C_R   0.028009 0.828342 0.564503 0.575644
C2    C     C_R   0.017001 0.568900 0.830676 0.546407
C3    C     C_R   0.170824 0.976103 0.434226 0.580800
C4    C     C_R   0.829179 0.023914 0.565766 0.574995
C5    C     C_R   0.456771 0.055267 0.707746 -0.113914
C6    C     C_R   0.543220 0.944980 0.292160 -0.119263
C7    C     C_R   0.050790 0.705380 0.459487 -0.113875
C8    C     C_R   0.925804 0.296084 0.547776 -0.115487
C9    C     C_R   0.725280 0.483172 0.978830 -0.119768
C10   C     C_R   0.289526 0.545455 0.946912 -0.113298
C11   C     C_R   0.292005 0.945277 0.543730 -0.116410
C12   C     C_R   0.970013 0.172065 0.435794 0.548952
C13   C     C_R   0.708000 0.054950 0.456198 -0.117169
C14   C     C_R   0.507190 0.269275 0.037036 -0.114575
C15   C     C_R   0.454762 0.708743 0.059440 -0.110505
C16   C     C_R   0.941912 0.547177 0.289395 -0.115149
C17   C     C_R   0.939275 0.506308 0.739480 -0.113649
C18   C     C_R   0.544193 0.019680 0.544011 0.040794
C19   C     C_R   0.455784 0.980608 0.455870 0.040950
C20   C     C_R   0.982096 0.558020 0.554696 0.040365
C21   C     C_R   0.956039 0.464045 0.462145 0.040725
C22   C     C_R   0.542382 0.548952 0.014672 0.041352
C23   C     C_R   0.829698 0.567555 0.019960 0.573328
C24   C     C_R   0.445886 0.453929 0.998101 0.041415
C25   C     C_R   0.585540 0.012418 0.456485 0.013440
C26   C     C_R   0.414436 0.987886 0.543390 0.013301
C27   C     C_R   0.951270 0.480915 0.602176 0.013795
C28   C     C_R   0.971559 0.548900 0.418184 0.012819
C29   C     C_R   0.452110 0.588368 0.016001 0.011547
C30   C     C_R   0.530946 0.410621 0.011608 0.011709
C31   C     C_R   0.543265 0.987780 0.414363 0.012697
C32   C     C_R   0.456706 0.012536 0.585505 0.012589
C33   C     C_R   0.408212 0.545136 0.994887 0.012103
C34   C     C_R   0.171298 0.435903 0.971373 0.582385
C35   C     C_R   0.583274 0.461873 0.005534 0.013220
C36   C     C_R   0.945317 0.429678 0.554767 0.013319
C37   C     C_R   0.994167 0.590893 0.462028 0.012894
C38   C     C_R   0.412031 0.037450 0.664658 -0.138232
C39   C     C_R   0.587941 0.962871 0.335210 -0.142244
C40   C     C_R   0.031885 0.662735 0.415214 -0.137261
C41   C     C_R   0.927855 0.345893 0.596496 -0.137334
C42   C     C_R   0.675504 0.431074 0.984307 -0.143132
C43   C     C_R   0.330709 0.590690 0.966632 -0.139200
C44   C     C_R   0.335230 0.963121 0.588281 -0.137556
C45   C     C_R   0.566045 0.023749 0.829139 0.562680
C46   C     C_R   0.664762 0.037161 0.411614 -0.137451
C47   C     C_R   0.559067 0.317446 0.035302 -0.144263
C48   C     C_R   0.408346 0.667309 0.041692 -0.140437
C49   C     C_R   0.958434 0.591625 0.333351 -0.141090
C50   C     C_R   0.925496 0.459557 0.695322 -0.136644
C51   C     C_R   0.549722 0.040765 0.678176 -0.014467
C52   C     C_R   0.450273 0.959417 0.321753 -0.014684
C53   C     C_R   0.029283 0.680854 0.552730 -0.017854
C54   C     C_R   0.943506 0.325843 0.454354 -0.011475
C55   C     C_R   0.685052 0.561506 0.008174 -0.020449
C56   C     C_R   0.433955 0.976261 0.170859 0.548886
C57   C     C_R   0.317971 0.451349 0.964598 -0.018777
C58   C     C_R   0.321631 0.959464 0.450775 -0.021706
C59   C     C_R   0.678370 0.040710 0.549162 -0.021220
C60   C     C_R   0.432769 0.312208 0.001572 -0.014949
C61   C     C_R   0.548362 0.679652 0.041153 -0.010604
C62   C     C_R   0.949641 0.454597 0.322694 -0.020502
C63   C     C_R   0.984817 0.572718 0.693230 -0.013489
C64   C     C_R   0.602689 0.032448 0.731921 -0.018568
C65   C     C_R   0.397317 0.967607 0.268054 -0.018601
C66   C     C_R   0.038123 0.730177 0.600011 0.015618
C67   C     C_R   0.431739 0.170013 0.981168 0.555957
C68   C     C_R   0.950181 0.272257 0.401981 -0.020729
C69   C     C_R   0.733104 0.605353 0.024831 0.015486
C70   C     C_R   0.268965 0.401585 0.959302 0.015863
C71   C     C_R   0.267955 0.967568 0.398022 0.011777
C72   C     C_R   0.732055 0.032489 0.601954 0.011798
C73   C     C_R   0.391625 0.266002 0.979286 -0.018232
C74   C     C_R   0.599176 0.729899 0.042639 -0.021843
C75   C     C_R   0.951874 0.402861 0.270960 0.015170
C76   C     C_R   0.015448 0.610030 0.736211 -0.012429
C77   C     C_R   0.695190 0.020206 0.694120 0.048874
C78   C     C_R   0.564392 0.828428 0.028847 0.554180
C79   C     C_R   0.304828 0.979766 0.305869 0.048524
C80   C     C_R   0.044519 0.688000 0.687251 0.053698
C81   C     C_R   0.944606 0.314853 0.313155 0.052754
C82   C     C_R   0.687777 0.686932 0.047032 0.052458
C83   C     C_R   0.311215 0.313527 0.954115 0.048996
C84   C     C_R   0.591054 0.033211 0.590752 0.027370
C85   C     C_R   0.408934 0.967010 0.409160 0.027501
C86   C     C_R   0.999489 0.603436 0.600190 0.026183
C87   C     C_R   0.950129 0.414402 0.412863 0.027205
C88   C     C_R   0.592014 0.596528 0.022143 0.026055
C89   C     C_R   0.970786 0.435838 0.171658 0.583770
C90   C     C_R   0.398999 0.405804 0.987405 0.025200
Cu1   Cu    Cu3+1 0.995180 0.995180 0.424630 0.903928
Cu2   Cu    Cu3+1 0.004820 0.004820 0.575370 0.927825
Cu3   Cu    Cu3+1 0.995180 0.424630 0.995180 0.929907
Cu4   Cu    Cu3+1 0.004820 0.575370 0.004820 0.899650
Cu5   Cu    Cu3+1 0.424630 0.995180 0.995180 0.880725
Cu6   Cu    Cu3+1 0.575370 0.004820 0.004820 0.874830
H1    H     H_    0.415829 0.082477 0.762773 0.150717
H2    H     H_    0.415119 0.762016 0.090193 0.146696
H3    H     H_    0.919379 0.588937 0.231256 0.159747
H4    H     H_    0.911037 0.490525 0.810239 0.139094
H5    H     H_    0.341365 0.047022 0.692552 0.105895
H6    H     H_    0.658603 0.953326 0.307303 0.103722
H7    H     H_    0.050912 0.684498 0.343498 0.104941
H8    H     H_    0.917220 0.315931 0.667099 0.102177
H9    H     H_    0.710019 0.369474 0.965348 0.103994
H10   H     H_    0.304504 0.662425 0.953993 0.105272
H11   H     H_    0.307358 0.953746 0.658968 0.104904
H12   H     H_    0.584192 0.917725 0.237171 0.149917
H13   H     H_    0.692639 0.046553 0.340926 0.102894
H14   H     H_    0.618481 0.281213 0.058007 0.107768
H15   H     H_    0.337176 0.694592 0.053679 0.104292
H16   H     H_    0.955013 0.661628 0.302264 0.104332
H17   H     H_    0.891578 0.408747 0.735904 0.099427
H18   H     H_    0.744816 0.928268 0.798046 0.250061
H19   H     H_    0.749654 0.036877 0.775384 0.258379
H20   H     H_    0.250486 0.962811 0.224677 0.256549
H21   H     H_    0.255099 0.071528 0.201935 0.249451
H22   H     H_    0.035494 0.752636 0.772752 0.265957
H23   H     H_    0.086022 0.755215 0.418963 0.143965
H24   H     H_    0.135844 0.674898 0.747245 0.237722
H25   H     H_    0.983176 0.223302 0.244003 0.267675
H26   H     H_    0.873054 0.244408 0.305055 0.236722
H27   H     H_    0.687657 0.745578 0.133772 0.233276
H28   H     H_    0.754767 0.774570 0.027929 0.261586
H29   H     H_    0.319000 0.251294 0.867022 0.240564
H30   H     H_    0.246033 0.225250 0.970414 0.263205
H31   H     H_    0.905213 0.236217 0.586271 0.149194
H32   H     H_    0.794677 0.460262 0.948582 0.143889
H33   H     H_    0.237221 0.586434 0.914783 0.145383
H34   H     H_    0.236754 0.918414 0.584810 0.156195
H35   H     H_    0.763271 0.081796 0.415146 0.147805
H36   H     H_    0.526581 0.198825 0.068632 0.158971
N1    N     N_3   0.754663 0.987228 0.749407 -0.591432
N2    N     N_3   0.245367 0.012545 0.250601 -0.592126
N3    N     N_3   0.083719 0.724570 0.723145 -0.609323
N4    N     N_3   0.926237 0.271488 0.265631 -0.596978
N5    N     N_3   0.731203 0.723098 0.078852 -0.601383
N6    N     N_3   0.272087 0.275363 0.919779 -0.600488
O1    O     O_R   0.124540 0.978640 0.385460 -0.470768
O2    O     O_R   0.124540 0.385460 0.978640 -0.469928
O3    O     O_R   0.021360 0.875460 0.614540 -0.473205
O4    O     O_R   0.978640 0.124540 0.385460 -0.517591
O5    O     O_R   0.013780 0.867370 0.487190 -0.529442
O6    O     O_R   0.986220 0.132630 0.512810 -0.519385
O7    O     O_R   0.867370 0.487190 0.013780 -0.540387
O8    O     O_R   0.132630 0.512810 0.986220 -0.530196
O9    O     O_R   0.487190 0.013780 0.867370 -0.513957
O10   O     O_R   0.512810 0.986220 0.132630 -0.527041
O11   O     O_R   0.512810 0.132630 0.986220 -0.516007
O12   O     O_R   0.875460 0.021360 0.614540 -0.473994
O13   O     O_R   0.487190 0.867370 0.013780 -0.511628
O14   O     O_R   0.986220 0.512810 0.132630 -0.528945
O15   O     O_R   0.013780 0.487190 0.867370 -0.521245
O16   O     O_R   0.132630 0.986220 0.512810 -0.529397
O17   O     O_R   0.867370 0.013780 0.487190 -0.533461
O18   O     O_R   0.978640 0.385460 0.124540 -0.467999
O19   O     O_R   0.021360 0.614540 0.875460 -0.527994
O20   O     O_R   0.385460 0.124540 0.978640 -0.521740
O21   O     O_R   0.614540 0.875460 0.021360 -0.519733
O22   O     O_R   0.614540 0.021360 0.875460 -0.513098
O23   O     O_R   0.385460 0.978640 0.124540 -0.522492
O24   O     O_R   0.875460 0.614540 0.021360 -0.476905

loop_
_geom_bond_atom_site_label_1
_geom_bond_atom_site_label_2
_ccdc_geom_bond_type
C25   C31   A    
C52   C65   A    
C21   C87   A    
Cu4   O8    S    
Cu3   Cu4   S    
C65   C79   A    
C22   C29   A    
C67   O11   A    
Cu5   O20   S    
C64   C77   A    
C23   C69   S    
Cu5   Cu6   S    
C19   C31   A    
C71   C79   A    
C18   C32   A    
C26   C44   A    
C21   C36   A    
C45   O22   A    
C26   C32   A    
C22   C35   A    
C23   O7    A    
C9    C42   A    
C80   N3    S    
C16   C62   A    
C30   C35   A    
C39   H6    S    
C68   C81   A    
C52   C85   A    
C38   H5    S    
Cu5   O23   S    
C54   C87   A    
C58   C71   A    
C54   C68   A    
C63   C76   A    
Cu4   O14   S    
C56   C65   S    
C29   C33   A    
C60   C73   A    
C55   C88   A    
C35   C42   A    
C19   C26   A    
C69   C82   A    
Cu5   O13   S    
C89   O14   A    
C12   O4    A    
C20   C86   A    
C18   C84   A    
C7    C40   A    
Cu3   O7    S    
C53   C86   A    
C9    C55   A    
C32   C38   A    
C57   C70   A    
C11   C58   A    
Cu4   O24   S    
C27   C50   A    
C59   C72   A    
Cu1   O4    S    
C5    C38   A    
C36   C41   A    
C18   C25   A    
C77   N1    S    
C15   C48   A    
C74   C82   A    
H21   N2    S    
C17   H4    S    
C78   O13   A    
Cu1   O5    S    
C82   N5    S    
C15   C61   A    
Cu6   O10   S    
C9    H32   S    
C57   C90   A    
C29   C48   A    
C33   C43   A    
C7    H23   S    
H28   N5    S    
C10   C57   A    
Cu5   O9    S    
C8    C41   A    
C24   C33   A    
C8    C54   A    
Cu1   Cu2   S    
C75   C81   A    
C89   O18   A    
C14   H36   S    
H19   N1    S    
C56   O23   A    
C3    O16   A    
C12   O6    A    
C43   H10   S    
C56   O10   A    
C3    C71   S    
Cu1   O17   S    
C72   C77   A    
C1    O5    A    
C61   C88   A    
C12   C68   S    
C28   C49   A    
C30   C47   A    
C8    H31   S    
Cu6   O21   S    
C1    C66   S    
C13   H35   S    
C4    O12   A    
C11   C44   A    
C16   C49   A    
Cu2   O3    S    
H26   N4    S    
C55   C69   A    
C49   H16   S    
Cu1   O1    S    
C67   C73   S    
Cu6   O22   S    
C21   C28   A    
C5    H1    S    
Cu4   O19   S    
C22   C88   A    
C63   C86   A    
Cu2   O12   S    
H29   N6    S    
C62   C75   A    
C3    O1    A    
C7    C53   A    
C15   H2    S    
C37   C40   A    
C11   H34   S    
C4    C72   S    
C2    C76   S    
C81   N4    S    
C44   H11   S    
C14   C60   A    
C6    C39   A    
C79   N2    S    
C34   C70   S    
H30   N6    S    
C10   C43   A    
C45   O9    A    
Cu3   O18   S    
C51   C64   A    
C76   C80   A    
C19   C85   A    
C24   C90   A    
C17   C50   A    
C16   H3    S    
C14   C47   A    
C13   C59   A    
C20   C27   A    
C60   C90   A    
C27   C36   A    
C2    O15   A    
C47   H14   S    
C66   C80   A    
C62   C87   A    
H27   N5    S    
C45   C64   S    
C59   C84   A    
C41   H8    S    
C50   H17   S    
H24   N3    S    
Cu3   O15   S    
C10   H33   S    
Cu3   O2    S    
C53   C66   A    
C17   C63   A    
C58   C85   A    
C20   C37   A    
C34   O8    A    
C70   C83   A    
C28   C37   A    
C2    O19   A    
Cu6   O11   S    
C51   C84   A    
C34   O2    A    
H18   N1    S    
C31   C39   A    
C67   O20   A    
C83   N6    S    
H25   N4    S    
Cu2   O6    S    
C42   H9    S    
C24   C30   A    
C1    O3    A    
C75   C89   S    
C78   O21   A    
C48   H15   S    
H20   N2    S    
C4    O17   A    
C74   C78   S    
C46   H13   S    
C6    H12   S    
C13   C46   A    
C5    C51   A    
Cu2   O16   S    
C6    C52   A    
C25   C46   A    
C73   C83   A    
C23   O24   A    
H22   N3    S    
C61   C74   A    
C40   H7    S    
