data_mof_unit_41133.cif
_audit_creation_date              2012-12-11T15:48:45-0500
_audit_creation_method            fapswitch 2.2
_symmetry_space_group_name_H-M    P1
_symmetry_Int_Tables_number       1
_space_group_crystal_system       triclinic
_cell_length_a                    11.049742
_cell_length_b                    11.07046
_cell_length_c                    18.834575
_cell_angle_alpha                 90.46957
_cell_angle_beta                  90.112011
_cell_angle_gamma                 60.727428
_cell_volume                      2009.67314723

loop_
_atom_site_label
_atom_site_type_symbol
_atom_type_description
_atom_site_fract_x
_atom_site_fract_y
_atom_site_fract_z
_atom_type_partial_charge
C1    C     C_R   0.235500 0.647058 0.609096 0.569682
C2    C     C_3   0.708208 0.530657 0.799016 -0.324557
C3    C     C_3   0.702325 0.670421 0.813378 -0.040375
C4    C     C_3   0.673028 0.645336 0.677064 0.115882
C5    C     C_3   0.792420 0.679284 0.688137 0.082493
C6    C     C_3   0.709767 0.509215 0.718356 -0.259871
C7    C     C_R   0.676530 0.148486 0.820838 0.002622
C8    C     C_R   0.764411 0.185573 0.785435 -0.047712
C9    C     C_R   0.757198 0.201643 0.711724 -0.005840
C10   C     C_R   0.590871 0.122178 0.705111 -0.041503
C11   C     C_R   0.577287 0.131067 0.778020 0.252406
C12   C     C_R   0.653331 0.620203 0.601407 0.584769
C13   C     C_3   0.918422 0.110002 0.783670 0.142757
C14   C     C_3   0.910073 0.133555 0.704103 0.144507
C15   C     C_R   0.672624 0.166886 0.671091 0.030533
C16   C     C_R   0.157156 0.684651 0.831137 0.000546
C17   C     C_R   0.150272 0.579983 0.793397 0.054108
C18   C     C_R   0.167292 0.569615 0.719576 0.003171
C19   C     C_R   0.171655 0.783531 0.720192 -0.053090
C20   C     C_R   0.174061 0.783364 0.793767 -0.189922
C21   C     C_3   0.246870 0.430537 0.804207 0.433698
C22   C     C_3   0.273249 0.419655 0.724544 0.205030
C23   C     C_R   0.629416 0.226516 0.601277 0.563728
C24   C     C_R   0.177017 0.672149 0.681247 0.040410
C25   C     C_R   0.658450 0.679402 0.170046 -0.029937
C26   C     C_R   0.707570 0.549996 0.201266 0.011543
C27   C     C_R   0.711213 0.538405 0.273799 0.008891
C28   C     C_R   0.602811 0.786116 0.289434 0.256149
C29   C     C_R   0.599065 0.798058 0.214862 -0.044865
C30   C     C_3   0.834383 0.409060 0.192536 0.459557
C31   C     C_3   0.844477 0.404826 0.272974 0.183057
C32   C     C_R   0.663255 0.652261 0.319804 0.001527
C33   C     C_R   0.666349 0.125859 0.180870 0.048092
C34   C     C_R   0.218749 0.651165 0.403011 0.529766
C35   C     C_R   0.537832 0.176748 0.212413 0.015226
C36   C     C_R   0.525498 0.196618 0.284136 0.072617
C37   C     C_R   0.773200 0.083163 0.298125 -0.108899
C38   C     C_R   0.785502 0.067212 0.224380 -0.080866
C39   C     C_3   0.406184 0.306349 0.197461 -0.283680
C40   C     C_3   0.391655 0.328458 0.277085 -0.232248
C41   C     C_R   0.641384 0.163603 0.326997 0.072875
C42   C     C_R   0.106669 0.696375 0.190455 -0.074086
C43   C     C_R   0.117486 0.799953 0.226620 -0.001677
C44   C     C_R   0.134480 0.795586 0.298097 -0.104992
C45   C     C_R   0.644914 0.623758 0.393579 0.538091
C46   C     C_R   0.095024 0.599996 0.304795 0.183809
C47   C     C_R   0.082908 0.602858 0.230298 -0.122719
C48   C     C_3   0.203034 0.868337 0.212261 0.482006
C49   C     C_3   0.230115 0.856872 0.291602 0.180430
C50   C     C_R   0.139789 0.686502 0.337655 -0.012179
C51   C     C_R   0.701793 0.097501 0.894628 0.560373
C52   C     C_R   0.723604 0.686915 0.889146 0.582598
C53   C     C_R   0.112487 0.710250 0.904568 0.590512
C54   C     C_R   0.679148 0.098144 0.105981 0.543139
C55   C     C_R   0.697780 0.692100 0.098114 0.547191
C56   C     C_R   0.616553 0.226892 0.396380 0.548802
C57   C     C_R   0.082429 0.715489 0.115163 0.547580
C58   C     C_3   0.560161 0.786408 0.788382 -0.209913
C59   C     C_3   0.536903 0.765267 0.709570 0.405894
C60   C     C_3   0.821261 0.674056 0.769214 0.142259
Cr1   Cr    Cr6+3 0.392960 0.397920 0.502240 1.052953
Cr2   Cr    Cr6+3 0.398340 0.708480 0.501250 1.086473
Cr3   Cr    Cr6+3 0.708670 0.393570 0.496460 1.036859
Cr4   Cr    Cr6+3 0.937650 0.938540 0.007610 1.071615
Cr5   Cr    Cr6+3 0.625330 0.937370 0.994520 1.057924
Cr6   Cr    Cr6+3 0.937940 0.625230 0.001190 1.065805
H1    H     H_    0.815281 0.427953 0.702766 0.190275
H2    H     H_    0.518416 0.103286 0.674836 0.196533
H3    H     H_    0.932180 0.415126 0.294806 0.161928
H4    H     H_    0.887034 0.014976 0.200975 0.200591
H5    H     H_    0.398957 0.420549 0.295161 0.142103
H6    H     H_    0.058526 0.531028 0.204044 0.204079
H7    H     H_    0.617621 0.528762 0.823567 0.111414
O1    O     O_R   0.507380 0.255700 0.581440 -0.486554
O2    O     O_R   0.524480 0.695810 0.424040 -0.458518
O3    O     O_R   0.736390 0.504290 0.414790 -0.493896
O4    O     O_R   0.691300 0.277290 0.422170 -0.466008
O5    O     O_3   0.499990 0.499990 0.499980 -0.279688
O6    O     O_R   0.089400 0.825690 0.930570 -0.529245
O7    O     O_R   0.818460 0.054440 0.929850 -0.515741
O8    O     O_R   0.606060 0.077150 0.915510 -0.497276
O9    O     O_R   0.646550 0.806680 0.917570 -0.493831
O10   O     O_R   0.837170 0.593410 0.915250 -0.512903
O11   O     O_R   0.065200 0.635530 0.931570 -0.485357
O12   O     O_R   0.280320 0.527350 0.578930 -0.480279
O13   O     O_R   0.068260 0.828890 0.091840 -0.453511
O14   O     O_R   0.798870 0.057410 0.079340 -0.493602
O15   O     O_R   0.584930 0.080350 0.076780 -0.521166
O16   O     O_R   0.626960 0.809650 0.067060 -0.507617
O17   O     O_R   0.816040 0.596610 0.076510 -0.459785
O18   O     O_R   0.045610 0.638500 0.081060 -0.504246
O19   O     O_3   0.833640 0.833710 0.001100 -0.284345
O20   O     O_R   0.260510 0.739590 0.584590 -0.491321
O21   O     O_R   0.532300 0.695080 0.573820 -0.429243
O22   O     O_R   0.744840 0.503500 0.576370 -0.528267
O23   O     O_R   0.699120 0.276560 0.571960 -0.524793
O24   O     O_R   0.498940 0.256500 0.419860 -0.521024
O25   O     O_R   0.272500 0.528080 0.429150 -0.506324
O26   O     O_R   0.252060 0.740380 0.423010 -0.487924
H8    H     H_    0.559226 0.884681 0.794930 0.210489
H9    H     H_    0.917286 0.575206 0.780170 0.233717
O27   O     O_3   0.913880 0.582453 0.652672 -0.724132
H10   H     H_    0.912801 0.619999 0.604837 0.326805
O28   O     O_3   0.468496 0.115215 0.803065 -0.693253
H11   H     H_    0.427187 0.171812 0.845774 0.420560
H12   H     H_    0.957143 0.002898 0.801224 0.174625
O29   O     O_3   0.975188 0.182146 0.819321 -0.710861
H13   H     H_    0.977317 0.159537 0.870319 0.340231
H14   H     H_    0.950364 0.202587 0.685940 0.159366
O30   O     O_3   0.957237 0.012800 0.663264 -0.747649
H15   H     H_    0.960265 0.039474 0.613393 0.328105
H16   H     H_    0.186185 0.862556 0.694635 0.240231
H17   H     H_    0.474996 0.792481 0.822442 0.122384
H18   H     H_    0.184588 0.864130 0.821213 0.158235
O31   O     O_3   0.176833 0.359847 0.825400 -0.663469
H19   H     H_    0.153957 0.382030 0.876422 0.357223
O32   O     O_3   0.360812 0.402839 0.848784 -0.703547
H20   H     H_    0.397568 0.466326 0.838001 0.296209
O33   O     O_3   0.405965 0.395767 0.705684 -0.703708
H21   H     H_    0.421673 0.470967 0.723974 0.294772
H22   H     H_    0.242833 0.350575 0.695750 0.190374
O34   O     O_3   0.548520 0.906105 0.329642 -0.686814
H23   H     H_    0.576491 0.882171 0.379762 0.327244
H24   H     H_    0.559690 0.900266 0.192491 0.164649
O35   O     O_3   0.950602 0.405310 0.160855 -0.710483
H25   H     H_    0.028218 0.309521 0.166781 0.330358
O36   O     O_3   0.802091 0.311675 0.162932 -0.647618
H26   H     H_    0.781548 0.336136 0.112100 0.336319
O37   O     O_3   0.831232 0.297705 0.302930 -0.647667
H27   H     H_    0.927367 0.219367 0.306639 0.317322
O38   O     O_3   0.431371 0.730883 0.702999 -0.693662
H28   H     H_    0.443261 0.662846 0.739925 0.281035
H29   H     H_    0.864957 0.045639 0.330923 0.117593
H30   H     H_    0.325973 0.285299 0.173875 0.154867
H31   H     H_    0.423009 0.384883 0.169294 0.140600
H32   H     H_    0.304784 0.317580 0.299523 0.209094
O39   O     O_3   0.072258 0.506752 0.342315 -0.743825
H33   H     H_    0.054227 0.537440 0.392607 0.337282
O40   O     O_3   0.122222 0.005560 0.189949 -0.675535
H34   H     H_    0.183828 0.047276 0.191685 0.329446
O41   O     O_3   0.497577 0.888464 0.672207 -0.706474
H35   H     H_    0.403266 0.957395 0.688954 0.363999
O42   O     O_3   0.320689 0.792938 0.168523 -0.647178
H36   H     H_    0.353254 0.692432 0.173058 0.297291
O43   O     O_3   0.368393 0.762776 0.307767 -0.643936
H37   H     H_    0.390583 0.668067 0.292376 0.305842
H38   H     H_    0.191134 0.957692 0.319910 0.145891
O44   O     O_3   0.846758 0.781419 0.790925 -0.713158
H39   H     H_    0.767325 0.869812 0.775907 0.319742
H40   H     H_    0.759539 0.785283 0.667682 0.151186
H41   H     H_    0.803070 0.444137 0.822399 0.210900
H42   H     H_    0.636886 0.470922 0.704248 0.133500

loop_
_geom_bond_atom_site_label_1
_geom_bond_atom_site_label_2
_ccdc_geom_bond_type
C44   C49   S    
Cr5   O19   S    
C54   O15   A    
C38   H4    S    
C8    C13   S    
C40   H5    S    
C14   H14   S    
C32   C45   S    
C35   C39   S    
C35   C36   A    
C13   O29   S    
O43   H37   S    
C7    C8    A    
Cr6   O17   S    
C39   H31   S    
C19   H16   S    
C57   O13   A    
Cr5   O16   S    
C40   H32   S    
C59   O38   S    
C26   C27   A    
C22   H22   S    
C53   O11   A    
C18   C24   A    
C28   C29   A    
C53   O6    A    
O42   H36   S    
C55   O17   A    
C10   C15   A    
C37   C41   A    
C30   C31   S    
C3    C52   S    
C28   O34   S    
Cr3   O3    S    
O31   H19   S    
C29   H24   S    
Cr3   O22   S    
C2    H41   S    
C23   O23   A    
C49   H38   S    
O30   H15   S    
C21   O32   S    
C34   O25   A    
Cr6   O10   S    
C46   C47   A    
O41   H35   S    
C19   C20   A    
C16   C17   A    
C58   H17   S    
O29   H13   S    
C12   O22   A    
C11   O28   S    
C4    C12   S    
C43   C48   S    
C51   O8    A    
Cr4   O14   S    
C48   O40   S    
C21   O31   S    
C6    H42   S    
C3    C60   S    
C15   C23   S    
C30   O35   S    
C13   C14   S    
C1    O12   A    
Cr4   O7    S    
C12   O21   A    
C36   C41   A    
C2    C6    S    
C56   O24   A    
C42   C57   S    
Cr4   O13   S    
O28   H11   S    
C34   O26   A    
C25   C29   A    
C22   O33   S    
C34   C50   S    
C27   C31   S    
C28   C32   A    
C58   H8    S    
O44   H39   S    
C4    C6    S    
C39   C40   S    
C8    C9    A    
Cr6   O19   S    
C25   C26   A    
Cr3   O23   S    
C17   C21   S    
C5    H40   S    
C48   O42   S    
C30   O36   S    
C52   O10   A    
C7    C11   A    
C9    C14   S    
C41   C56   S    
C37   C38   A    
C31   H3    S    
Cr5   O8    S    
C36   C40   S    
Cr1   O5    S    
C16   C20   A    
C17   C18   A    
C49   O43   S    
O33   H21   S    
C52   O9    A    
C2    H7    S    
Cr1   O12   S    
C46   O39   S    
C1    O20   A    
C48   C49   S    
C26   C30   S    
Cr2   O21   S    
C43   C44   A    
O35   H25   S    
Cr4   O6    S    
C37   H29   S    
Cr2   O2    S    
C42   C43   A    
Cr4   O19   S    
C23   O1    A    
C60   H9    S    
Cr5   O15   S    
O37   H27   S    
Cr3   O4    S    
C44   C50   A    
C33   C54   S    
C14   O30   S    
C5    O27   S    
C6    H1    S    
C57   O18   A    
C5    C60   S    
C27   C32   A    
C18   C22   S    
Cr2   O5    S    
Cr1   O24   S    
C25   C55   S    
C13   H12   S    
O40   H34   S    
Cr6   O18   S    
C10   H2    S    
Cr1   O1    S    
O39   H33   S    
C46   C50   A    
C33   C38   A    
C45   O2    A    
C19   C24   A    
C58   C59   S    
C7    C51   S    
C31   O37   S    
O32   H20   S    
C20   H18   S    
Cr1   O25   S    
Cr5   O9    S    
C54   O14   A    
C51   O7    A    
C4    C59   S    
C45   O3    A    
C33   C35   A    
C2    C3    S    
C42   C47   A    
C9    C15   A    
O27   H10   S    
C47   H6    S    
C10   C11   A    
C56   O4    A    
Cr6   O11   S    
Cr2   O26   S    
C3    C58   S    
C4    C5    S    
C59   O41   S    
C1    C24   S    
C55   O16   A    
Cr2   O20   S    
O36   H26   S    
C60   O44   S    
O34   H23   S    
C21   C22   S    
C39   H30   S    
O38   H28   S    
C16   C53   S    
Cr3   O5    S    
