data_mof_unit_59053.cif
_audit_creation_date              2012-12-11T16:26:15-0500
_audit_creation_method            fapswitch 2.2
_symmetry_space_group_name_H-M    P1
_symmetry_Int_Tables_number       1
_space_group_crystal_system       triclinic
_cell_length_a                    14.021787
_cell_length_b                    14.025129
_cell_length_c                    31.882239
_cell_angle_alpha                 89.778943
_cell_angle_beta                  90.31834
_cell_angle_gamma                 120.074412
_cell_volume                      5425.70908095

loop_
_atom_site_label
_atom_site_type_symbol
_atom_type_description
_atom_site_fract_x
_atom_site_fract_y
_atom_site_fract_z
_atom_type_partial_charge
C1    C     C_R   0.567554 0.444397 0.810332 0.558176
C2    C     C_R   0.878272 0.433474 0.689643 0.556806
C3    C     C_R   0.555643 0.122926 0.810310 0.561408
C4    C     C_R   0.566307 0.445638 0.689719 0.540997
C5    C     C_R   0.877416 0.432674 0.810241 0.563054
C6    C     C_R   0.555448 0.124108 0.689109 0.562959
C7    C     C_R   0.446554 0.565048 0.309499 0.537018
C8    C     C_R   0.432443 0.876859 0.189709 0.560887
C9    C     C_R   0.120096 0.554374 0.309852 0.544797
C10   C     C_R   0.444113 0.567400 0.189717 0.560957
C11   C     C_R   0.434773 0.879262 0.310065 0.550569
C12   C     C_R   0.122759 0.555701 0.189718 0.558714
C13   C     C_1   0.007560 0.479334 0.018457 -0.025124
C14   C     C_1   0.558598 0.022251 0.478249 -0.002420
C15   C     C_1   0.521925 0.524497 0.018911 0.005773
C16   C     C_1   0.999036 0.539750 0.480079 -0.001690
C17   C     C_1   0.473552 0.998204 0.018873 0.001612
C18   C     C_1   0.473440 0.463619 0.478853 -0.042897
C19   C     C_1   0.563688 0.031019 0.515794 -0.008541
C20   C     C_1   0.997311 0.473908 0.981218 0.003006
C21   C     C_1   0.474708 0.462004 0.516796 -0.044096
C22   C     C_1   0.479356 0.009759 0.981710 0.004311
C23   C     C_1   0.991145 0.536004 0.517709 0.038839
C24   C     C_1   0.527971 0.518836 0.981750 0.003777
C25   C     C_R   0.931239 0.468168 0.851698 -0.002824
C26   C     C_R   0.538831 0.075346 0.646352 0.010641
C27   C     C_R   0.533017 0.461626 0.852015 -0.002400
C28   C     C_R   0.937308 0.474236 0.648747 0.009491
C29   C     C_R   0.538645 0.071136 0.852071 -0.002157
C30   C     C_R   0.526271 0.467725 0.648981 -0.022195
C31   C     C_R   0.483137 0.944618 0.349397 -0.001705
C32   C     C_R   0.069465 0.538946 0.148206 -0.007673
C33   C     C_R   0.471598 0.519372 0.348019 -0.023805
C34   C     C_R   0.467526 0.928934 0.148109 -0.000072
C35   C     C_R   0.055711 0.534305 0.349507 -0.011406
C36   C     C_R   0.460074 0.532197 0.148068 0.000759
C37   C     C_R   0.889999 0.514914 0.880507 0.085638
C38   C     C_R   0.598864 0.024580 0.633149 0.083888
C39   C     C_R   0.486978 0.372884 0.880783 0.087171
C40   C     C_R   0.959742 0.577452 0.632197 0.064679
C41   C     C_R   0.626791 0.115933 0.881196 0.085965
C42   C     C_R   0.422095 0.390456 0.632046 0.098628
C43   C     C_R   0.581963 0.955660 0.366746 0.096304
C44   C     C_R   0.113251 0.627241 0.119195 0.082613
C45   C     C_R   0.392680 0.415860 0.364579 0.100143
C46   C     C_R   0.505800 0.880965 0.118605 0.085425
C47   C     C_R   0.035473 0.616581 0.365634 0.104062
C48   C     C_R   0.373901 0.496206 0.118255 0.081023
C49   C     C_R   0.914784 0.518627 0.923085 0.065174
C50   C     C_R   0.607430 0.008535 0.589759 0.072716
C51   C     C_R   0.483884 0.392872 0.923438 0.064758
C52   C     C_R   0.984891 0.601213 0.589137 0.063345
C53   C     C_R   0.606135 0.093325 0.923869 0.063912
C54   C     C_R   0.401654 0.392272 0.588476 0.077970
C55   C     C_R   0.611424 0.989881 0.408525 0.065858
C56   C     C_R   0.091189 0.606256 0.076442 0.073734
C57   C     C_R   0.395531 0.394062 0.407831 0.087318
C58   C     C_R   0.507792 0.905190 0.076056 0.065145
C59   C     C_R   0.013822 0.617434 0.408884 0.071899
C60   C     C_R   0.395574 0.493478 0.075759 0.064001
C61   C     C_R   0.981705 0.477008 0.937113 0.014804
C62   C     C_R   0.556090 0.043437 0.560262 0.011775
C63   C     C_R   0.525507 0.501087 0.937618 0.011596
C64   C     C_R   0.979875 0.519471 0.562501 0.039861
C65   C     C_R   0.497866 0.024963 0.937662 0.012458
C66   C     C_R   0.486624 0.468105 0.562201 -0.007493
C67   C     C_R   0.540559 0.008271 0.433641 0.016626
C68   C     C_R   0.022643 0.497855 0.062554 -0.001535
C69   C     C_R   0.479324 0.474219 0.433426 -0.002455
C70   C     C_R   0.474390 0.979422 0.062808 0.010906
C71   C     C_R   0.009825 0.534869 0.435245 0.009157
C72   C     C_R   0.502619 0.524187 0.062830 0.017714
C73   C     C_R   0.032822 0.440675 0.908669 0.156386
C74   C     C_R   0.489293 0.085463 0.573492 0.125798
C75   C     C_R   0.561360 0.589279 0.909246 0.155561
C76   C     C_R   0.967219 0.420962 0.579261 0.143705
C77   C     C_R   0.410475 0.970713 0.909020 0.155849
C78   C     C_R   0.586282 0.550322 0.579999 0.147027
C79   C     C_R   0.450498 0.011648 0.415485 0.159239
C80   C     C_R   0.967239 0.411118 0.091367 0.152096
C81   C     C_R   0.569552 0.566653 0.414730 0.151672
C82   C     C_R   0.446759 0.036521 0.091986 0.152100
C83   C     C_R   0.012259 0.443938 0.417974 0.156500
C84   C     C_R   0.587216 0.550303 0.092306 0.158268
C85   C     C_R   0.007730 0.436228 0.865458 0.107590
C86   C     C_R   0.475280 0.095365 0.616580 0.098222
C87   C     C_R   0.565147 0.569734 0.865967 0.107584
C88   C     C_R   0.956085 0.403013 0.622900 0.102889
C89   C     C_R   0.430657 0.993797 0.865741 0.106983
C90   C     C_R   0.599416 0.559646 0.624043 0.141515
C91   C     C_R   0.426128 0.986697 0.372463 0.102023
C92   C     C_R   0.991626 0.431306 0.134467 0.129721
C93   C     C_R   0.570981 0.583560 0.370821 0.137458
C94   C     C_R   0.442921 0.010968 0.135036 0.107298
C95   C     C_R   0.027422 0.440107 0.374449 0.105480
C96   C     C_R   0.566075 0.554849 0.135293 0.107834
Cr1   Cr    Cr6+3 0.504240 0.249200 0.750000 1.035646
Cr2   Cr    Cr6+3 0.744960 0.495760 0.750000 1.033336
Cr3   Cr    Cr6+3 0.750800 0.255040 0.750000 1.013741
Cr4   Cr    Cr6+3 0.249200 0.504240 0.250000 1.018181
Cr5   Cr    Cr6+3 0.495760 0.744960 0.250000 1.034539
Cr6   Cr    Cr6+3 0.255040 0.750800 0.250000 1.021669
O1    O     O_R   0.480350 0.140770 0.796330 -0.501633
O2    O     O_R   0.660420 0.519650 0.703670 -0.511399
O3    O     O_R   0.859230 0.339580 0.796330 -0.500258
O4    O     O_R   0.480350 0.140770 0.703670 -0.482316
O5    O     O_R   0.660420 0.519650 0.796330 -0.501897
O6    O     O_R   0.859230 0.339580 0.703670 -0.527408
O7    O     O_R   0.140770 0.480350 0.296330 -0.516287
O8    O     O_R   0.519650 0.660420 0.203670 -0.499409
O9    O     O_R   0.339580 0.859230 0.296330 -0.514474
O10   O     O_R   0.140770 0.480350 0.203670 -0.500159
O11   O     O_R   0.519650 0.660420 0.296330 -0.509649
O12   O     O_R   0.339580 0.859230 0.203670 -0.500092
O13   O     O_R   0.514930 0.348530 0.793250 -0.466883
O14   O     O_R   0.833600 0.485070 0.706750 -0.455745
O15   O     O_R   0.651470 0.166400 0.793250 -0.464023
O16   O     O_R   0.514930 0.348530 0.706750 -0.455917
O17   O     O_R   0.833600 0.485070 0.793250 -0.462606
O18   O     O_R   0.651470 0.166400 0.706750 -0.482275
O19   O     O_R   0.348530 0.514930 0.293250 -0.467650
O20   O     O_R   0.485070 0.833600 0.206750 -0.464993
O21   O     O_R   0.166400 0.651470 0.293250 -0.464308
O22   O     O_R   0.348530 0.514930 0.206750 -0.468216
O23   O     O_R   0.485070 0.833600 0.293250 -0.458061
O24   O     O_R   0.166400 0.651470 0.206750 -0.464804
O25   O     O_3   0.666667 0.333333 0.750000 -0.249201
O26   O     O_3   0.333333 0.666667 0.250000 -0.243380
N1    N     N_3   0.817323 0.553167 0.866986 -0.565519
H1    H     H_    0.743041 0.508850 0.883178 0.249802
H2    H     H_    0.852996 0.636171 0.875226 0.234130
N2    N     N_3   0.650395 0.990451 0.664310 -0.633267
H3    H     H_    0.587584 0.925426 0.681170 0.217321
H4    H     H_    0.697299 0.959955 0.650767 0.253156
N3    N     N_3   0.448622 0.262248 0.867116 -0.565396
H5    H     H_    0.365698 0.214374 0.875392 0.234010
H6    H     H_    0.493188 0.232146 0.883227 0.249858
N4    N     N_3   0.957334 0.657785 0.659231 -0.605950
H7    H     H_    0.897700 0.675500 0.648081 0.257759
H8    H     H_    0.034256 0.729780 0.658439 0.211844
N5    N     N_3   0.737237 0.190279 0.867846 -0.564914
H9    H     H_    0.786532 0.157388 0.876981 0.235371
H10   H     H_    0.765213 0.265061 0.883480 0.249108
N6    N     N_3   0.338486 0.311528 0.659597 -0.591376
H11   H     H_    0.318501 0.355518 0.680761 0.210986
H12   H     H_    0.265869 0.259009 0.643489 0.256335
N7    N     N_3   0.653474 0.933316 0.341829 -0.579194
H13   H     H_    0.662110 0.871287 0.356522 0.267872
H14   H     H_    0.730978 0.004608 0.340621 0.239632
N8    N     N_3   0.186970 0.737924 0.132677 -0.565188
H15   H     H_    0.153637 0.786966 0.123695 0.231642
H16   H     H_    0.261816 0.766524 0.117095 0.249668
N9    N     N_3   0.313286 0.333405 0.336725 -0.623633
H17   H     H_    0.357086 0.317638 0.313999 0.215483
H18   H     H_    0.265076 0.258549 0.352147 0.253359
N10   N     N_3   0.535330 0.801068 0.131397 -0.563846
H19   H     H_    0.484471 0.727912 0.115334 0.248426
H20   H     H_    0.616744 0.829167 0.122387 0.236825
N11   N     N_3   0.034599 0.696457 0.337391 -0.616569
H21   H     H_    0.969758 0.653725 0.316183 0.209615
H22   H     H_    0.017709 0.751596 0.352915 0.243447
N12   N     N_3   0.265653 0.471006 0.130647 -0.564555
H23   H     H_    0.209650 0.390460 0.121301 0.239874
H24   H     H_    0.246493 0.524487 0.114683 0.247105
N13   N     N_3   0.142686 0.696442 0.047308 -0.651063
H25   H     H_    0.081225 0.699823 0.029769 0.226549
H26   H     H_    0.192134 0.681749 0.026952 0.232146
N14   N     N_3   0.714186 0.006249 0.424889 -0.657628
H27   H     H_    0.762307 0.089107 0.433364 0.230972
H28   H     H_    0.698866 0.959287 0.452126 0.217770
N15   N     N_3   0.307767 0.462531 0.045865 -0.644979
H29   H     H_    0.298486 0.395066 0.028649 0.229166
H30   H     H_    0.329413 0.528502 0.025313 0.228317
N16   N     N_3   0.997379 0.702805 0.425824 -0.669339
H31   H     H_    0.919482 0.665911 0.439696 0.230696
H32   H     H_    0.056183 0.743891 0.449277 0.233171
N17   N     N_3   0.541090 0.850474 0.046445 -0.650811
H33   H     H_    0.607889 0.910078 0.029275 0.227992
H34   H     H_    0.475581 0.804797 0.025812 0.228118
N18   N     N_3   0.312081 0.292027 0.425568 -0.661025
H35   H     H_    0.351027 0.252808 0.439365 0.228009
H36   H     H_    0.271901 0.309190 0.449308 0.222293
N19   N     N_3   0.669728 0.958905 0.575935 -0.674588
H37   H     H_    0.732985 0.014688 0.556424 0.220354
H38   H     H_    0.617720 0.889017 0.558260 0.227468
N20   N     N_3   0.867629 0.561874 0.951984 -0.651215
H39   H     H_    0.931525 0.627072 0.968488 0.223253
H40   H     H_    0.818297 0.499933 0.973305 0.238861
N21   N     N_3   0.296909 0.313347 0.570968 -0.659901
H41   H     H_    0.309376 0.265529 0.549011 0.224429
H42   H     H_    0.264012 0.356104 0.555324 0.234713
N22   N     N_3   0.696552 0.143987 0.953059 -0.647558
H43   H     H_    0.699646 0.082016 0.970301 0.226560
H44   H     H_    0.682297 0.193226 0.973711 0.237106
N23   N     N_3   0.013854 0.707168 0.572048 -0.654691
H45   H     H_    0.086052 0.766611 0.586778 0.225775
H46   H     H_    0.951248 0.724496 0.578618 0.228232
N24   N     N_3   0.440929 0.301681 0.952238 -0.650681
H47   H     H_    0.375914 0.299851 0.968831 0.223619
H48   H     H_    0.503125 0.313968 0.973503 0.242601
N25   N     N_2   0.936046 0.343671 0.163909 -0.495014
H49   H     H_    0.925995 0.365446 0.193727 0.240915
C97   C     C_3   0.959038 0.253839 0.162216 -0.250997
H50   H     H_    0.005497 0.254765 0.190690 0.135535
H51   H     H_    0.008348 0.259147 0.134214 0.158385
H52   H     H_    0.880010 0.174505 0.161128 0.147930
N26   N     N_2   0.351332 0.012873 0.352090 -0.523100
H53   H     H_    0.372609 0.043323 0.321995 0.255434
C98   C     C_3   0.235041 0.936698 0.358047 -0.260803
H54   H     H_    0.191865 0.916526 0.327259 0.158735
H55   H     H_    0.199336 0.975523 0.377986 0.139663
H56   H     H_    0.220619 0.858781 0.372886 0.191575
N27   N     N_2   0.651105 0.581160 0.165541 -0.516780
H57   H     H_    0.625755 0.546480 0.194867 0.244485
C99   C     C_3   0.741795 0.693915 0.165938 -0.276929
H58   H     H_    0.742550 0.734243 0.195956 0.146284
H59   H     H_    0.735947 0.743386 0.139776 0.154164
H60   H     H_    0.820626 0.693896 0.163132 0.135408
N28   N     N_2   0.003783 0.338451 0.355631 -0.524571
H61   H     H_    0.966300 0.323309 0.326560 0.256220
C100  C     C_3   0.087397 0.307326 0.359406 -0.249544
H62   H     H_    0.100544 0.279794 0.328441 0.161955
H63   H     H_    0.059755 0.237707 0.381769 0.142343
H64   H     H_    0.167057 0.377568 0.370256 0.196087
N29   N     N_2   0.415767 0.068736 0.165063 -0.515711
H65   H     H_    0.450782 0.078581 0.194418 0.246518
C101  C     C_3   0.302623 0.045287 0.165307 -0.276482
H66   H     H_    0.262419 0.004652 0.195254 0.145802
H67   H     H_    0.253570 0.990325 0.139056 0.154716
H68   H     H_    0.301794 0.123756 0.162535 0.134926
N30   N     N_2   0.669235 0.661562 0.348815 -0.492512
H69   H     H_    0.667625 0.642579 0.317523 0.256997
C102  C     C_3   0.777272 0.694356 0.366003 -0.280690
H70   H     H_    0.839861 0.731428 0.340802 0.108558
H71   H     H_    0.780003 0.622004 0.378878 0.166020
H72   H     H_    0.800920 0.759611 0.389935 0.198753
N31   N     N_2   0.399953 0.129008 0.629973 -0.462158
H73   H     H_    0.398572 0.188952 0.611755 0.276425
C103  C     C_3   0.290913 0.038282 0.639207 -0.280326
H74   H     H_    0.239404 0.070510 0.652245 0.148071
H75   H     H_    0.295526 0.982246 0.662832 0.156099
H76   H     H_    0.250850 0.990943 0.610236 0.111852
N32   N     N_2   0.065655 0.408448 0.835701 -0.509178
H77   H     H_    0.082775 0.450119 0.807519 0.246241
C104  C     C_3   0.032648 0.292998 0.831591 -0.283375
H78   H     H_    0.994374 0.261672 0.800360 0.154750
H79   H     H_    0.972903 0.241551 0.856146 0.142956
H80   H     H_    0.106680 0.283979 0.834264 0.130750
N33   N     N_2   0.682771 0.658891 0.644101 -0.487715
H81   H     H_    0.659168 0.670453 0.673351 0.255805
C105  C     C_3   0.736940 0.762604 0.621521 -0.290581
H82   H     H_    0.779253 0.831813 0.644083 0.112768
H83   H     H_    0.675880 0.774822 0.603535 0.175634
H84   H     H_    0.801976 0.766381 0.600817 0.178510
N34   N     N_2   0.344888 0.933576 0.835909 -0.509224
H85   H     H_    0.369796 0.916017 0.808026 0.245567
C106  C     C_3   0.261269 0.964797 0.830975 -0.282392
H86   H     H_    0.267302 0.001242 0.799428 0.155805
H87   H     H_    0.269220 0.025503 0.855001 0.143012
H88   H     H_    0.178597 0.890218 0.833843 0.132190
N35   N     N_2   0.970774 0.317495 0.640447 -0.524459
H89   H     H_    0.014658 0.336867 0.668210 0.257502
C107  C     C_3   0.877386 0.206695 0.638386 -0.244108
H90   H     H_    0.863679 0.166268 0.669543 0.169600
H91   H     H_    0.894073 0.157656 0.615435 0.140153
H92   H     H_    0.801170 0.207159 0.629205 0.180041
N36   N     N_2   0.592268 0.656188 0.836340 -0.509268
H93   H     H_    0.550119 0.632201 0.808205 0.244554
C108  C     C_3   0.707609 0.739165 0.832140 -0.283207
H94   H     H_    0.738619 0.732811 0.800897 0.156390
H95   H     H_    0.759452 0.730835 0.856677 0.142818
H96   H     H_    0.716428 0.822083 0.834789 0.131338
N37   N     N_2   0.888393 0.303120 0.077431 -0.504355
H97   H     H_    0.907079 0.280262 0.049327 0.253826
C109  C     C_3   0.775314 0.278856 0.079099 -0.284579
H98   H     H_    0.719373 0.191763 0.069871 0.144999
H99   H     H_    0.762655 0.333296 0.057114 0.139580
H100  H     H_    0.753743 0.290413 0.111431 0.180732
N38   N     N_2   0.387910 0.045180 0.440197 -0.493020
H101  H     H_    0.361029 0.091421 0.424282 0.271210
C110  C     C_3   0.301891 0.958460 0.465099 -0.285518
H102  H     H_    0.241448 0.891446 0.444709 0.130801
H103  H     H_    0.258131 0.992316 0.483183 0.140901
H104  H     H_    0.336814 0.923420 0.487580 0.174893
N39   N     N_2   0.691694 0.567543 0.078868 -0.510224
H105  H     H_    0.733506 0.545023 0.099684 0.272774
C111  C     C_3   0.761334 0.668331 0.055944 -0.303700
H106  H     H_    0.837039 0.721763 0.074408 0.120563
H107  H     H_    0.718747 0.715636 0.049180 0.161906
H108  H     H_    0.785732 0.647578 0.025796 0.165526
N40   N     N_2   0.998299 0.355844 0.444545 -0.503347
H109  H     H_    0.954564 0.278495 0.431428 0.266786
C112  C     C_3   0.098113 0.374883 0.465633 -0.294799
H110  H     H_    0.163671 0.392356 0.442571 0.134663
H111  H     H_    0.081351 0.300857 0.484122 0.138753
H112  H     H_    0.128521 0.445888 0.487368 0.176793
N41   N     N_2   0.427237 0.122240 0.078167 -0.510981
H113  H     H_    0.448601 0.186386 0.098785 0.274857
C113  C     C_3   0.325906 0.088791 0.055105 -0.301867
H114  H     H_    0.271617 0.109946 0.073232 0.120237
H115  H     H_    0.279852 0.998659 0.048785 0.163055
H116  H     H_    0.345768 0.133410 0.024725 0.166425
N42   N     N_2   0.656254 0.645735 0.440191 -0.526150
H117  H     H_    0.681907 0.613151 0.463622 0.248669
C114  C     C_3   0.641541 0.736080 0.453156 -0.317987
H118  H     H_    0.716407 0.797948 0.470133 0.133392
H119  H     H_    0.569247 0.706183 0.474240 0.137495
H120  H     H_    0.628651 0.776003 0.425288 0.187656
N43   N     N_2   0.436672 0.118313 0.542910 -0.508872
H121  H     H_    0.357836 0.100447 0.550030 0.244579
C115  C     C_3   0.505289 0.228901 0.526988 -0.293841
H122  H     H_    0.459594 0.246144 0.502430 0.149298
H123  H     H_    0.581526 0.238111 0.512717 0.159583
H124  H     H_    0.528366 0.289759 0.552725 0.138084
N44   N     N_2   0.107915 0.407822 0.923939 -0.495912
H125  H     H_    0.105862 0.342402 0.908653 0.263428
C116  C     C_3   0.218987 0.497347 0.930811 -0.307879
H126  H     H_    0.270497 0.464271 0.943589 0.139343
H127  H     H_    0.219508 0.556643 0.953899 0.138896
H128  H     H_    0.255440 0.540413 0.900769 0.152145
N45   N     N_2   0.677091 0.617659 0.553769 -0.527099
H129  H     H_    0.658896 0.655203 0.529826 0.250063
C117  C     C_3   0.739978 0.566631 0.541030 -0.317869
H130  H     H_    0.813396 0.626789 0.523078 0.152072
H131  H     H_    0.689533 0.494038 0.520741 0.131137
H132  H     H_    0.767499 0.539480 0.569041 0.177092
N46   N     N_2   0.302999 0.894437 0.924159 -0.498305
H133  H     H_    0.238751 0.894565 0.908508 0.263387
C118  C     C_3   0.283646 0.784397 0.931525 -0.309522
H134  H     H_    0.199443 0.732004 0.944319 0.139205
H135  H     H_    0.343637 0.785939 0.954769 0.136073
H136  H     H_    0.290405 0.747555 0.901685 0.153281
N47   N     N_2   0.967635 0.340695 0.552019 -0.506502
H137  H     H_    0.005326 0.299446 0.563981 0.270888
C119  C     C_3   0.862435 0.268111 0.532211 -0.297061
H138  H     H_    0.869912 0.208162 0.511852 0.139907
H139  H     H_    0.835481 0.315680 0.512456 0.168284
H140  H     H_    0.798405 0.221856 0.556111 0.133352
N48   N     N_2   0.594258 0.696888 0.924654 -0.498217
H141  H     H_    0.659650 0.760793 0.909448 0.263351
C120  C     C_3   0.504767 0.718080 0.931574 -0.309247
H142  H     H_    0.537940 0.802443 0.944414 0.139027
H143  H     H_    0.445642 0.658701 0.954640 0.136776
H144  H     H_    0.461474 0.712033 0.901543 0.152881

loop_
_geom_bond_atom_site_label_1
_geom_bond_atom_site_label_2
_ccdc_geom_bond_type
N34   C106  S    
C82   C94   A    
C54   N21   S    
C18   C21   T    
Cr5   O11   S    
N40   H109  S    
C35   C47   A    
C29   C89   A    
N42   C114  S    
C5    O3    A    
N47   H137  S    
C110  H104  S    
C97   H51   S    
C45   C57   A    
C5    O17   A    
C73   N44   S    
C10   O22   A    
C48   N12   S    
C28   C40   A    
Cr5   O26   S    
C33   C45   A    
N3    H6    S    
N41   C113  S    
C2    O14   A    
C49   N20   S    
C109  H98   S    
C40   N4    S    
C95   N28   S    
N11   H22   S    
Cr1   O13   S    
C8    O12   A    
C93   N30   S    
N43   C115  S    
Cr4   O7    S    
C104  H78   S    
C77   N46   S    
C75   N48   S    
Cr6   O9    S    
C16   C71   S    
C55   N14   S    
N18   H36   S    
N12   H24   S    
N27   C99   S    
C65   C77   A    
C117  H130  S    
C105  H82   S    
C67   C79   A    
C119  H139  S    
C83   N40   S    
C26   C38   A    
Cr5   O8    S    
C44   N8    S    
Cr4   O22   S    
C80   C92   A    
C116  H128  S    
N19   H37   S    
Cr6   O12   S    
N15   H30   S    
C101  H66   S    
C77   C89   A    
C6    O4    A    
C72   C84   A    
N4    H8    S    
C5    C25   S    
N14   H27   S    
C24   C63   S    
C108  H95   S    
Cr6   O21   S    
C3    O1    A    
C107  H91   S    
C13   C20   T    
N7    H14   S    
C14   C19   T    
C34   C94   A    
N6    H11   S    
C57   N18   S    
C112  H112  S    
Cr5   O20   S    
N10   H20   S    
N39   C111  S    
C32   C92   A    
C4    O2    A    
C2    O6    A    
C9    O21   A    
C37   N1    S    
N38   C110  S    
C70   C82   A    
C53   N22   S    
C47   C59   A    
C119  H138  S    
N41   H113  S    
C12   O24   A    
C118  H135  S    
N2    H4    S    
N45   H129  S    
C104  H80   S    
C60   C72   A    
N24   H48   S    
C1    O13   A    
N20   H39   S    
C38   N2    S    
C39   C51   A    
C21   C66   S    
N7    H13   S    
C47   N11   S    
C15   C72   S    
N33   H81   S    
C100  H62   S    
C31   C43   A    
N40   C112  S    
Cr6   O26   S    
N35   H89   S    
C106  H86   S    
C20   C61   S    
C3    C29   S    
N16   H31   S    
C94   N29   S    
C114  H119  S    
C78   N45   S    
C56   N13   S    
Cr5   O23   S    
C14   C67   S    
C34   C46   A    
C53   C65   A    
C102  H70   S    
C79   C91   A    
C18   C69   S    
N13   H26   S    
N31   H73   S    
C46   C58   A    
N25   C97   S    
C7    O19   A    
C81   N42   S    
N37   H97   S    
C71   C83   A    
C120  H143  S    
C32   C44   A    
Cr2   O25   S    
C109  H100  S    
C99   H60   S    
N46   C118  S    
C105  H84   S    
C56   C68   A    
N23   H45   S    
C117  H131  S    
N22   H44   S    
C22   C65   S    
C112  H110  S    
Cr3   O15   S    
C102  H71   S    
C73   C85   A    
C25   C85   A    
C98   H54   S    
C103  H75   S    
C8    C34   S    
C76   N47   S    
C27   C87   A    
C41   C53   A    
C1    O5    A    
C75   C87   A    
C15   C24   T    
C101  H67   S    
C114  H118  S    
C16   C23   T    
C31   C91   A    
C115  H123  S    
C12   O10   A    
N1    H1    S    
C43   C55   A    
C29   C41   A    
Cr4   O26   S    
C60   N15   S    
C62   C74   A    
Cr6   O24   S    
C91   N26   S    
N36   H93   S    
C54   C66   A    
C110  H103  S    
C46   N10   S    
C106  H88   S    
C74   N43   S    
C8    O20   A    
C6    C26   S    
C63   C75   A    
C80   N37   S    
N29   C101  S    
C36   C48   A    
C113  H116  S    
N26   C98   S    
N8    H15   S    
C87   N36   S    
N23   H46   S    
C13   C68   S    
N44   C116  S    
C84   N39   S    
C7    C33   S    
C103  H74   S    
C115  H122  S    
C59   N16   S    
N3    H5    S    
C39   N3    S    
N27   H57   S    
C78   C90   A    
C11   O23   A    
C100  H64   S    
N5    H10   S    
N32   H77   S    
C98   H56   S    
Cr4   O19   S    
C118  H134  S    
C116  H127  S    
C3    O15   A    
N38   H101  S    
N9    H18   S    
N14   H28   S    
N44   H125  S    
C108  H94   S    
C52   N23   S    
C97   H52   S    
N47   C119  S    
C9    O7    A    
C66   C78   A    
C90   N33   S    
C49   C61   A    
C11   O9    A    
N26   H53   S    
C51   C63   A    
N6    H12   S    
C52   C64   A    
N28   H61   S    
Cr3   O25   S    
C61   C73   A    
N43   H121  S    
Cr2   O5    S    
C113  H114  S    
N39   H105  S    
Cr3   O6    S    
C51   N24   S    
C37   C49   A    
C44   C56   A    
N11   H21   S    
C111  H108  S    
N30   C102  S    
Cr1   O4    S    
Cr4   O10   S    
C104  H79   S    
C42   N6    S    
C45   N9    S    
N20   H40   S    
N18   H35   S    
N12   H23   S    
C58   C70   A    
C33   C93   A    
C119  H140  S    
C35   C95   A    
C17   C22   T    
C99   H59   S    
N46   H133  S    
C42   C54   A    
N36   C108  S    
C10   O8    A    
C99   H58   S    
N21   H41   S    
N16   H32   S    
C69   C81   A    
N4    H7    S    
C96   N27   S    
C79   N38   S    
N17   H33   S    
C108  H96   S    
C9    C35   S    
C30   C42   A    
C10   C36   S    
C30   C90   A    
C68   C80   A    
C107  H92   S    
N15   H29   S    
N13   H25   S    
N25   H49   S    
C50   N19   S    
Cr1   O25   S    
C82   N41   S    
Cr2   O17   S    
C120  H142  S    
N10   H19   S    
C109  H99   S    
N19   H38   S    
C105  H83   S    
C19   C62   S    
C85   N32   S    
C86   N31   S    
N21   H42   S    
C84   C96   A    
Cr1   O16   S    
C25   C37   A    
Cr3   O18   S    
N48   H141  S    
C27   C39   A    
N2    H3    S    
N32   C104  S    
C28   C88   A    
N24   H47   S    
N37   C109  S    
C103  H76   S    
C76   C88   A    
C112  H111  S    
C111  H107  S    
C11   C31   S    
C17   C70   S    
N42   H117  S    
C12   C32   S    
C4    O16   A    
C6    O18   A    
C102  H72   S    
C88   N35   S    
C48   C60   A    
Cr3   O3    S    
N33   C105  S    
N35   C107  S    
N45   C117  S    
C110  H102  S    
C40   C52   A    
C106  H87   S    
C41   N5    S    
N28   C100  S    
C81   C93   A    
C36   C96   A    
Cr2   O14   S    
C26   C86   A    
C114  H120  S    
C83   C95   A    
N29   H65   S    
C64   C76   A    
Cr1   O1    S    
C74   C86   A    
C113  H115  S    
N48   C120  S    
N31   C103  S    
C111  H106  S    
C50   C62   A    
C118  H136  S    
N8    H16   S    
N34   H85   S    
C120  H144  S    
C23   C64   S    
C55   C67   A    
C38   C50   A    
C117  H132  S    
N22   H43   S    
C7    O11   A    
C107  H90   S    
C100  H63   S    
N5    H9    S    
Cr2   O2    S    
C98   H55   S    
N17   H34   S    
C58   N17   S    
C116  H126  S    
C43   N7    S    
C101  H68   S    
C89   N34   S    
C115  H124  S    
N30   H69   S    
C1    C27   S    
C2    C28   S    
C97   H50   S    
C57   C69   A    
N9    H17   S    
C4    C30   S    
C92   N25   S    
C59   C71   A    
N1    H2    S    
