data_mof_unit_40431.cif
_audit_creation_date              2012-12-10T19:25:05-0500
_audit_creation_method            fapswitch 2.2
_symmetry_space_group_name_H-M    P1
_symmetry_Int_Tables_number       1
_space_group_crystal_system       triclinic
_cell_length_a                    13.406906
_cell_length_b                    16.473781
_cell_length_c                    17.725528
_cell_angle_alpha                 91.098589
_cell_angle_beta                  91.750677
_cell_angle_gamma                 72.60448
_cell_volume                      3733.89945951

loop_
_atom_site_label
_atom_site_type_symbol
_atom_type_description
_atom_site_fract_x
_atom_site_fract_y
_atom_site_fract_z
_atom_type_partial_charge
C1    C     C_R   0.502423 0.500522 0.645470 0.850842
C2    C     C_R   0.978477 0.462181 0.497504 0.011747
C3    C     C_R   0.877629 0.474599 0.526628 0.020156
C4    C     C_R   0.033020 0.522021 0.516779 0.077562
C5    C     C_R   0.988537 0.589755 0.567863 0.100168
C6    C     C_R   0.896040 0.593527 0.603440 -0.268146
C7    C     C_R   0.843675 0.534154 0.586080 0.340832
C8    C     C_R   0.131631 0.515774 0.488293 -0.204782
C9    C     C_R   0.140457 0.639894 0.560116 -0.169890
C10   C     C_R   0.815297 0.425463 0.496583 -0.101722
C11   C     C_R   0.485913 0.420321 0.155149 -0.151587
C12   C     C_R   0.700697 0.454509 0.500901 0.870359
C13   C     C_R   0.495647 0.421786 0.233585 -0.150505
C14   C     C_R   0.492117 0.497971 0.272266 -0.053177
C15   C     C_R   0.478962 0.572578 0.231017 -0.157092
C16   C     C_R   0.469078 0.570938 0.152465 -0.151671
C17   C     C_R   0.472384 0.494866 0.114707 0.140738
C18   C     C_1   0.466462 0.492799 0.034190 -0.061214
C19   C     C_1   0.464742 0.492966 0.966534 -0.062748
C20   C     C_R   0.486967 0.421458 0.842274 0.094441
C21   C     C_R   0.497345 0.426570 0.764310 -0.218291
C22   C     C_R   0.499784 0.502166 0.729816 -0.104409
C23   C     C_R   0.498612 0.499475 0.355224 0.827710
C24   C     C_R   0.493156 0.575768 0.776290 0.071335
C25   C     C_R   0.460845 0.575332 0.851951 0.083985
C26   C     C_R   0.467625 0.496729 0.885603 0.048466
C27   C     C_R   0.438831 0.181075 0.455031 0.219973
C28   C     C_R   0.436909 0.267595 0.452374 0.487613
C29   C     C_R   0.565755 0.245186 0.550349 -0.083537
C30   C     C_R   0.570288 0.158634 0.554760 0.257326
C31   C     C_R   0.506421 0.125239 0.506535 -0.100263
C32   C     C_1   0.509541 0.034836 0.508928 0.175399
C33   C     C_1   0.509508 0.960389 0.508674 0.035622
C34   C     C_R   0.299669 0.545177 0.501091 0.845385
C35   C     C_R   0.433926 0.847820 0.459307 -0.270091
C36   C     C_R   0.431484 0.762685 0.456663 0.550340
C37   C     C_R   0.571963 0.723638 0.545625 -0.009787
C38   C     C_R   0.576518 0.808115 0.549678 -0.266775
C39   C     C_R   0.506729 0.871634 0.506198 0.064402
C40   C     C_R   0.041034 0.649619 0.587089 -0.162138
C41   C     C_R   0.187327 0.570772 0.513101 -0.050517
C42   C     C_R   0.860406 0.353587 0.451666 -0.199224
C43   C     C_R   0.965099 0.333167 0.431206 0.133500
C44   C     C_R   0.021893 0.389105 0.452024 -0.188365
Cu1   Cu    Cu3+1 0.500000 0.419580 0.500020 0.995914
Cu2   Cu    Cu3+1 0.500000 0.580420 0.499980 1.006002
H1    H     H_    0.183222 0.682839 0.579952 0.157240
H2    H     H_    0.505907 0.363245 0.263839 0.188885
H3    H     H_    0.475713 0.632104 0.259347 0.188241
H4    H     H_    0.459295 0.628794 0.121155 0.135082
H5    H     H_    0.505599 0.370555 0.729580 0.167221
H6    H     H_    0.615429 0.269733 0.587752 0.191037
H7    H     H_    0.867292 0.640020 0.647925 0.168623
H8    H     H_    0.379119 0.895131 0.424593 0.191000
H9    H     H_    0.626935 0.675868 0.579242 0.176692
H10   H     H_    0.634439 0.823486 0.586485 0.165103
H11   H     H_    0.007445 0.701412 0.626064 0.142392
H12   H     H_    0.169759 0.466731 0.448872 0.182210
H13   H     H_    0.811888 0.315804 0.430561 0.147754
H14   H     H_    0.101140 0.371967 0.433183 0.170168
H15   H     H_    0.489408 0.361100 0.126070 0.140672
N1    N     N_R   0.500030 0.298780 0.500030 -0.247130
N2    N     N_R   0.500020 0.701210 0.500010 -0.198479
O1    O     O_R   0.500010 0.432060 0.608760 -0.591605
O2    O     O_R   0.500000 0.567880 0.608730 -0.589194
O3    O     O_R   0.650990 0.398950 0.500000 -0.589617
O4    O     O_R   0.650980 0.534770 0.499970 -0.567213
O5    O     O_R   0.500000 0.432120 0.391270 -0.548736
O6    O     O_R   0.499990 0.567940 0.391240 -0.550431
O7    O     O_R   0.349020 0.465230 0.500030 -0.545324
O8    O     O_R   0.349010 0.601050 0.500000 -0.542393
C45   C     C_3   0.493238 0.337804 0.880782 -0.404984
C46   C     C_3   0.513277 0.258792 0.829094 -0.348815
C47   C     C_3   0.520115 0.179294 0.874289 -0.784730
H16   H     H_    0.585541 0.167314 0.916648 0.252186
H17   H     H_    0.445782 0.186864 0.903627 0.249346
H18   H     H_    0.534394 0.123436 0.835556 0.262663
H19   H     H_    0.448339 0.267846 0.786524 0.227183
H20   H     H_    0.588203 0.248474 0.799675 0.245056
H21   H     H_    0.557190 0.325405 0.924464 0.208864
H22   H     H_    0.418539 0.346027 0.909985 0.204623
C48   C     C_3   0.528466 0.650847 0.750571 -0.383078
C49   C     C_3   0.621765 0.660960 0.798914 -0.328512
C50   C     C_3   0.659631 0.733202 0.770219 -0.818501
H23   H     H_    0.686821 0.719879 0.711449 0.257175
H24   H     H_    0.595563 0.794242 0.771914 0.254403
H25   H     H_    0.725942 0.739467 0.806538 0.247819
H26   H     H_    0.601541 0.674225 0.858929 0.207419
H27   H     H_    0.687290 0.600838 0.796998 0.271839
H28   H     H_    0.556795 0.643629 0.693046 0.258680
H29   H     H_    0.461926 0.710260 0.750573 0.178939
C51   C     C_3   0.417909 0.657551 0.897780 -0.422773
C52   C     C_3   0.300851 0.674953 0.911933 -0.345672
C53   C     C_3   0.258669 0.754843 0.960340 -0.813381
H30   H     H_    0.300133 0.747077 0.016199 0.255874
H31   H     H_    0.268966 0.811135 0.931787 0.254203
H32   H     H_    0.174013 0.765953 0.969328 0.247927
H33   H     H_    0.256969 0.683544 0.856944 0.220353
H34   H     H_    0.286474 0.620632 0.941114 0.232345
H35   H     H_    0.462442 0.653185 0.952252 0.200357
H36   H     H_    0.425806 0.714322 0.869381 0.205450
Cl1   Cl    Cl    0.355834 0.142971 0.393786 -0.593631
Cl2   Cl    Cl    0.352023 0.334483 0.386289 -0.590995
Cl3   Cl    Cl    0.656411 0.094112 0.621555 -0.630536
Cl4   Cl    Cl    0.338835 0.738254 0.395505 -0.616723
C54   C     C_3   0.019551 0.255016 0.384548 -0.366079
C55   C     C_3   0.955034 0.193851 0.366134 -0.396236
C56   C     C_3   0.019489 0.115374 0.323261 -0.740985
H37   H     H_    0.045928 0.134208 0.269315 0.257651
H38   H     H_    0.088808 0.080102 0.357907 0.273798
H39   H     H_    0.970934 0.072548 0.310377 0.241571
H40   H     H_    0.928800 0.172801 0.419259 0.239130
H41   H     H_    0.885446 0.226519 0.330497 0.219880
H42   H     H_    0.043485 0.276518 0.330764 0.216593
H43   H     H_    0.091901 0.219290 0.416085 0.242638
Cl5   Cl    Cl    0.752419 0.523999 0.651799 -0.714418

loop_
_geom_bond_atom_site_label_1
_geom_bond_atom_site_label_2
_ccdc_geom_bond_type
C14   C23   S    
C52   C53   S    
C10   C42   A    
C46   C47   S    
C23   O6    A    
C2    C4    A    
C35   C36   A    
C50   H25   S    
C4    C8    A    
Cu1   Cu2   S    
C8    C41   A    
C33   C39   S    
C47   H17   S    
C54   H42   S    
C37   C38   A    
C50   H24   S    
C3    C7    A    
C30   C31   A    
C54   C55   S    
C15   C16   A    
Cu1   N1    S    
C56   H37   S    
C18   C19   T    
C55   H40   S    
C19   C26   S    
C24   C48   S    
C55   H41   S    
Cu2   O6    S    
C8    H12   S    
C49   C50   S    
C2    C44   A    
C16   C17   A    
C47   H18   S    
C1    O2    A    
C46   H19   S    
C13   C14   A    
C36   N2    A    
C52   H34   S    
C45   H22   S    
C49   H26   S    
Cu1   O7    S    
C1    C22   S    
C23   O5    A    
C35   H8    S    
C34   C41   S    
C37   N2    A    
C38   C39   A    
C49   H27   S    
C12   O4    A    
C47   H16   S    
C27   C31   A    
C24   C25   A    
Cu2   O2    S    
C45   C46   S    
C53   H32   S    
C25   C26   A    
C12   O3    A    
C9    C40   A    
C48   H29   S    
C43   C54   S    
C7    Cl5   S    
C35   C39   A    
C43   C44   A    
C29   C30   A    
C31   C32   S    
C55   C56   S    
Cu1   O5    S    
C17   C18   S    
C46   H20   S    
C50   H23   S    
C53   H31   S    
Cu2   O8    S    
C10   C12   S    
C51   H36   S    
C9    H1    S    
C22   C24   A    
C42   C43   A    
C6    H7    S    
C1    O1    A    
C21   H5    S    
C51   H35   S    
C34   O7    A    
C29   N1    A    
C11   C17   A    
C25   C51   S    
C40   H11   S    
Cu1   O1    S    
C36   Cl4   S    
C16   H4    S    
C4    C5    A    
C11   H15   S    
C42   H13   S    
C13   H2    S    
C6    C7    A    
Cu2   N2    S    
C27   Cl1   S    
C9    C41   A    
C48   H28   S    
C56   H39   S    
C54   H43   S    
C32   C33   T    
C2    C3    A    
Cu2   O4    S    
C45   H21   S    
C3    C10   A    
C11   C13   A    
C28   Cl2   S    
C5    C6    A    
C20   C26   A    
C44   H14   S    
C34   O8    A    
C51   C52   S    
C56   H38   S    
C15   H3    S    
C53   H30   S    
C37   H9    S    
C38   H10   S    
C20   C21   A    
C48   C49   S    
C5    C40   A    
C30   Cl3   S    
Cu1   O3    S    
C14   C15   A    
C20   C45   S    
C21   C22   A    
C52   H33   S    
C27   C28   A    
C29   H6    S    
C28   N1    A    
