data_mof_unit_48293.cif
_audit_creation_date              2012-12-10T20:48:48-0500
_audit_creation_method            fapswitch 2.2
_symmetry_space_group_name_H-M    P1
_symmetry_Int_Tables_number       1
_space_group_crystal_system       triclinic
_cell_length_a                    15.769246
_cell_length_b                    8.963186
_cell_length_c                    8.127101
_cell_angle_alpha                 90.201241
_cell_angle_beta                  89.41443
_cell_angle_gamma                 89.495701
_cell_volume                      1148.59433928

loop_
_atom_site_label
_atom_site_type_symbol
_atom_type_description
_atom_site_fract_x
_atom_site_fract_y
_atom_site_fract_z
_atom_type_partial_charge
C1    C     C_R   0.500030 0.217998 0.499816 0.925056
C2    C     C_3   0.051593 0.421111 0.365985 0.171008
C3    C     C_3   0.950050 0.468574 0.662179 0.266115
C4    C     C_3   0.953963 0.433507 0.352040 0.227715
C5    C     C_1   0.750591 0.506375 0.496854 -0.067230
C6    C     C_1   0.249526 0.515150 0.502470 -0.068504
C7    C     C_3   0.083112 0.537419 0.496271 -0.264489
C8    C     C_3   0.916772 0.532375 0.495287 -0.243253
C9    C     C_3   0.945472 0.704121 0.474941 0.317071
C10   C     C_3   0.049880 0.702367 0.446452 0.392241
C11   C     C_1   0.825446 0.517507 0.495288 0.242067
C12   C     C_1   0.174655 0.527922 0.501091 0.183178
C13   C     C_R   0.337920 0.501684 0.500829 0.883936
C14   C     C_R   0.662097 0.498620 0.499125 0.898728
C15   C     C_1   0.499933 0.934839 0.500257 -0.136232
C16   C     C_1   0.499971 0.065120 0.499738 -0.148035
C17   C     C_R   0.499922 0.781972 0.500183 0.955979
C18   C     C_3   0.046761 0.494100 0.670834 0.155097
H1    H     H_    0.079704 0.444328 0.243373 0.149871
H2    H     H_    0.929576 0.246740 0.239655 0.398137
H3    H     H_    0.113033 0.304766 0.676041 0.403073
H4    H     H_    0.135288 0.259046 0.366334 0.350760
H5    H     H_    0.054895 0.590277 0.750702 0.209182
H6    H     H_    0.939119 0.486683 0.233987 0.156045
H7    H     H_    0.919736 0.529169 0.766751 0.203227
H8    H     H_    0.228112 0.960527 0.529950 0.369729
H9    H     H_    0.072061 0.597834 0.021138 0.379164
H10   H     H_    0.860407 0.035721 0.698929 0.407405
H11   H     H_    0.818318 0.642817 0.148628 0.350603
H12   H     H_    0.968277 0.252774 0.629538 0.462605
N1    N     N_1   0.500000 0.500030 0.073640 -0.011764
N2    N     N_1   0.500000 0.500030 0.926360 -0.011731
O1    O     O_R   0.500000 0.285340 0.636850 -0.615579
O2    O     O_2   0.122580 0.812853 0.739973 -0.256069
O3    O     O_3   0.205308 0.869599 0.477454 -0.509607
O4    O     O_2   0.080143 0.907449 0.198588 -0.099733
O5    O     O_2   0.176103 0.696758 0.209846 -0.294091
O6    O     O_3   0.029584 0.655213 0.086142 -0.514720
O7    O     O_2   0.821171 0.760379 0.710035 -0.311193
O8    O     O_2   0.963716 0.797169 0.806485 -0.199999
O9    O     O_3   0.899060 0.993601 0.613537 -0.396314
O10   O     O_2   0.795058 0.828598 0.373572 -0.280575
O11   O     O_2   0.921511 0.944293 0.268218 -0.107971
O12   O     O_R   0.500000 0.285340 0.363150 -0.613832
O13   O     O_3   0.872014 0.698258 0.135345 -0.472672
O14   O     O_3   0.926859 0.318642 0.686649 -0.653689
O15   O     O_3   0.916398 0.291349 0.349113 -0.622375
O16   O     O_3   0.089334 0.378197 0.754916 -0.703055
O17   O     O_3   0.075802 0.274060 0.404686 -0.668150
O18   O     O_R   0.377140 0.500000 0.636930 -0.607982
O19   O     O_R   0.377140 0.500000 0.363070 -0.600198
O20   O     O_R   0.622860 0.500000 0.636930 -0.600238
O21   O     O_R   0.622860 0.500000 0.363070 -0.617244
O22   O     O_R   0.500000 0.714650 0.636900 -0.609595
O23   O     O_R   0.500000 0.714650 0.363100 -0.605369
O24   O     O_2   0.062727 0.994336 0.549112 -0.166785
S1    S     S_3+6 0.108245 0.847343 0.561747 0.125796
S2    S     S_3+6 0.084704 0.742827 0.232260 0.132326
S3    S     S_3+6 0.908135 0.811368 0.659070 0.115392
S4    S     S_3+6 0.883446 0.796339 0.310394 0.150704
Zn1   Zn    Zn3+2 0.500000 0.499990 0.682780 1.048286
Zn2   Zn    Zn3+2 0.500000 0.499990 0.317220 1.047772

loop_
_geom_bond_atom_site_label_1
_geom_bond_atom_site_label_2
_ccdc_geom_bond_type
O2    S1    D    
C2    C4    S    
O13   S4    S    
C10   S1    S    
C2    O17   S    
C7    C10   S    
C9    C10   S    
C17   O23   A    
C1    O12   A    
O5    S2    D    
C4    C8    S    
O3    S1    S    
C7    C18   S    
O7    S3    D    
H3    O16   S    
C1    O1    A    
C1    C16   S    
C13   O19   A    
C6    C13   S    
N1    Zn2   S    
C5    C14   S    
O19   Zn2   S    
O11   S4    D    
C8    C11   S    
C13   O18   A    
C10   S2    S    
O12   Zn2   S    
N2    Zn1   S    
C5    C11   T    
O4    S2    D    
O20   Zn1   S    
H4    O17   S    
C6    C12   T    
C7    C12   S    
C4    H6    S    
H12   O14   S    
H2    O15   S    
O22   Zn1   S    
H9    O6    S    
C15   C16   T    
O23   Zn2   S    
H8    O3    S    
C3    H7    S    
C14   O21   A    
O24   S1    D    
O9    S3    S    
C3    C18   S    
O1    Zn1   S    
C3    C8    S    
O21   Zn2   S    
O10   S4    D    
C15   C17   S    
O18   Zn1   S    
C3    O14   S    
C2    C7    S    
O8    S3    D    
C2    H1    S    
O6    S2    S    
C17   O22   A    
C4    O15   S    
N1    N2    T    
C14   O20   A    
H10   O9    S    
C18   H5    S    
H11   O13   S    
C8    C9    S    
C9    S3    S    
C9    S4    S    
C18   O16   S    
