data_mof_unit_56017.cif
_audit_creation_date              2012-12-10T18:04:40-0500
_audit_creation_method            fapswitch 2.2
_symmetry_space_group_name_H-M    P1
_symmetry_Int_Tables_number       1
_space_group_crystal_system       triclinic
_cell_length_a                    19.587665
_cell_length_b                    17.610247
_cell_length_c                    12.600029
_cell_angle_alpha                 89.97142
_cell_angle_beta                  98.847761
_cell_angle_gamma                 89.911814
_cell_volume                      4294.57457999

loop_
_atom_site_label
_atom_site_type_symbol
_atom_type_description
_atom_site_fract_x
_atom_site_fract_y
_atom_site_fract_z
_atom_type_partial_charge
C1    C     C_R   0.410588 0.102288 0.443643 0.855908
C2    C     C_R   0.764142 0.761422 0.650439 0.136636
C3    C     C_3   0.295023 0.204060 0.010632 -0.882505
C4    C     C_3   0.635355 0.320014 0.349080 -0.430690
C5    C     C_3   0.612787 0.371136 0.436246 -0.322202
C6    C     C_3   0.534794 0.384103 0.416727 -0.887551
C7    C     C_3   0.634752 0.672630 0.353737 -0.431487
C8    C     C_3   0.615677 0.621476 0.443541 -0.322967
C9    C     C_3   0.538809 0.602288 0.424907 -0.889221
C10   C     C_3   0.135347 0.820075 0.349153 -0.430684
C11   C     C_3   0.112803 0.871152 0.436389 -0.322190
C12   C     C_3   0.034824 0.884212 0.416845 -0.887598
C13   C     C_R   0.264273 0.738467 0.650482 0.136770
C14   C     C_3   0.134754 0.172645 0.353699 -0.431492
C15   C     C_3   0.115664 0.121495 0.443496 -0.322960
C16   C     C_3   0.038791 0.102332 0.424856 -0.889200
C17   C     C_3   0.723147 0.943601 0.334966 -0.788920
C18   C     C_3   0.223142 0.443614 0.334977 -0.788879
C19   C     C_R   0.264134 0.261409 0.650440 0.136620
C20   C     C_R   0.333577 0.760226 0.669057 -0.258022
C21   C     C_R   0.333753 0.240632 0.668004 -0.257792
C22   C     C_R   0.833557 0.260264 0.669075 -0.258022
C23   C     C_R   0.833762 0.740650 0.667999 -0.257796
C24   C     C_R   0.364949 0.785578 0.584466 -0.187875
C25   C     C_R   0.364690 0.214954 0.583198 -0.188051
C26   C     C_R   0.864938 0.285598 0.584485 -0.187875
C27   C     C_R   0.410693 0.897687 0.443742 0.854536
C28   C     C_R   0.864695 0.714962 0.583192 -0.188048
C29   C     C_R   0.673483 0.193463 0.515718 -0.267968
C30   C     C_R   0.670635 0.802717 0.516716 -0.268782
C31   C     C_R   0.173474 0.693475 0.515718 -0.268031
C32   C     C_R   0.170632 0.302715 0.516715 -0.268771
C33   C     C_R   0.669833 0.165762 0.702433 -0.250505
C34   C     C_R   0.670469 0.835352 0.702682 -0.249580
C35   C     C_R   0.169850 0.665736 0.702430 -0.250509
C36   C     C_R   0.170465 0.335345 0.702684 -0.249580
C37   C     C_R   0.354041 0.845952 0.407459 -0.114943
C38   C     C_R   0.910588 0.602288 0.443643 0.855909
C39   C     C_R   0.353562 0.153753 0.407136 -0.116444
C40   C     C_R   0.854045 0.345944 0.407461 -0.114936
C41   C     C_R   0.853560 0.653749 0.407137 -0.116440
C42   C     C_R   0.642220 0.003005 0.130841 -0.354814
C43   C     C_R   0.142220 0.503017 0.130841 -0.354823
C44   C     C_R   0.378891 0.999500 0.762544 0.024513
C45   C     C_R   0.878891 0.499493 0.762544 0.024518
C46   C     C_R   0.353059 0.999510 0.859009 -0.277674
C47   C     C_R   0.853059 0.499494 0.859008 -0.277645
C48   C     C_R   0.590150 0.898845 0.557221 0.870584
C49   C     C_R   0.910694 0.397686 0.443742 0.854541
C50   C     C_R   0.590391 0.100844 0.557245 0.869815
C51   C     C_R   0.090150 0.398846 0.557222 0.870584
C52   C     C_R   0.090391 0.600844 0.557244 0.869828
C53   C     C_R   0.398920 1.000000 0.954865 -0.187715
C54   C     C_R   0.898920 0.499983 0.954865 -0.187725
C55   C     C_R   0.471130 0.000500 0.953962 0.032826
C56   C     C_R   0.971130 0.500493 0.953962 0.032823
C57   C     C_R   0.494595 0.000532 0.853476 0.234445
C58   C     C_R   0.994595 0.500530 0.853476 0.234446
C59   C     C_R   0.520839 0.000905 0.047952 -0.011280
C60   C     C_R   0.728690 0.241548 0.543395 0.037923
C61   C     C_R   0.020839 0.500901 0.047952 -0.011280
C62   C     C_R   0.592407 0.002243 0.039325 0.161326
C63   C     C_R   0.092407 0.502248 0.039325 0.161332
C64   C     C_R   0.613795 0.002444 0.939383 -0.299417
C65   C     C_R   0.113795 0.502450 0.939383 -0.299416
C66   C     C_R   0.565358 0.001124 0.847737 -0.229239
C67   C     C_R   0.065358 0.501127 0.847737 -0.229239
C68   C     C_R   0.502638 0.000037 0.150864 -0.119388
C69   C     C_R   0.002638 0.500030 0.150864 -0.119392
C70   C     C_R   0.621064 0.000686 0.230970 0.362160
C71   C     C_R   0.727358 0.756312 0.544166 0.034991
C72   C     C_R   0.121064 0.500696 0.230969 0.362157
C73   C     C_R   0.731396 0.206122 0.732650 0.106372
C74   C     C_R   0.732070 0.794901 0.732672 0.106191
C75   C     C_R   0.231417 0.706089 0.732644 0.106357
C76   C     C_R   0.232062 0.294886 0.732674 0.106188
C77   C     C_R   0.644027 0.155550 0.593426 -0.076659
C78   C     C_R   0.643193 0.843413 0.593864 -0.076235
C79   C     C_R   0.144030 0.655547 0.593425 -0.076651
C80   C     C_R   0.143192 0.343412 0.593865 -0.076237
C81   C     C_R   0.317386 0.856128 0.304249 -0.221252
C82   C     C_R   0.228694 0.741544 0.543397 0.037915
C83   C     C_R   0.316605 0.142982 0.304324 -0.220508
C84   C     C_R   0.817402 0.356098 0.304239 -0.221294
C85   C     C_R   0.816596 0.642967 0.304331 -0.220500
C86   C     C_R   0.247735 0.838288 0.283466 -0.200071
C87   C     C_R   0.246558 0.159316 0.284547 -0.198291
C88   C     C_R   0.747756 0.338241 0.283437 -0.200088
C89   C     C_R   0.746548 0.659297 0.284563 -0.198284
C90   C     C_R   0.213778 0.809145 0.364888 0.109376
C91   C     C_R   0.212577 0.187277 0.366752 0.107069
C92   C     C_R   0.713790 0.309107 0.364855 0.109392
C93   C     C_R   0.227354 0.256308 0.544163 0.034986
C94   C     C_R   0.712572 0.687267 0.366770 0.107064
C95   C     C_R   0.254905 0.783463 0.463044 0.059045
C96   C     C_R   0.253742 0.214347 0.463896 0.061694
C97   C     C_R   0.754907 0.283453 0.463035 0.059018
C98   C     C_R   0.753743 0.714345 0.463902 0.061697
C99   C     C_R   0.325333 0.803567 0.484068 0.061557
C100  C     C_R   0.324643 0.195882 0.483756 0.063709
C101  C     C_R   0.825332 0.303569 0.484073 0.061564
C102  C     C_R   0.824645 0.695883 0.483756 0.063701
C103  C     C_3   0.761131 0.211531 0.850915 -0.439079
C104  C     C_R   0.764257 0.238494 0.650489 0.136727
C105  C     C_3   0.760020 0.293840 0.890926 -0.335653
C106  C     C_3   0.792719 0.300155 0.008553 -0.885625
C107  C     C_3   0.762808 0.790861 0.850695 -0.439258
C108  C     C_3   0.762587 0.708981 0.892749 -0.335916
C109  C     C_3   0.795019 0.704145 0.010677 -0.882455
C110  C     C_3   0.261153 0.711495 0.850908 -0.439100
C111  C     C_3   0.260064 0.793806 0.890911 -0.335656
C112  C     C_3   0.292607 0.800088 0.008613 -0.885589
C113  C     C_3   0.262793 0.290826 0.850700 -0.439248
C114  C     C_3   0.262542 0.208941 0.892730 -0.335888
H1    H     H_    0.645213 0.137644 0.762998 0.158434
H2    H     H_    0.950000 0.499305 0.165765 0.134950
H3    H     H_    0.247784 0.438356 0.420101 0.250109
H4    H     H_    0.263546 0.458990 0.285869 0.218421
H5    H     H_    0.200492 0.387823 0.307825 0.241546
H6    H     H_    0.343730 0.999132 0.687409 0.144107
H7    H     H_    0.843730 0.499124 0.687408 0.144106
H8    H     H_    0.376310 0.000099 0.027581 0.128145
H9    H     H_    0.876309 0.500074 0.027581 0.128145
H10   H     H_    0.297842 0.999158 0.859554 0.144904
H11   H     H_    0.797842 0.499134 0.859553 0.144898
H12   H     H_    0.584874 0.000496 0.773365 0.213561
H13   H     H_    0.084874 0.500499 0.773365 0.213559
H14   H     H_    0.365395 0.753158 0.746471 0.156665
H15   H     H_    0.646918 0.865161 0.763013 0.157693
H16   H     H_    0.366133 0.248892 0.744641 0.156143
H17   H     H_    0.865368 0.253219 0.746500 0.156706
H18   H     H_    0.866145 0.748919 0.744630 0.156131
H19   H     H_    0.657910 0.179434 0.432375 0.159408
H20   H     H_    0.652257 0.813952 0.433410 0.170356
H21   H     H_    0.157878 0.679473 0.432370 0.159430
H22   H     H_    0.152253 0.313951 0.433411 0.170352
H23   H     H_    0.339716 0.887415 0.243963 0.159435
H24   H     H_    0.339123 0.112041 0.243886 0.158325
H25   H     H_    0.839737 0.387379 0.243950 0.159455
H26   H     H_    0.145236 0.637610 0.762995 0.158427
H27   H     H_    0.839110 0.612020 0.243896 0.158308
H28   H     H_    0.218918 0.855140 0.206701 0.138977
H29   H     H_    0.217619 0.141776 0.208270 0.138607
H30   H     H_    0.718947 0.355071 0.206656 0.138998
H31   H     H_    0.717604 0.641746 0.208294 0.138603
H32   H     H_    0.420309 0.794283 0.599818 0.161897
H33   H     H_    0.420181 0.206915 0.597594 0.160539
H34   H     H_    0.920299 0.294302 0.599848 0.161914
H35   H     H_    0.920186 0.706923 0.597582 0.160535
H36   H     H_    0.764343 0.264244 0.059636 0.264037
H37   H     H_    0.146915 0.365153 0.763016 0.157694
H38   H     H_    0.847670 0.281969 0.018885 0.265546
H39   H     H_    0.790587 0.360112 0.035143 0.240032
H40   H     H_    0.788666 0.331627 0.842643 0.229837
H41   H     H_    0.705678 0.314185 0.882188 0.218958
H42   H     H_    0.730606 0.176117 0.899698 0.200387
H43   H     H_    0.814440 0.188172 0.864989 0.194323
H44   H     H_    0.849609 0.723426 0.021095 0.264792
H45   H     H_    0.765718 0.739846 0.060787 0.264793
H46   H     H_    0.793968 0.644353 0.038418 0.240119
H47   H     H_    0.708493 0.688046 0.884168 0.219470
H48   H     H_    0.668222 0.003135 0.931897 0.147903
H49   H     H_    0.791866 0.670982 0.845602 0.230051
H50   H     H_    0.815961 0.814462 0.863226 0.193563
H51   H     H_    0.732491 0.826719 0.899328 0.201770
H52   H     H_    0.264060 0.764278 0.059580 0.263991
H53   H     H_    0.347523 0.781756 0.019163 0.265561
H54   H     H_    0.290561 0.860062 0.035162 0.240042
H55   H     H_    0.288829 0.831552 0.842751 0.229843
H56   H     H_    0.205735 0.814219 0.881987 0.218986
H57   H     H_    0.230615 0.676092 0.899688 0.200458
H58   H     H_    0.314457 0.688124 0.864987 0.194275
H59   H     H_    0.168221 0.503146 0.931897 0.147902
H60   H     H_    0.349639 0.223244 0.020980 0.264800
H61   H     H_    0.265805 0.239816 0.060792 0.264815
H62   H     H_    0.293898 0.144272 0.038371 0.240099
H63   H     H_    0.208435 0.188049 0.884204 0.219461
H64   H     H_    0.291773 0.170926 0.845525 0.230049
H65   H     H_    0.315953 0.314409 0.863249 0.193581
H66   H     H_    0.232482 0.326690 0.899338 0.201737
H67   H     H_    0.518876 0.413114 0.338517 0.259882
H68   H     H_    0.507121 0.329075 0.416860 0.262848
H69   H     H_    0.519984 0.420336 0.481598 0.248965
H70   H     H_    0.696733 0.005206 0.124425 0.152147
H71   H     H_    0.626935 0.345213 0.516864 0.230269
H72   H     H_    0.639325 0.426866 0.436346 0.218958
H73   H     H_    0.617656 0.348188 0.270578 0.195514
H74   H     H_    0.606490 0.266047 0.342610 0.195347
H75   H     H_    0.507398 0.655059 0.421851 0.263428
H76   H     H_    0.525028 0.570535 0.348482 0.261677
H77   H     H_    0.526513 0.566387 0.491884 0.248847
H78   H     H_    0.645991 0.567911 0.446611 0.217214
H79   H     H_    0.627947 0.649906 0.522676 0.230260
H80   H     H_    0.603495 0.725076 0.346418 0.193440
H81   H     H_    0.196733 0.505225 0.124426 0.152144
H82   H     H_    0.617467 0.642779 0.276477 0.197222
H83   H     H_    0.018959 0.913336 0.338706 0.259889
H84   H     H_    0.007094 0.829211 0.416804 0.262864
H85   H     H_    0.020029 0.920378 0.481799 0.248963
H86   H     H_    0.126904 0.845150 0.516965 0.230275
H87   H     H_    0.139397 0.926855 0.436612 0.218945
H88   H     H_    0.117646 0.848296 0.270686 0.195550
H89   H     H_    0.106470 0.766115 0.342629 0.195299
H90   H     H_    0.007394 0.155113 0.421793 0.263426
H91   H     H_    0.025006 0.070578 0.348434 0.261651
H92   H     H_    0.450000 0.999318 0.165765 0.134950
H93   H     H_    0.026483 0.066440 0.491835 0.248863
H94   H     H_    0.145964 0.067920 0.446560 0.217234
H95   H     H_    0.127940 0.149919 0.522634 0.230260
H96   H     H_    0.103501 0.225094 0.346364 0.193440
H97   H     H_    0.117478 0.142792 0.276438 0.197218
H98   H     H_    0.690258 0.055051 0.344614 0.213794
H99   H     H_    0.747787 0.938336 0.420090 0.250115
H100  H     H_    0.763552 0.958991 0.285867 0.218429
H101  H     H_    0.700502 0.887812 0.307798 0.241553
H102  H     H_    0.190262 0.555069 0.344596 0.213795
N1    N     N_R   0.552340 0.000000 0.237260 -0.121171
N2    N     N_R   0.052340 0.500000 0.237260 -0.121165
N3    N     N_R   0.448170 0.000000 0.762060 -0.132056
N4    N     N_R   0.948170 0.500000 0.762060 -0.132057
N5    N     N_2   0.670204 0.001715 0.326411 -0.253228
N6    N     N_2   0.170203 0.501733 0.326410 -0.253225
O1    O     O_R   0.448200 0.076800 0.373930 -0.616983
O2    O     O_R   0.585240 0.076800 0.457600 -0.611355
O3    O     O_R   0.085240 0.423200 0.457600 -0.584493
O4    O     O_R   0.085240 0.576800 0.457600 -0.611338
O5    O     O_R   0.551780 0.923190 0.626070 -0.644595
O6    O     O_R   0.551780 0.076810 0.626070 -0.642101
O7    O     O_R   0.051780 0.423190 0.626070 -0.644596
O8    O     O_R   0.051780 0.576810 0.626070 -0.642103
O9    O     O_R   0.448200 0.923200 0.373930 -0.617045
O10   O     O_R   0.948200 0.576800 0.373930 -0.616983
O11   O     O_R   0.948200 0.423200 0.373930 -0.617048
O12   O     O_R   0.414750 0.076790 0.542400 -0.610067
O13   O     O_R   0.414750 0.923210 0.542400 -0.611567
O14   O     O_R   0.914750 0.576790 0.542400 -0.610063
O15   O     O_R   0.914750 0.423210 0.542400 -0.611577
O16   O     O_R   0.585240 0.923200 0.457600 -0.584490
Zn1   Zn    Zn3+2 0.522330 0.000000 0.387520 0.942025
Zn2   Zn    Zn3+2 0.022330 0.500000 0.387520 0.942029
Zn3   Zn    Zn3+2 0.477660 0.000000 0.612480 0.921106
Zn4   Zn    Zn3+2 0.977660 0.500000 0.612480 0.921105

loop_
_geom_bond_atom_site_label_1
_geom_bond_atom_site_label_2
_ccdc_geom_bond_type
C56   C61   A    
C18   N6    S    
C29   H19   S    
C54   H9    S    
C107  H51   S    
C69   H2    S    
C43   C72   A    
C106  H36   S    
C55   C59   A    
C22   H17   S    
C51   O7    A    
C24   C99   A    
C40   C84   A    
C50   O6    A    
C111  C112  S    
N2    Zn2   S    
C57   C66   A    
C16   H93   S    
C37   C81   A    
C63   C65   A    
C30   C71   A    
C43   C63   A    
C90   C95   A    
C94   C98   A    
C41   C102  A    
C25   C100  A    
C89   H31   S    
C17   H99   S    
C49   O15   A    
C35   C75   A    
C31   C82   A    
O15   Zn4   S    
C6    H68   S    
C4    H73   S    
C43   H81   S    
C19   C76   A    
C19   C21   A    
O11   Zn2   S    
C114  H64   S    
C20   H14   S    
C87   C91   A    
C53   H8    S    
C26   C101  A    
C38   O14   A    
C5    C6    S    
C59   C68   A    
C95   C99   A    
C75   C110  S    
C74   C107  S    
C44   H6    S    
C48   C78   S    
C15   C16   S    
C112  H54   S    
C42   C70   A    
C70   N5    S    
C22   C104  A    
C108  C109  S    
C46   C53   A    
C52   O4    A    
O9    Zn1   S    
C11   H87   S    
O14   Zn4   S    
C89   C94   A    
C61   C63   A    
C20   C24   A    
C51   C80   S    
O13   Zn3   S    
C62   C64   A    
C36   C76   A    
C91   C96   A    
C11   H86   S    
C58   N4    A    
C73   C104  A    
O6    Zn3   S    
C88   C92   A    
C34   H15   S    
C88   H30   S    
C8    C9    S    
C65   C67   A    
C51   O3    A    
C49   O11   A    
C107  C108  S    
C5    H71   S    
C52   C79   S    
C10   H89   S    
C18   H4    S    
C15   H94   S    
C19   C93   A    
C27   O13   A    
C42   C62   A    
C110  H57   S    
C106  H39   S    
C53   C55   A    
C32   C93   A    
C40   C101  A    
C112  H52   S    
C28   H35   S    
C18   H5    S    
C46   H10   S    
C44   N3    A    
C5    H72   S    
C9    H75   S    
C109  H44   S    
C108  H49   S    
C44   C46   A    
C92   C97   A    
C47   H11   S    
H98   N5    S    
C45   C47   A    
C21   H16   S    
C71   C98   A    
C54   C56   A    
C33   H1    S    
C70   N1    A    
O4    Zn2   S    
C14   H96   S    
C6    H67   S    
C69   N2    A    
C13   C75   A    
C7    C8    S    
C106  H38   S    
C84   H25   S    
C38   C41   S    
C64   H48   S    
C16   H91   S    
C36   C80   A    
C85   H27   S    
C110  C111  S    
C32   H22   S    
C48   O5    A    
C85   C89   A    
C103  H43   S    
C38   O10   A    
C57   N3    A    
C45   H7    S    
C98   C102  A    
C112  H53   S    
N4    Zn4   S    
C13   C82   A    
N3    Zn3   S    
C111  H55   S    
C64   C66   A    
C81   H23   S    
O8    Zn4   S    
C67   H13   S    
C35   H26   S    
C32   C80   A    
C58   C67   A    
C3    H60   S    
C29   C60   A    
C1    O12   A    
C12   H83   S    
C114  H63   S    
C72   N6    S    
C76   C113  S    
C8    H79   S    
C103  C105  S    
C23   C28   A    
C7    H80   S    
C26   H34   S    
C10   H88   S    
C18   H3    S    
O1    Zn1   S    
C2    C71   A    
C34   C74   A    
C47   C54   A    
C14   H97   S    
C33   C73   A    
C105  H41   S    
C60   C97   A    
C93   C96   A    
C55   C57   A    
C86   C90   A    
C9    H76   S    
C109  H45   S    
C50   C77   S    
C37   C99   A    
C72   N2    A    
C86   H28   S    
C3    H61   S    
C113  C114  S    
C105  C106  S    
C61   C69   A    
O3    Zn2   S    
C7    C94   S    
C21   C25   A    
O16   Zn1   S    
C59   C62   A    
C82   C95   A    
C13   C20   A    
C65   H59   S    
C14   C15   S    
C81   C86   A    
C4    C5    S    
C3    C114  S    
C2    C74   A    
C83   C87   A    
O5    Zn3   S    
C48   O16   A    
C11   C12   S    
C36   H37   S    
C31   C79   A    
C41   C85   A    
C108  H47   S    
C28   C102  A    
C9    H77   S    
C6    H69   S    
C1    O1    A    
C111  H56   S    
C42   H70   S    
C30   H20   S    
C4    H74   S    
C113  H65   S    
C17   H100  S    
C68   N1    A    
C39   C83   A    
C3    H62   S    
C15   H95   S    
C17   H101  S    
C34   C78   A    
C68   H92   S    
O7    Zn4   S    
C52   O8    A    
C39   C100  A    
C84   C88   A    
C27   C37   S    
C96   C100  A    
C50   O2    A    
C35   C79   A    
C12   H85   S    
C56   C58   A    
C23   H18   S    
C105  H40   S    
C8    H78   S    
O2    Zn1   S    
H102  N6    S    
C14   C91   S    
C31   H21   S    
C17   N5    S    
C10   C11   S    
C1    C39   S    
O12   Zn3   S    
C27   O9    A    
C30   C78   A    
C66   H12   S    
C103  H42   S    
C73   C103  S    
C113  H66   S    
C29   C77   A    
C107  H50   S    
C10   C90   S    
C22   C26   A    
C2    C23   A    
O10   Zn2   S    
C45   N4    A    
C12   H84   S    
N1    Zn1   S    
C24   H32   S    
C87   H29   S    
C7    H82   S    
C60   C104  A    
C109  H46   S    
C16   H90   S    
C33   C77   A    
C83   H24   S    
C97   C101  A    
C40   C49   S    
C25   H33   S    
C4    C92   S    
C110  H58   S    
