data_mof_unit_15086.cif
_audit_creation_date              2012-10-26T21:17:41-0400
_audit_creation_method            fapswitch 2.2
_symmetry_space_group_name_H-M    P1
_symmetry_Int_Tables_number       1
_space_group_crystal_system       triclinic
_cell_length_a                    10.801962
_cell_length_b                    9.093751
_cell_length_c                    7.795113
_cell_angle_alpha                 90.042058
_cell_angle_beta                  89.999943
_cell_angle_gamma                 89.999951
_cell_volume                      765.716493338

loop_
_atom_site_label
_atom_site_type_symbol
_atom_type_description
_atom_site_fract_x
_atom_site_fract_y
_atom_site_fract_z
_atom_type_partial_charge
C1    C     C_R   0.500000 0.220057 0.499955 0.533026
C2    C     C_R   0.065467 0.374769 0.594867 0.025296
C3    C     C_R   0.128599 0.484231 0.499977 0.004911
C4    C     C_R   0.871401 0.484230 0.499976 0.004911
C5    C     C_R   0.063829 0.586265 0.401069 -0.146857
C6    C     C_R   0.936171 0.586264 0.401068 -0.146858
C7    C     C_1   0.500000 0.065396 0.499993 -0.058156
C8    C     C_1   0.500000 0.934639 0.500087 -0.053797
C9    C     C_R   0.500000 0.779948 0.500026 0.552292
C10   C     C_R   0.262021 0.494605 0.500063 0.530154
C11   C     C_R   0.737979 0.494605 0.500063 0.530155
C12   C     C_R   0.129144 0.262537 0.684347 -0.100195
C13   C     C_R   0.870855 0.262534 0.684343 -0.100193
C14   C     C_R   0.064365 0.154465 0.773858 -0.117944
C15   C     C_R   0.935633 0.154463 0.773855 -0.117944
C16   C     C_R   0.934532 0.374768 0.594866 0.025297
Cu1   Cu    Cu3+1 0.500000 0.500000 0.669080 1.006947
Cu2   Cu    Cu3+1 0.500000 0.500000 0.330920 1.019518
H1    H     H_    0.228970 0.254958 0.683530 0.138314
H2    H     H_    0.771029 0.254952 0.683521 0.138312
H3    H     H_    0.114305 0.069192 0.841627 0.121479
H4    H     H_    0.885692 0.069188 0.841622 0.121479
H5    H     H_    0.112508 0.668657 0.326599 0.130311
H6    H     H_    0.887493 0.668656 0.326599 0.130311
N1    N     N_1   0.500000 0.500000 0.076820 -0.079131
N2    N     N_1   0.500000 0.500000 0.923180 -0.080443
O1    O     O_R   0.500000 0.288390 0.642760 -0.514143
O2    O     O_R   0.500000 0.711610 0.642760 -0.492295
O3    O     O_R   0.500000 0.288370 0.357190 -0.493287
O4    O     O_R   0.500000 0.711630 0.357190 -0.495966
O5    O     O_R   0.319650 0.500000 0.642810 -0.507308
O6    O     O_R   0.680350 0.500000 0.642810 -0.507306
O7    O     O_R   0.319630 0.500000 0.357240 -0.500444
O8    O     O_R   0.680370 0.500000 0.357240 -0.500444

loop_
_geom_bond_atom_site_label_1
_geom_bond_atom_site_label_2
_ccdc_geom_bond_type
C4    C16   A    
Cu2   O4    S    
C2    C16   A    
C5    H5    S    
C2    C12   A    
C1    O3    A    
C2    C3    A    
C6    H6    S    
C7    C8    T    
C1    O1    A    
C3    C10   S    
C4    C11   S    
Cu2   O8    S    
Cu2   N1    S    
C9    O4    A    
Cu1   N2    S    
C14   H3    S    
C11   O8    A    
C12   C14   A    
C11   O6    A    
Cu1   Cu2   S    
C10   O7    A    
C13   C15   A    
C5    C6    A    
Cu1   O5    S    
Cu2   O7    S    
Cu1   O1    S    
C12   H1    S    
C4    C6    A    
C13   C16   A    
Cu2   O3    S    
Cu1   O6    S    
C14   C15   A    
C13   H2    S    
N1    N2    T    
C1    C7    S    
Cu1   O2    S    
C10   O5    A    
C15   H4    S    
C9    O2    A    
C8    C9    S    
C3    C5    A    
