data_mof_unit_51151.cif
_audit_creation_date              2012-12-10T18:47:04-0500
_audit_creation_method            fapswitch 2.2
_symmetry_space_group_name_H-M    P1
_symmetry_Int_Tables_number       1
_space_group_crystal_system       triclinic
_cell_length_a                    10.799142
_cell_length_b                    9.813678
_cell_length_c                    14.924161
_cell_angle_alpha                 89.829954
_cell_angle_beta                  90.953954
_cell_angle_gamma                 90.284457
_cell_volume                      1581.40687549

loop_
_atom_site_label
_atom_site_type_symbol
_atom_type_description
_atom_site_fract_x
_atom_site_fract_y
_atom_site_fract_z
_atom_type_partial_charge
C1    C     C_R   0.259505 0.499193 0.502187 1.045862
C2    C     C_R   0.740073 0.499997 0.500776 1.058962
C3    C     C_R   0.278040 0.452060 0.036974 -0.124791
C4    C     C_R   0.731688 0.503918 0.963584 -0.119799
C5    C     C_R   0.059610 0.371460 0.505808 0.300278
C6    C     C_R   0.938700 0.619384 0.484587 0.290565
C7    C     C_R   0.935606 0.377915 0.528033 0.309613
C8    C     C_R   0.061938 0.622246 0.509738 0.279398
C9    C     C_R   0.872258 0.499185 0.504384 -0.389278
C10   C     C_R   0.126538 0.497097 0.506278 -0.392639
C11   C     C_R   0.505844 0.071603 0.578688 0.031565
C12   C     C_R   0.494115 0.928362 0.421314 0.018940
C13   C     C_R   0.494350 0.072183 0.421314 -0.021122
C14   C     C_R   0.506014 0.927790 0.578684 0.010494
C15   C     C_R   0.492168 0.500255 0.326974 0.991303
C16   C     C_R   0.511457 0.500307 0.672825 0.989688
C17   C     C_R   0.623773 0.530188 0.818691 0.376619
C18   C     C_R   0.379407 0.504171 0.181093 0.366972
C19   C     C_R   0.514904 0.500356 0.768532 -0.197886
C20   C     C_R   0.490810 0.500261 0.231354 -0.194145
C21   C     C_R   0.404685 0.464444 0.809454 -0.232667
C22   C     C_R   0.605203 0.489082 0.190978 -0.244084
C23   C     C_R   0.397481 0.462202 0.901953 0.053206
C24   C     C_R   0.612737 0.487530 0.098451 0.050982
C25   C     C_R   0.507348 0.480535 0.953317 -0.003433
C26   C     C_R   0.501909 0.480481 0.046920 0.000179
C27   C     C_R   0.622106 0.504512 0.911380 -0.054275
C28   C     C_R   0.385231 0.478483 0.088758 -0.052047
C29   C     C_R   0.283491 0.442209 0.944407 0.265535
C30   C     C_R   0.727914 0.492922 0.056160 0.263008
H1    H     H_    0.323476 0.444466 0.767825 0.210525
H2    H     H_    0.688009 0.486918 0.232886 0.222967
H3    H     H_    0.189189 0.436490 0.067767 0.245481
H4    H     H_    0.821711 0.510053 0.933283 0.248975
H5    H     H_    0.510576 0.125353 0.641730 0.133345
H6    H     H_    0.489152 0.874574 0.358281 0.151260
H7    H     H_    0.489572 0.126379 0.358247 0.145222
H8    H     H_    0.510905 0.873603 0.641748 0.158518
N1    N     N_R   0.500000 0.857200 0.500000 -0.076992
N2    N     N_R   0.500000 0.142800 0.500000 -0.075308
O1    O     O_R   0.316770 0.614620 0.499990 -0.551386
O2    O     O_R   0.683230 0.385380 0.500010 -0.576706
O3    O     O_R   0.683230 0.614620 0.500010 -0.553874
O4    O     O_R   0.316770 0.385380 0.499990 -0.561116
O5    O     O_R   0.499980 0.614680 0.367850 -0.596162
O6    O     O_R   0.500020 0.385320 0.632150 -0.641501
O7    O     O_R   0.500020 0.614680 0.632150 -0.590194
O8    O     O_R   0.499980 0.385320 0.367850 -0.639800
Zn1   Zn    Zn3+2 0.500000 0.653120 0.500000 1.093038
Zn2   Zn    Zn3+2 0.500000 0.346880 0.500000 1.067964
S1    S     S_3+6 0.755605 0.613869 0.771363 0.047079
O9    O     O_2   0.800240 0.722345 0.835307 -0.256752
O10   O     O_2   0.857934 0.512781 0.759480 -0.227240
O11   O     O_3   0.724848 0.690022 0.672921 -0.550866
H9    H     H_    0.803140 0.736007 0.656549 0.413827
S2    S     S_3+6 0.237570 0.557100 0.229865 0.044384
O12   O     O_2   0.163623 0.639244 0.162899 -0.235369
O13   O     O_2   0.163783 0.433803 0.256370 -0.241396
O14   O     O_3   0.262829 0.655802 0.319864 -0.555473
H10   H     H_    0.179638 0.686994 0.337157 0.411418
Br1   Br    Br    0.130361 0.408685 0.880170 -0.344561
Br2   Br    Br    0.883581 0.492953 0.120684 -0.321578
S3    S     S_3+6 0.120730 0.210246 0.471289 0.156442
O15   O     O_2   0.195123 0.149127 0.547232 -0.237391
O16   O     O_2   0.018340 0.113536 0.445093 -0.144506
O17   O     O_3   0.211726 0.229380 0.381694 -0.503558
H11   H     H_    0.234560 0.135558 0.364397 0.379156
S4    S     S_3+6 0.878049 0.756329 0.418203 0.121324
O18   O     O_2   0.809153 0.853514 0.476697 -0.219095
O19   O     O_2   0.980938 0.831878 0.372844 -0.199379
O20   O     O_3   0.781070 0.694253 0.338778 -0.564943
H12   H     H_    0.739243 0.775174 0.312778 0.380912
S5    S     S_3+6 0.868390 0.242305 0.592349 0.144377
O21   O     O_2   0.804341 0.142530 0.530799 -0.219442
O22   O     O_2   0.967335 0.169636 0.645654 -0.177011
O23   O     O_3   0.763757 0.303012 0.663893 -0.531271
H13   H     H_    0.733137 0.222073 0.696732 0.370962
S6    S     S_3+6 0.122918 0.775062 0.558695 0.135517
O24   O     O_2   0.193124 0.854770 0.489784 -0.236655
O25   O     O_2   0.019854 0.861566 0.593331 -0.168461
O26   O     O_3   0.218372 0.735738 0.645136 -0.542421
H14   H     H_    0.256235 0.823582 0.663681 0.380711

loop_
_geom_bond_atom_site_label_1
_geom_bond_atom_site_label_2
_ccdc_geom_bond_type
S3    O16   D    
S5    O21   D    
C17   S1    S    
C6    C9    A    
O26   H14   S    
C7    S5    S    
C21   H1    S    
C22   H2    S    
C23   C29   A    
C3    C28   A    
C19   C21   A    
C24   C26   A    
C16   C19   S    
C11   C14   A    
S6    O25   D    
C3    H3    S    
S2    O12   D    
C5    S3    S    
C3    C29   A    
C13   N2    A    
C14   N1    A    
C11   H5    S    
S4    O18   D    
C12   H6    S    
C13   H7    S    
C18   S2    S    
C6    S4    S    
O17   H11   S    
S3    O17   S    
O14   H10   S    
C8    S6    S    
S5    O22   D    
C15   O8    A    
C16   O7    A    
O1    Zn1   S    
C4    H4    S    
C15   C20   S    
C29   Br1   S    
S1    O9    D    
C17   C27   A    
C18   C28   A    
O23   H13   S    
O7    Zn1   S    
C16   O6    A    
C5    C7    A    
S6    O24   D    
O3    Zn1   S    
C6    C8    A    
C25   C26   A    
S1    O10   D    
C14   H8    S    
C1    O4    A    
O5    Zn1   S    
C2    O3    A    
O2    Zn2   S    
C1    O1    A    
N1    Zn1   S    
C20   C22   A    
C21   C23   A    
S5    O23   S    
C22   C24   A    
C15   O5    A    
C4    C27   A    
O4    Zn2   S    
C7    C9    A    
O11   H9    S    
C8    C10   A    
C1    C10   S    
C25   C27   A    
O6    Zn2   S    
C26   C28   A    
S2    O14   S    
S1    O11   S    
C12   N1    A    
C30   Br2   S    
C5    C10   A    
S6    O26   S    
C2    O2    A    
S4    O20   S    
N2    Zn2   S    
O8    Zn2   S    
C17   C19   A    
S2    O13   D    
C18   C20   A    
C23   C25   A    
C11   N2    A    
C24   C30   A    
S3    O15   D    
O20   H12   S    
C12   C13   A    
S4    O19   D    
C2    C9    S    
C4    C30   A    
