data_mof_unit_42221.cif
_audit_creation_date              2013-03-05T15:47:00-0500
_audit_creation_method            fapswitch 2.2
_symmetry_space_group_name_H-M    P1
_symmetry_Int_Tables_number       1
_space_group_crystal_system       triclinic
_cell_length_a                    8.616585
_cell_length_b                    17.266331
_cell_length_c                    18.850246
_cell_angle_alpha                 96.919503
_cell_angle_beta                  94.523236
_cell_angle_gamma                 98.009613
_cell_volume                      2743.811931

loop_
_atom_site_label
_atom_site_type_symbol
_atom_site_description
_atom_site_fract_x
_atom_site_fract_y
_atom_site_fract_z
_atom_type_partial_charge
P1    P     P_3+3 0.992230 0.679190 0.566750 0.505599
O1    O     O_2   0.166667 0.691630 0.546720 -0.365464
O2    O     O_3   0.893830 0.593690 0.541700 -0.351521
O3    O     O_3   0.390350 0.644650 0.417800 -0.395496
O4    O     O_2   0.335145 0.781950 0.482593 -0.313454
O5    O     O_3   0.013725 0.690064 0.661165 -0.562264
O6    O     O_3   0.381622 0.781515 0.349641 -0.555956
C1    C     C_3   0.498390 0.814944 0.243352 -0.598370
P2    P     P_3+3 0.339610 0.439630 0.337240 0.489531
P3    P     P_3+3 0.918533 0.611441 0.288966 0.522724
O7    O     O_2   0.171750 0.463380 0.328050 -0.391780
O8    O     O_3   0.965290 0.605410 0.380210 -0.378662
O9    O     O_2   0.032524 0.564201 0.248874 -0.350696
O10   O     O_3   0.304948 0.341250 0.290102 -0.645831
O11   O     O_3   0.974936 0.709008 0.271818 -0.451286
C2    C     C_3   0.990766 0.760096 0.337071 0.414168
C3    C     C_3   0.033265 0.848431 0.327514 -0.510601
C4    C     C_3   0.781716 0.320174 0.280638 0.284774
C5    C     C_3   0.809426 0.268098 0.211213 -0.908387
Ba1   Ba    Ba6+2 0.162080 0.538580 0.468810 1.627280
C6    C     C_3   0.061773 0.621999 0.684665 0.206954
H1    H     H_    0.971097 0.569456 0.666390 0.117235
C7    C     C_3   0.091962 0.631260 0.767663 -0.596730
C8    C     C_3   0.265059 0.269363 0.318664 0.110052
C9    C     C_3   0.285647 0.200842 0.257631 -0.403103
P4    P     P_3+3 0.818060 0.320800 0.433200 0.617910
O12   O     O_2   0.643630 0.308330 0.453260 -0.318942
O13   O     O_3   0.916470 0.406310 0.458240 -0.358269
O14   O     O_3   0.419940 0.355340 0.582140 -0.382588
O15   O     O_3   0.802213 0.278386 0.340448 -0.485364
P5    P     P_3+3 0.875050 0.390835 0.711781 0.489106
O16   O     O_3   0.383960 0.539280 0.585630 -0.333323
O17   O     O_3   0.845010 0.394580 0.619730 -0.406749
O18   O     O_2   0.764953 0.443436 0.748386 -0.389072
O19   O     O_3   0.797894 0.294929 0.725102 -0.446496
Ba2   Ba    Ba6+2 0.648090 0.461410 0.531130 1.606909
P6    P     P_3+3 0.442885 0.747094 0.429563 0.513140
C10   C     C_3   0.458195 0.749741 0.291832 0.340338
O20   O     O_3   0.426330 0.460710 0.414310 -0.344464
C11   C     C_3   0.533273 0.718202 0.698060 0.111963
C12   C     C_3   0.599637 0.778587 0.766170 -0.639777
P7    P     P_3+3 0.461466 0.552484 0.676392 0.490670
O21   O     O_2   0.638540 0.536570 0.671920 -0.354876
O22   O     O_3   0.459892 0.648637 0.723101 -0.627570
C13   C     C_3   0.841694 0.242075 0.670240 0.375291
H2    H     H_    0.967862 0.258054 0.661560 0.023478
C14   C     C_3   0.822243 0.158698 0.690927 -0.755103
P8    P     P_3+3 0.374138 0.254655 0.579675 0.446899
C15   C     C_3   0.356381 0.260473 0.718197 0.374620
O23   O     O_2   0.486561 0.218456 0.530128 -0.389605
O24   O     O_3   0.436754 0.228023 0.662718 -0.520493
H3    H     H_    0.157771 0.222482 0.776924 0.213353
C16   C     C_3   0.231056 0.196610 0.737194 -0.893559
C17   C     C_2   0.758034 0.726694 0.482038 -0.347681
C18   C     C_3   0.656790 0.785529 0.457819 0.234939
C19   C     C_2   0.700361 0.868585 0.497955 -0.086277
C20   C     C_2   0.851948 0.890270 0.527658 -0.049015
C21   C     C_2   0.953128 0.827355 0.536962 -0.268654
C22   C     C_1   0.891633 0.751744 0.523755 0.254664
C23   C     C_R   0.107773 0.143482 0.538534 -0.179419
C24   C     C_R   0.166931 0.222743 0.543961 0.221267
C25   C     C_R   0.919143 0.249957 0.484695 0.284541
C26   C     C_R   0.860049 0.167516 0.480082 -0.229031
C27   C     C_R   0.953453 0.114921 0.510243 0.009068
C28   C     C_2   0.923752 0.974965 0.547108 -0.061313
C29   C     C_2   0.899819 0.027779 0.500285 -0.269016
C30   C     C_R   0.072614 0.276242 0.518854 -0.520599
H4    H     H_    0.077959 0.844041 0.553885 0.213440
C31   C     C_R   0.605625 0.539400 0.301903 -0.423273
C32   C     C_R   0.454161 0.499004 0.276164 0.253263
C33   C     C_R   0.404837 0.492093 0.201483 -0.229765
C34   C     C_R   0.511588 0.521369 0.153588 -0.050516
C35   C     C_R   0.663941 0.558744 0.181076 -0.257586
C36   C     C_R   0.711529 0.568301 0.254832 0.253086
C37   C     C_R   0.454909 0.567538 0.031383 -0.077303
C38   C     C_R   0.400050 0.548772 0.958358 -0.035619
C39   C     C_R   0.355772 0.470413 0.926329 -0.015386
C40   C     C_R   0.372232 0.408609 0.968134 -0.106885
C41   C     C_R   0.431654 0.427490 0.040924 -0.081822
C42   C     C_R   0.469500 0.506164 0.073819 0.079115
C43   C     C_R   0.136155 0.426108 0.823916 -0.191435
C44   C     C_R   0.085088 0.421834 0.749463 0.223354
C45   C     C_R   0.348165 0.483535 0.727932 0.297505
C46   C     C_R   0.398318 0.485851 0.800281 -0.252613
C47   C     C_R   0.295884 0.456948 0.848617 -0.110127
C48   C     C_R   0.193339 0.449252 0.702364 -0.532485
H5    H     H_    0.645298 0.543960 0.358341 0.195132
C49   C     C_2   0.348292 0.679555 0.252563 0.552652
H6    H     H_    0.321794 0.628373 0.279643 0.043941
O25   O     O_2   0.282526 0.680022 0.192811 -0.529196
C50   C     C_2   0.716407 0.186617 0.201972 1.041899
H7    H     H_    0.595641 0.176533 0.178057 -0.164936
O26   O     O_2   0.776865 0.131101 0.219607 -0.469707
H8    H     H_    0.779389 0.296468 0.162972 0.150905
H9    H     H_    0.936186 0.263062 0.211781 0.233519
H10   H     H_    0.171470 0.610683 0.661296 0.098754
C51   C     C_2   0.178073 0.710743 0.801300 0.687535
H11   H     H_    0.282824 0.713603 0.838013 0.053225
O27   O     O_2   0.129108 0.771780 0.790660 -0.568126
H12   H     H_    0.168852 0.588022 0.781091 0.132908
C52   C     C_2   0.943825 0.611012 0.802639 0.629675
H13   H     H_    0.829846 0.608449 0.773266 0.048456
O28   O     O_2   0.950533 0.598182 0.865030 -0.561003
C53   C     C_2   0.105009 0.263699 0.338538 0.408932
H14   H     H_    0.069665 0.318572 0.359162 0.043196
O29   O     O_2   0.026549 0.200101 0.342694 -0.497968
C54   C     C_2   0.357878 0.264385 0.386973 0.644328
H15   H     H_    0.366887 0.311984 0.430912 0.058060
O30   O     O_2   0.410879 0.204175 0.396230 -0.584935
H16   H     H_    0.394033 0.820920 0.207521 0.213871
C55   C     C_2   0.215446 0.213498 0.184215 0.629584
H17   H     H_    0.256825 0.267183 0.162456 0.005437
O31   O     O_2   0.115862 0.164293 0.147841 -0.500212
C56   C     C_2   0.241029 0.116502 0.273578 0.739623
H18   H     H_    0.329640 0.087195 0.299062 0.023916
O32   O     O_2   0.107948 0.080380 0.258281 -0.494969
H19   H     H_    0.413501 0.206128 0.252880 0.069898
H20   H     H_    0.570014 0.729508 0.310294 0.029920
C57   C     C_2   0.628153 0.802649 0.196295 0.542053
H21   H     H_    0.650078 0.840820 0.155344 0.097434
O33   O     O_2   0.711008 0.751829 0.203618 -0.572504
C58   C     C_2   0.658502 0.704614 0.649161 0.566611
H22   H     H_    0.774726 0.737399 0.662190 -0.033401
O34   O     O_2   0.626129 0.662001 0.592030 -0.535123
C59   C     C_2   0.410001 0.756087 0.659700 0.607256
H23   H     H_    0.290714 0.746544 0.673066 0.089974
O35   O     O_2   0.446252 0.805434 0.620270 -0.594766
C60   C     C_2   0.713783 0.746651 0.814851 0.671404
H24   H     H_    0.834526 0.748271 0.802694 0.016450
O36   O     O_2   0.672477 0.720214 0.868765 -0.513803
C61   C     C_2   0.676377 0.857738 0.749223 0.602071
H25   H     H_    0.783731 0.862602 0.722533 -0.011486
O37   O     O_2   0.618739 0.917262 0.765878 -0.479189
H26   H     H_    0.498481 0.789653 0.797273 0.231249
H27   H     H_    0.532992 0.872801 0.277372 0.227819
C62   C     C_2   0.891745 0.887834 0.312526 0.609017
H28   H     H_    0.878654 0.917492 0.265218 0.082334
O38   O     O_2   0.791274 0.888903 0.354321 -0.640624
H29   H     H_    0.768362 0.242803 0.619162 0.092348
C63   C     C_2   0.655130 0.118483 0.679697 0.860509
H30   H     H_    0.592632 0.108738 0.626353 -0.018306
O39   O     O_2   0.589580 0.094768 0.729735 -0.467661
H31   H     H_    0.889667 0.123625 0.655565 0.097901
H32   H     H_    0.871643 0.159864 0.747410 0.271068
H33   H     H_    0.298442 0.310752 0.704039 0.004986
C64   C     C_2   0.475213 0.290240 0.781696 0.673371
H34   H     H_    0.514914 0.352778 0.795479 -0.012676
O40   O     O_2   0.535072 0.244545 0.816053 -0.475348
H35   H     H_    0.285320 0.148728 0.759202 0.321116
H36   H     H_    0.086003 0.745257 0.373948 0.111773
H37   H     H_    0.154381 0.169760 0.688222 0.232909
H38   H     H_    0.831592 0.005233 0.449523 0.197318
H39   H     H_    0.186996 0.103722 0.553196 0.198793
C65   C     C_2   0.016028 0.995795 0.617948 0.514790
H40   H     H_    0.955441 0.003195 0.666000 0.028361
O41   O     O_2   0.158410 0.996903 0.623691 -0.543632
C66   C     C_2   0.587878 0.926782 0.498771 0.679680
H41   H     H_    0.596079 0.972778 0.544127 -0.048794
O42   O     O_2   0.490781 0.926293 0.447919 -0.550893
C67   C     C_2   0.705570 0.133758 0.441171 0.749765
H42   H     H_    0.618891 0.099280 0.468007 -0.013248
O43   O     O_2   0.678959 0.138371 0.377463 -0.493723
H43   H     H_    0.735430 0.666895 0.454171 0.151279
H44   H     H_    0.123176 0.337595 0.521548 0.162082
H45   H     H_    0.515920 0.515179 0.820231 0.185263
H46   H     H_    0.879614 0.752296 0.362802 0.017766
H47   H     H_    0.386794 0.595783 0.926051 0.172799
C68   C     C_2   0.488604 0.651273 0.062961 0.657602
H48   H     H_    0.512125 0.666058 0.120069 0.053523
O44   O     O_2   0.489035 0.704446 0.025670 -0.540510
C69   C     C_2   0.242405 0.454509 0.173199 0.629924
H49   H     H_    0.186089 0.403288 0.193875 0.006271
O45   O     O_2   0.168481 0.481301 0.126352 -0.554338
C70   C     C_2   0.326018 0.324589 0.937384 0.631470
H50   H     H_    0.269896 0.308869 0.883266 -0.043060
O46   O     O_2   0.349109 0.271531 0.972449 -0.539101
H51   H     H_    0.443532 0.380581 0.073469 0.130874
C71   C     C_2   0.024889 0.405291 0.877561 0.596991
H52   H     H_    0.046613 0.434793 0.932339 0.050828
O47   O     O_2   0.911699 0.353398 0.862645 -0.509749
H53   H     H_    0.747205 0.578839 0.144610 0.191572
H54   H     H_    0.152759 0.450621 0.646777 0.160266
H55   H     H_    0.094505 0.879589 0.379454 0.140755
C72   C     C_2   0.142863 0.862239 0.270836 0.665088
H56   H     H_    0.254673 0.900442 0.285322 0.019634
O48   O     O_2   0.104110 0.834815 0.208099 -0.494963
C73   C     C_2   0.623884 0.337637 0.276309 0.496354
H57   H     H_    0.548153 0.332312 0.226553 -0.055523
O49   O     O_2   0.586592 0.365816 0.332712 -0.531146
C74   C     C_2   0.882691 0.397882 0.285081 0.455093
H58   H     H_    0.949723 0.411488 0.240768 0.033860
O50   O     O_2   0.877240 0.449582 0.334379 -0.482976

loop_
_geom_bond_atom_site_label_1
_geom_bond_atom_site_label_2
_geom_bond_distance
_ccdc_geom_bond_type
C18   C19   1.521065 S    
C52   H13   1.081331 S    
O4    P6    1.542859 D    
C35   C36   1.401523 A    
C55   H17   1.084970 S    
P2    O20   1.557883 S    
P2    O10   1.793675 S    
C60   H24   1.080161 S    
C53   O29   1.221156 D    
C51   H11   1.084832 S    
P8    C24   1.841576 S    
C39   C40   1.416700 A    
C19   C20   1.362934 D    
C69   O45   1.221214 D    
O14   Ba2   2.804022 S    
P4    O12   1.570796 D    
C19   C66   1.489758 S    
P5    C44   1.871393 S    
P7    O22   1.785403 S    
C25   C30   1.413281 A    
O16   Ba2   2.988582 S    
C63   O39   1.220254 D    
C43   C71   1.488415 S    
C4    C5    1.550403 S    
P3    O11   1.762512 S    
P1    C22   1.847707 S    
O11   C2    1.410065 S    
C14   H31   1.100201 S    
C4    C73   1.431713 S    
C13   H29   1.111601 S    
O17   Ba2   2.750075 S    
C72   H56   1.084368 S    
C38   H47   1.084781 S    
P1    O1    1.570649 D    
C13   C14   1.526758 S    
O10   C8    1.421240 S    
C3    H55   1.113094 S    
C23   H39   1.077143 S    
C53   H14   1.073256 S    
C46   H45   1.084299 S    
C16   H37   1.104050 S    
C70   H50   1.080312 S    
C30   H44   1.081450 S    
P8    O24   1.749936 S    
C4    C74   1.483358 S    
C2    H46   1.106234 S    
C2    C3    1.553653 S    
C15   O24   1.403000 S    
C14   C63   1.496074 S    
C54   H15   1.084231 S    
C41   H51   1.084320 S    
C8    C9    1.586677 S    
C37   C68   1.475574 S    
C4    O15   1.422332 S    
C17   H43   1.084934 S    
C37   C42   1.415693 A    
C65   O41   1.220354 D    
C31   H5    1.081604 S    
C49   H6    1.079131 S    
C68   O44   1.221502 D    
C7    H12   1.103304 S    
C39   C47   1.493838 S    
C52   O28   1.221161 D    
C6    H1    1.112164 S    
C1    H27   1.109330 S    
C16   H35   1.110859 S    
C54   O30   1.217878 D    
C12   C60   1.498070 S    
C1    C10   1.552971 S    
C26   C67   1.475223 S    
C12   H26   1.113545 S    
C51   O27   1.220822 D    
C56   H18   1.085459 S    
C64   O40   1.221389 D    
C17   C22   1.329343 D    
C57   O33   1.219387 D    
C63   H30   1.085350 S    
O7    Ba1   2.822778 S    
O14   P8    1.722390 S    
O1    Ba1   2.858046 S    
P1    O5    1.759221 S    
C71   H52   1.084873 S    
C31   C36   1.405883 A    
C46   C47   1.404247 A    
C40   C70   1.482937 S    
C38   C39   1.401296 A    
C62   O38   1.216150 D    
C50   H7    1.083045 S    
C12   C61   1.514492 S    
Ba1   O20   2.989461 S    
C40   C41   1.409257 A    
C34   C35   1.408664 A    
Ba1   Ba2   4.674278 S    
Ba1   O13   2.865529 S    
C21   C22   1.324855 D    
C13   H2    1.113602 S    
O5    C6    1.407453 S    
C14   H32   1.111845 S    
Ba2   O20   2.797144 S    
C43   C44   1.427358 A    
C41   C42   1.406356 A    
C66   H41   1.085335 S    
C60   O36   1.221246 D    
C23   C24   1.380892 A    
P1    O2    1.594147 S    
C10   H20   1.114312 S    
C37   C38   1.403749 A    
C74   H58   1.082641 S    
C29   H38   1.081892 S    
C25   C26   1.433255 A    
C1    H16   1.105564 S    
C50   O26   1.220369 D    
C35   H53   1.083296 S    
C24   C30   1.411239 A    
P2    Ba1   3.422827 S    
C56   O32   1.221589 D    
C45   C46   1.391895 A    
O8    Ba1   2.749373 S    
C3    C62   1.500949 S    
P5    O17   1.744392 S    
O6    P6    1.754783 S    
P5    O18   1.547028 D    
C15   H33   1.108924 S    
O2    Ba1   2.989094 S    
C55   O31   1.221429 D    
C8    C54   1.479349 S    
P2    C32   1.879446 S    
P2    O7    1.559831 D    
C69   H49   1.078355 S    
C65   H40   1.083802 S    
C32   C33   1.423976 A    
C5    H8    1.113274 S    
P3    O8    1.754146 S    
P4    Ba2   3.432843 S    
C68   H48   1.072406 S    
C7    C51   1.506109 S    
C49   O25   1.221726 D    
P4    O15   1.799394 S    
C6    C7    1.550786 S    
C59   H23   1.072734 S    
C33   C69   1.486635 S    
P7    O21   1.594409 D    
C58   O34   1.217970 D    
C61   H25   1.085260 S    
O19   C13   1.405313 S    
C5    H9    1.107025 S    
H3    C16   1.109853 S    
C48   H54   1.082243 S    
C64   H34   1.079789 S    
Ba1   O16   2.797785 S    
C21   H4    1.085862 S    
C17   C18   1.515695 S    
C11   C12   1.567785 S    
P1    Ba1   3.432349 S    
C74   O50   1.217077 D    
C67   O43   1.218933 D    
P7    C45   1.848955 S    
C20   C28   1.496204 S    
C62   H28   1.086488 S    
C61   O37   1.220909 D    
P3    O9    1.546932 D    
C9    H19   1.104318 S    
C71   O47   1.218861 D    
C57   H21   1.084823 S    
C6    H10   1.105470 S    
O12   Ba2   2.858361 S    
C11   C58   1.498121 S    
P4    O13   1.594292 S    
C23   C27   1.392035 A    
C67   H42   1.084605 S    
P4    C25   1.909644 S    
C73   H57   1.086239 S    
C34   C42   1.501276 S    
C44   C48   1.411105 A    
C9    C56   1.525274 S    
P3    C36   1.866429 S    
C3    C72   1.499288 S    
C20   C21   1.502210 S    
C7    C52   1.500032 S    
O2    Ba2   2.866341 S    
C15   C16   1.527934 S    
C11   C59   1.505134 S    
P8    O23   1.540172 D    
O6    C10   1.412101 S    
C72   O48   1.221885 D    
C15   C64   1.502373 S    
P5    O19   1.751259 S    
O3    Ba1   2.804678 S    
C31   C32   1.410702 A    
C70   O46   1.221364 D    
C73   O49   1.201334 D    
C5    C50   1.502255 S    
C9    C55   1.518727 S    
C26   C27   1.432347 A    
P6    C18   1.881584 S    
C11   O22   1.427364 S    
C45   C48   1.404356 A    
C33   C34   1.424104 A    
O3    P6    1.746245 S    
O13   Ba2   2.989988 S    
C66   O42   1.220036 D    
C28   C29   1.367763 D    
C10   C49   1.505585 S    
C59   O35   1.221091 D    
O16   P7    1.763099 S    
Ba2   O21   2.822867 S    
C2    H36   1.110767 S    
C28   C65   1.477100 S    
C8    C53   1.450696 S    
C58   H22   1.073962 S    
C43   C47   1.424618 A    
C1    C57   1.503096 S    
C27   C29   1.495718 S    
