data_mof_unit_36520.cif
_audit_creation_date              2012-12-10T17:18:12-0500
_audit_creation_method            fapswitch 2.2
_symmetry_space_group_name_H-M    P1
_symmetry_Int_Tables_number       1
_space_group_crystal_system       triclinic
_cell_length_a                    10.127741
_cell_length_b                    10.788565
_cell_length_c                    14.864582
_cell_angle_alpha                 89.464259
_cell_angle_beta                  81.885909
_cell_angle_gamma                 95.259283
_cell_volume                      1600.72270449

loop_
_atom_site_label
_atom_site_type_symbol
_atom_type_description
_atom_site_fract_x
_atom_site_fract_y
_atom_site_fract_z
_atom_type_partial_charge
C1    C     C_R   0.556157 0.732727 0.497093 0.933346
C2    C     C_2   0.072745 0.489996 0.492741 -0.123944
C3    C     C_R   0.500814 0.498815 0.672765 0.871267
C4    C     C_R   0.499189 0.501424 0.327204 0.880350
C5    C     C_R   0.463722 0.390201 0.191435 -0.240279
C6    C     C_R   0.532958 0.610743 0.808729 -0.242927
C7    C     C_R   0.496023 0.501990 0.232273 -0.060308
C8    C     C_R   0.502873 0.498614 0.767744 -0.054243
C9    C     C_R   0.523243 0.614180 0.183551 -0.214602
C10   C     C_R   0.468314 0.387756 0.817184 -0.214664
C11   C     C_R   0.520699 0.615148 0.090613 0.085012
C12   C     C_R   0.443980 0.267185 0.509136 0.932679
C13   C     C_R   0.463499 0.388257 0.910720 0.095562
C14   C     C_R   0.489791 0.501964 0.047681 -0.013514
C15   C     C_R   0.492205 0.501695 0.953833 -0.013475
C16   C     C_R   0.459373 0.388681 0.098545 0.037461
C17   C     C_R   0.525796 0.614298 0.902635 0.032509
C18   C     C_R   0.550158 0.726860 0.040129 -0.327352
C19   C     C_R   0.430737 0.277307 0.961380 -0.341645
C20   C     C_3   0.480889 0.914930 0.906077 0.082900
C21   C     C_3   0.380262 0.879247 0.840320 -0.384480
C22   C     C_3   0.274872 0.971851 0.842052 -0.946114
C23   C     C_R   0.550329 0.727697 0.946106 0.482599
C24   C     C_3   0.264599 0.119007 0.109353 0.059088
C25   C     C_3   0.179657 0.172670 0.190769 -0.367146
C26   C     C_3   0.034334 0.116530 0.200891 -0.932080
C27   C     C_R   0.425717 0.276738 0.055709 0.487538
C28   C     C_2   0.588161 0.864759 0.505323 -0.374277
C29   C     C_2   0.412511 0.134887 0.524289 -0.376793
C30   C     C_2   0.489105 0.933196 0.536474 -0.157821
C31   C     C_2   0.512660 0.065997 0.533670 -0.143535
C32   C     C_2   0.927279 0.510037 0.507215 -0.124454
H1    H     H_    0.442476 0.305248 0.232571 0.169719
H2    H     H_    0.690081 0.906200 0.484770 0.153975
H3    H     H_    0.108814 0.422424 0.443787 0.163423
H4    H     H_    0.891224 0.577640 0.556138 0.167292
H5    H     H_    0.120004 0.614645 0.583051 0.164762
H6    H     H_    0.879993 0.385323 0.416969 0.164220
H7    H     H_    0.525753 0.011498 0.889047 0.181782
H8    H     H_    0.428708 0.915857 0.977328 0.135792
H9    H     H_    0.434196 0.876572 0.769952 0.234735
H10   H     H_    0.328769 0.785368 0.859395 0.221264
H11   H     H_    0.222969 0.980839 0.912343 0.257317
H12   H     H_    0.559967 0.694558 0.766922 0.167778
H13   H     H_    0.199501 0.938645 0.798099 0.272491
H14   H     H_    0.322236 0.064287 0.815468 0.257709
H15   H     H_    0.258646 0.016274 0.118838 0.167896
H16   H     H_    0.221921 0.136180 0.045692 0.130611
H17   H     H_    0.221784 0.152881 0.253948 0.226991
H18   H     H_    0.182162 0.275235 0.181609 0.218296
H19   H     H_    0.989479 0.136955 0.138997 0.270238
H20   H     H_    0.975627 0.157464 0.260197 0.261057
H21   H     H_    0.028593 0.014117 0.212066 0.264278
H22   H     H_    0.547158 0.699785 0.218095 0.132099
H23   H     H_    0.444957 0.301979 0.782663 0.125468
H24   H     H_    0.574757 0.813299 0.073299 0.170174
H25   H     H_    0.410089 0.190722 0.927854 0.149519
H26   H     H_    0.615471 0.106723 0.531426 0.190345
H27   H     H_    0.386872 0.892242 0.556942 0.189095
H28   H     H_    0.310012 0.093697 0.526270 0.152688
N1    N     N_2   0.842700 0.448880 0.462930 -0.195415
N2    N     N_2   0.157300 0.551120 0.537070 -0.194039
O1    O     O_R   0.431060 0.692470 0.507460 -0.611598
O2    O     O_3   0.400891 0.165273 0.105016 -0.655909
O3    O     O_R   0.568940 0.307530 0.492540 -0.610748
O4    O     O_R   0.651120 0.659650 0.483670 -0.612544
O5    O     O_R   0.348880 0.340350 0.516330 -0.613510
O6    O     O_R   0.389960 0.516440 0.644050 -0.610678
O7    O     O_R   0.610040 0.483560 0.355950 -0.601982
O8    O     O_R   0.610030 0.483620 0.620260 -0.612108
O9    O     O_R   0.389970 0.516380 0.379740 -0.613631
O10   O     O_3   0.587068 0.837119 0.895538 -0.646341
Zn1   Zn    Zn3+2 0.353060 0.521920 0.515880 0.942862
Zn2   Zn    Zn3+2 0.646940 0.478080 0.484120 0.947972

loop_
_geom_bond_atom_site_label_1
_geom_bond_atom_site_label_2
_ccdc_geom_bond_type
C2    H3    S    
O8    Zn2   S    
C1    C28   S    
C21   C22   S    
C5    C7    A    
N2    Zn1   S    
C7    C9    A    
O5    Zn1   S    
C26   H20   S    
C12   C29   S    
C19   C27   A    
C12   O3    A    
C22   H11   S    
C29   H28   S    
C18   H24   S    
C29   C31   D    
H6    N1    S    
C30   H27   S    
C3    O8    A    
C16   C27   A    
C28   C30   D    
C1    O4    A    
O6    Zn1   S    
C28   H2    S    
O7    Zn2   S    
C11   C18   A    
C6    H12   S    
C26   H19   S    
C24   C25   S    
C10   H23   S    
C9    C11   A    
C5    H1    S    
C17   C23   A    
C4    C7    S    
C21   H9    S    
C32   H4    S    
C31   H26   S    
C2    C32   S    
C4    O7    A    
C22   H14   S    
C32   N1    D    
H5    N2    S    
C25   H17   S    
C23   O10   S    
C13   C15   A    
C30   C31   S    
N1    Zn2   S    
C11   C14   A    
C14   C16   A    
C12   O5    A    
C21   H10   S    
C27   O2    S    
C13   C19   A    
C18   C23   A    
O4    Zn2   S    
C26   H21   S    
C1    O1    A    
C22   H13   S    
C20   C21   S    
C24   O2    S    
C3    C8    S    
O9    Zn1   S    
C15   C17   A    
C20   H7    S    
C14   C15   A    
C20   O10   S    
C5    C16   A    
C6    C8    A    
C9    H22   S    
O1    Zn1   S    
C25   C26   S    
C25   H18   S    
C24   H15   S    
C6    C17   A    
C20   H8    S    
C8    C10   A    
C19   H25   S    
O3    Zn2   S    
C3    O6    A    
C2    N2    D    
C4    O9    A    
C10   C13   A    
C24   H16   S    
