data_mof_unit_17969.cif
_audit_creation_date              2012-12-11T15:52:12-0500
_audit_creation_method            fapswitch 2.2
_symmetry_space_group_name_H-M    P1
_symmetry_Int_Tables_number       1
_space_group_crystal_system       triclinic
_cell_length_a                    10.967389
_cell_length_b                    10.967482
_cell_length_c                    18.821687
_cell_angle_alpha                 90.000098
_cell_angle_beta                  89.999964
_cell_angle_gamma                 119.999618
_cell_volume                      1960.65430949

loop_
_atom_site_label
_atom_site_type_symbol
_atom_type_description
_atom_site_fract_x
_atom_site_fract_y
_atom_site_fract_z
_atom_type_partial_charge
C1    C     C_R   0.523117 0.451795 0.144489 0.543554
C2    C     C_R   0.548206 0.071324 0.144488 0.543556
C3    C     C_R   0.928665 0.476877 0.144485 0.543558
C4    C     C_R   0.458455 0.519714 0.852537 0.536032
C5    C     C_R   0.061255 0.541544 0.852535 0.536033
C6    C     C_R   0.480287 0.938743 0.852536 0.536036
C7    C     C_3   0.745112 0.032742 0.540426 -0.280332
C8    C     C_3   0.967266 0.712375 0.540425 -0.280331
C9    C     C_3   0.287632 0.254890 0.540426 -0.280329
C10   C     C_3   0.953587 0.708365 0.460571 -0.269752
C11   C     C_3   0.754782 0.046424 0.460572 -0.269749
C12   C     C_3   0.291641 0.245220 0.460572 -0.269748
C13   C     C_R   0.517304 0.458392 0.352990 0.546412
C14   C     C_R   0.541607 0.058911 0.352990 0.546414
C15   C     C_R   0.941088 0.482695 0.352990 0.546414
C16   C     C_R   0.453857 0.522283 0.643988 0.545890
C17   C     C_R   0.068424 0.546142 0.643989 0.545889
C18   C     C_R   0.477718 0.931577 0.643989 0.545888
C19   C     C_R   0.502674 0.008161 0.920946 0.010517
C20   C     C_R   0.991816 0.494511 0.920941 0.010524
C21   C     C_R   0.505485 0.497327 0.920947 0.010512
C22   C     C_R   0.955584 0.485534 0.068702 0.018806
C23   C     C_R   0.529939 0.044392 0.068707 0.018808
C24   C     C_R   0.514455 0.470061 0.068707 0.018803
C25   C     C_R   0.387060 0.982353 0.963480 0.005654
C26   C     C_R   0.017546 0.404646 0.963467 0.005644
C27   C     C_R   0.595286 0.612942 0.963482 0.005658
C28   C     C_R   0.997570 0.398651 0.036193 -0.000783
C29   C     C_R   0.401042 0.002331 0.036207 -0.000789
C30   C     C_R   0.601284 0.598958 0.036208 -0.000775
C31   C     C_R   0.650212 0.090982 0.025385 -0.146692
C32   C     C_R   0.909041 0.559262 0.025386 -0.146700
C33   C     C_R   0.440781 0.349788 0.025384 -0.146684
C34   C     C_R   0.925466 0.562397 0.951849 -0.160616
C35   C     C_R   0.636917 0.074558 0.951849 -0.160615
C36   C     C_R   0.437647 0.363085 0.951848 -0.160607
C37   C     C_3   0.246895 0.851702 0.971339 -0.242760
C38   C     C_3   0.148110 0.394984 0.971320 -0.242804
C39   C     C_3   0.604800 0.753102 0.971341 -0.242773
C40   C     C_3   0.124905 0.387075 0.050915 -0.282431
C41   C     C_3   0.262186 0.874910 0.050933 -0.282421
C42   C     C_3   0.612712 0.737809 0.050935 -0.282426
C43   C     C_R   0.485244 0.960384 0.568614 0.016259
C44   C     C_R   0.039619 0.524861 0.568614 0.016259
C45   C     C_R   0.475137 0.514759 0.568613 0.016259
C46   C     C_R   0.014322 0.513473 0.420538 0.015779
C47   C     C_R   0.499153 0.985680 0.420538 0.015780
C48   C     C_R   0.486525 0.500848 0.420538 0.015780
C49   C     C_R   0.589561 0.952316 0.530492 0.042753
C50   C     C_R   0.047687 0.637245 0.530491 0.042755
C51   C     C_R   0.362754 0.410441 0.530491 0.042753
C52   C     C_R   0.036379 0.633059 0.458168 0.030230
C53   C     C_R   0.596685 0.963626 0.458169 0.030229
C54   C     C_R   0.366939 0.403317 0.458169 0.030230
C55   C     C_R   0.378013 0.965860 0.456315 -0.166189
C56   C     C_R   0.034143 0.412154 0.456315 -0.166190
C57   C     C_R   0.587843 0.621987 0.456314 -0.166188
C58   C     C_R   0.045241 0.417014 0.530681 -0.160646
C59   C     C_R   0.371775 0.954763 0.530682 -0.160647
C60   C     C_R   0.582983 0.628226 0.530681 -0.160647
Cr1   Cr    Cr6+3 0.769160 0.541570 0.250690 1.006803
Cr2   Cr    Cr6+3 0.458430 0.227590 0.250690 1.006806
Cr3   Cr    Cr6+3 0.772410 0.230840 0.250690 1.006800
Cr4   Cr    Cr6+3 0.541570 0.769160 0.749310 1.006699
Cr5   Cr    Cr6+3 0.227590 0.458430 0.749310 1.006694
Cr6   Cr    Cr6+3 0.230840 0.772410 0.749310 1.006697
H1    H     H_    0.754202 0.135289 0.048408 0.148277
H2    H     H_    0.864770 0.618971 0.048412 0.148274
H3    H     H_    0.381111 0.245797 0.048406 0.148286
H4    H     H_    0.899387 0.629016 0.920459 0.134417
H5    H     H_    0.729623 0.100681 0.920453 0.134413
H6    H     H_    0.371070 0.270379 0.920451 0.134425
H7    H     H_    0.160323 0.864020 0.948352 0.147387
H8    H     H_    0.135686 0.296059 0.948328 0.147343
H9    H     H_    0.703689 0.839667 0.948357 0.147396
H10   H     H_    0.208144 0.479763 0.079968 0.130920
H11   H     H_    0.271726 0.791715 0.079984 0.130891
H12   H     H_    0.519974 0.728266 0.079984 0.130888
H13   H     H_    0.294864 0.970992 0.427965 0.121261
H14   H     H_    0.029010 0.323873 0.427965 0.121263
H15   H     H_    0.676124 0.705136 0.427965 0.121262
H16   H     H_    0.053079 0.334820 0.558322 0.131033
H17   H     H_    0.281744 0.946926 0.558322 0.131031
H18   H     H_    0.665176 0.718257 0.558321 0.131033
H19   H     H_    0.787557 0.967044 0.561771 0.134426
H20   H     H_    0.032966 0.820516 0.561772 0.134426
H21   H     H_    0.179488 0.212445 0.561773 0.134425
H22   H     H_    0.843271 0.640626 0.443100 0.168686
H23   H     H_    0.797352 0.156741 0.443102 0.168685
H24   H     H_    0.359387 0.202649 0.443101 0.168686
H25   H     H_    0.781643 0.134632 0.568311 0.136449
H26   H     H_    0.865373 0.647019 0.568310 0.136449
H27   H     H_    0.352994 0.218360 0.568310 0.136449
H28   H     H_    0.010640 0.814291 0.435542 0.126413
H29   H     H_    0.803663 0.989377 0.435542 0.126414
H30   H     H_    0.185712 0.196340 0.435542 0.126412
O1    O     O_R   0.911480 0.572650 0.170990 -0.528473
O2    O     O_R   0.427350 0.338830 0.170990 -0.528468
O3    O     O_R   0.661170 0.088520 0.170990 -0.528475
O4    O     O_R   0.572650 0.911480 0.829010 -0.529015
O5    O     O_R   0.338830 0.427350 0.829010 -0.529015
O6    O     O_R   0.088520 0.661170 0.829010 -0.529019
O7    O     O_R   0.640340 0.528970 0.175680 -0.501035
O8    O     O_R   0.471030 0.111370 0.175680 -0.501036
O9    O     O_R   0.888630 0.359660 0.175680 -0.501040
O10   O     O_R   0.528970 0.640340 0.824320 -0.500675
O11   O     O_R   0.111370 0.471030 0.824320 -0.500682
O12   O     O_R   0.359660 0.888630 0.824320 -0.500676
O13   O     O_R   0.909980 0.572450 0.331530 -0.523122
O14   O     O_R   0.427550 0.337530 0.331530 -0.523124
O15   O     O_R   0.662470 0.090020 0.331530 -0.523124
O16   O     O_R   0.572450 0.909980 0.668470 -0.518501
O17   O     O_R   0.337530 0.427550 0.668470 -0.518501
O18   O     O_R   0.090020 0.662470 0.668470 -0.518501
O19   O     O_R   0.638950 0.528780 0.324500 -0.508596
O20   O     O_R   0.471220 0.110170 0.324500 -0.508596
O21   O     O_R   0.889830 0.361050 0.324500 -0.508595
O22   O     O_R   0.528780 0.638950 0.675500 -0.507157
O23   O     O_R   0.110170 0.471220 0.675500 -0.507155
O24   O     O_R   0.361050 0.889830 0.675500 -0.507156
O25   O     O_3   0.666667 0.333333 0.250560 -0.248607
O26   O     O_3   0.333333 0.666667 0.749440 -0.249160
H31   H     H_    0.249079 0.755587 0.954682 0.146177
H32   H     H_    0.244277 0.493224 0.954666 0.146258
H33   H     H_    0.506508 0.750924 0.954682 0.146183
H34   H     H_    0.097627 0.283060 0.073812 0.141865
H35   H     H_    0.185372 0.902089 0.073832 0.141877
H36   H     H_    0.716701 0.814623 0.073838 0.141879

loop_
_geom_bond_atom_site_label_1
_geom_bond_atom_site_label_2
_ccdc_geom_bond_type
C49   C53   A    
C45   C60   A    
C39   H33   S    
C55   C59   A    
Cr6   O6    S    
C9    C51   S    
Cr5   O5    S    
C10   C52   S    
C16   O17   A    
C48   C57   A    
C5    C20   S    
C3    O9    A    
C31   H1    S    
C6    C19   S    
C10   H22   S    
C22   C32   A    
C23   C29   A    
C12   H24   S    
Cr1   O7    S    
C59   H17   S    
C58   H16   S    
C41   H11   S    
Cr3   O21   S    
C14   O20   A    
Cr4   O16   S    
C45   C51   A    
C11   H29   S    
C46   C52   A    
C33   C36   A    
Cr4   O22   S    
Cr1   O25   S    
C41   H35   S    
Cr3   O3    S    
C25   C37   S    
Cr2   O2    S    
C18   O24   A    
C44   C58   A    
Cr1   O19   S    
C50   C52   A    
Cr6   O26   S    
C8    H26   S    
C39   H9    S    
Cr3   O9    S    
C1    O7    A    
C8    H20   S    
C11   C53   S    
C43   C59   A    
C47   C53   A    
C20   C34   A    
C21   C27   A    
Cr1   O13   S    
C37   H31   S    
C27   C30   A    
C37   C41   S    
C30   C42   S    
C22   C28   A    
C33   H3    S    
Cr3   O25   S    
C17   O18   A    
C7    C11   S    
C39   C42   S    
Cr2   O8    S    
C56   C58   A    
C25   C29   A    
C14   O15   A    
C18   O16   A    
Cr1   O1    S    
C7    C49   S    
C27   C39   S    
C21   C36   A    
C34   H4    S    
C26   C38   S    
C57   C60   A    
C32   C34   A    
C4    O10   A    
C40   H10   S    
C23   C31   A    
C1    O2    A    
C48   C54   A    
C28   C40   S    
Cr2   O20   S    
C13   O14   A    
C16   O22   A    
C55   H13   S    
C11   H23   S    
Cr2   O14   S    
C2    O8    A    
C40   H34   S    
C4    O5    A    
Cr5   O23   S    
Cr5   O26   S    
C13   O19   A    
C2    O3    A    
C42   H12   S    
C15   O13   A    
C31   C35   A    
C12   C54   S    
C9    H27   S    
C7    H25   S    
C47   C55   A    
C5    O11   A    
C44   C50   A    
C37   H7    S    
C5    O6    A    
C6    O12   A    
C3    O1    A    
Cr6   O18   S    
C29   C41   S    
Cr5   O17   S    
C43   C49   A    
Cr6   O12   S    
C16   C45   S    
C13   C48   S    
Cr4   O10   S    
C14   C47   S    
C42   H36   S    
C26   C28   A    
C24   C33   A    
C56   H14   S    
C32   H2    S    
C51   C54   A    
C17   C44   S    
C19   C35   A    
C18   C43   S    
C9    H21   S    
C38   C40   S    
C4    C21   S    
C60   H18   S    
C7    H19   S    
C20   C26   A    
Cr4   O26   S    
C38   H8    S    
C8    C50   S    
C57   H15   S    
Cr3   O15   S    
C19   C25   A    
C9    C12   S    
C24   C30   A    
C17   O23   A    
C35   H5    S    
C15   O21   A    
Cr4   O4    S    
C1    C24   S    
C8    C10   S    
C46   C56   A    
C2    C23   S    
C10   H28   S    
C12   H30   S    
C3    C22   S    
Cr6   O24   S    
C15   C46   S    
Cr5   O11   S    
Cr2   O25   S    
C38   H32   S    
C36   H6    S    
C6    O4    A    
