data_mof_unit_13114.cif
_audit_creation_date              2012-12-10T17:24:14-0500
_audit_creation_method            fapswitch 2.2
_symmetry_space_group_name_H-M    P1
_symmetry_Int_Tables_number       1
_space_group_crystal_system       triclinic
_cell_length_a                    19.358239
_cell_length_b                    10.841532
_cell_length_c                    9.629465
_cell_angle_alpha                 90.875246
_cell_angle_beta                  90.395522
_cell_angle_gamma                 93.933722
_cell_volume                      2015.90387441

loop_
_atom_site_label
_atom_site_type_symbol
_atom_type_description
_atom_site_fract_x
_atom_site_fract_y
_atom_site_fract_z
_atom_type_partial_charge
C1    C     C_R   0.491645 0.262593 0.498411 0.847605
C2    C     C_R   0.291696 0.502580 0.500574 -0.075927
C3    C     C_R   0.930662 0.509933 0.491059 0.452516
C4    C     C_R   0.070381 0.505181 0.500008 0.433034
C5    C     C_R   0.819733 0.473163 0.612782 -0.187429
C6    C     C_R   0.747614 0.466514 0.618614 0.258984
C7    C     C_R   0.708845 0.497536 0.500482 -0.169373
C8    C     C_R   0.744238 0.529734 0.377776 -0.210983
C9    C     C_R   0.816302 0.534470 0.371765 0.320491
C10   C     C_R   0.854667 0.506655 0.490601 -0.079918
C11   C     C_R   0.423166 0.111484 0.723103 0.204098
C12   C     C_R   0.367641 0.500879 0.499820 0.851112
C13   C     C_R   0.433083 0.070073 0.857537 -0.159923
C14   C     C_R   0.475835 0.973271 0.878619 0.270945
C15   C     C_R   0.495832 0.903085 0.764171 -0.240671
C16   C     C_R   0.484189 0.942515 0.627871 0.034749
C17   C     C_R   0.460604 0.061354 0.613604 0.062838
C18   C     C_R   0.478957 0.127476 0.493779 -0.089787
C19   C     C_R   0.496427 0.062672 0.374347 -0.185311
C20   C     C_R   0.503078 0.936228 0.378532 -0.164277
C21   C     C_R   0.499059 0.874328 0.505319 -0.085701
C22   C     C_R   0.596882 0.659035 0.146975 -0.289470
C23   C     C_R   0.501661 0.738703 0.501789 0.770855
C24   C     C_R   0.649211 0.727079 0.077526 0.249497
C25   C     C_R   0.651788 0.721379 0.933249 0.227918
C26   C     C_R   0.599447 0.652524 0.860509 -0.265538
C27   C     C_R   0.548297 0.576330 0.927436 0.186193
C28   C     C_R   0.547793 0.577589 0.076431 0.126696
C29   C     C_R   0.453909 0.426234 0.072229 0.319562
C30   C     C_R   0.454379 0.427040 0.924076 -0.093145
C31   C     C_R   0.632477 0.498021 0.500562 0.829555
C32   C     C_R   0.255328 0.484316 0.624985 -0.151506
C33   C     C_R   0.183277 0.483535 0.627467 0.290546
C34   C     C_R   0.146346 0.503472 0.503592 -0.011253
C35   C     C_R   0.183011 0.522164 0.379431 -0.163539
C36   C     C_R   0.254948 0.522217 0.378011 -0.178684
Cu1   Cu    Cu3+1 0.500000 0.499990 0.640660 0.981882
Cu2   Cu    Cu3+1 0.500000 0.500010 0.359340 0.970791
H1    H     H_    0.282754 0.468442 0.720798 0.192474
H2    H     H_    0.409912 0.115171 0.944855 0.154738
H3    H     H_    0.527745 0.828781 0.784015 0.162428
H4    H     H_    0.514309 0.887679 0.283382 0.181400
H5    H     H_    0.597627 0.672330 0.256448 0.225303
H6    H     H_    0.599841 0.665328 0.751431 0.201711
H7    H     H_    0.417646 0.367504 0.866784 0.184308
H8    H     H_    0.155982 0.538429 0.283242 0.189599
H9    H     H_    0.281763 0.539020 0.281271 0.171346
H10   H     H_    0.848790 0.448873 0.703812 0.211950
H11   H     H_    0.715928 0.552816 0.285565 0.212316
H12   H     H_    0.505962 0.110782 0.278742 0.173182
N1    N     N_R   0.034019 0.462763 0.385949 -0.197507
N2    N     N_R   0.965382 0.464504 0.381856 -0.153125
N3    N     N_R   0.967015 0.552959 0.604723 -0.190021
N4    N     N_R   0.035613 0.551378 0.608668 -0.152393
N5    N     N_R   0.500660 0.501210 0.147910 -0.197110
N6    N     N_R   0.500680 0.501290 0.852040 -0.191826
O1    O     O_R   0.499990 0.319640 0.618810 -0.548617
O2    O     O_R   0.500000 0.319660 0.381240 -0.583206
O3    O     O_R   0.400140 0.499970 0.618820 -0.569932
O4    O     O_R   0.400150 0.500000 0.381250 -0.550230
O5    O     O_R   0.500000 0.680340 0.618760 -0.607177
O6    O     O_R   0.500010 0.680360 0.381190 -0.600225
O7    O     O_R   0.599850 0.500000 0.618750 -0.555118
O8    O     O_R   0.599860 0.500030 0.381180 -0.595270
Br1   Br    Br    0.347412 0.210997 0.684629 -0.560602
N7    N     N_2   0.505133 0.955417 0.011397 -0.445572
H13   H     H_    0.517790 0.865796 0.027180 0.249177
C37   C     C_3   0.562899 0.044279 0.041047 -0.668781
H14   H     H_    0.590122 0.019317 0.137322 0.243952
H15   H     H_    0.544365 0.138542 0.053496 0.233342
H16   H     H_    0.600534 0.046169 0.954839 0.241001
N8    N     N_2   0.406289 0.344536 0.143427 -0.395280
H17   H     H_    0.424233 0.258335 0.158079 0.244773
C38   C     C_3   0.334718 0.340145 0.097919 -0.650849
H18   H     H_    0.301195 0.300218 0.181272 0.254318
H19   H     H_    0.326912 0.280735 0.003475 0.238779
H20   H     H_    0.318884 0.434484 0.075711 0.232477
Br2   Br    Br    0.717028 0.825433 0.184627 -0.474469
N9    N     N_2   0.708949 0.777959 0.859997 -0.363735
H21   H     H_    0.721850 0.728411 0.772673 0.267829
C39   C     C_3   0.704204 0.907387 0.830668 -0.579362
H22   H     H_    0.656599 0.921051 0.769191 0.191865
H23   H     H_    0.749880 0.941379 0.769544 0.249630
H24   H     H_    0.704513 0.962340 0.928619 0.266469
Br3   Br    Br    0.139377 0.445885 0.801652 -0.420702
Br4   Br    Br    0.707331 0.406000 0.788727 -0.468618
Br5   Br    Br    0.858786 0.586569 0.200695 -0.342069

loop_
_geom_bond_atom_site_label_1
_geom_bond_atom_site_label_2
_ccdc_geom_bond_type
C8    C9    A    
N7    C37   S    
C16   C21   A    
C3    N3    A    
C30   H7    S    
C35   C36   A    
C2    C12   S    
C39   H22   S    
C26   H6    S    
C7    C8    A    
N3    N4    A    
C1    C18   S    
Cu1   Cu2   S    
C38   H19   S    
C34   C35   A    
C5    C6    A    
C15   C16   A    
C36   H9    S    
C2    C32   A    
C18   C19   A    
C32   H1    S    
C33   Br3   S    
C13   H2    S    
C39   H23   S    
Cu2   O2    S    
Cu1   N6    S    
C23   O6    A    
Cu2   N5    S    
C19   C20   A    
C37   H14   S    
C38   H20   S    
C9    C10   A    
C29   N8    S    
N7    H13   S    
C22   C28   A    
C13   C14   A    
C12   O3    A    
Cu1   O7    S    
C28   N5    A    
C33   C34   A    
Cu2   O8    S    
C5    H10   S    
C4    C34   S    
C7    C31   S    
C38   H18   S    
C4    N1    A    
N1    N2    A    
C31   O7    A    
C24   C25   A    
C15   H3    S    
N8    C38   S    
N9    C39   S    
C27   N6    A    
C16   C17   A    
C29   N5    A    
C25   C26   A    
C30   N6    A    
C29   C30   A    
C1    O1    A    
Cu1   O5    S    
C22   H5    S    
C17   C18   A    
C14   N7    S    
Cu1   O3    S    
Cu2   O4    S    
C24   Br2   S    
C21   C23   S    
C26   C27   A    
C22   C24   A    
C39   H24   S    
C2    C36   A    
C11   C17   A    
C4    N4    A    
C25   N9    S    
C31   O8    A    
N8    H17   S    
C20   H4    S    
C3    N2    A    
C6    C7    A    
C6    Br4   S    
C32   C33   A    
C5    C10   A    
C3    C10   S    
C1    O2    A    
C9    Br5   S    
C11   C13   A    
C19   H12   S    
C37   H16   S    
N9    H21   S    
C12   O4    A    
C23   O5    A    
C20   C21   A    
C37   H15   S    
C27   C28   A    
C14   C15   A    
C35   H8    S    
C8    H11   S    
Cu1   O1    S    
C11   Br1   S    
Cu2   O6    S    
