data_mof_unit_52881.cif
_audit_creation_date              2012-12-10T19:10:04-0500
_audit_creation_method            fapswitch 2.2
_symmetry_space_group_name_H-M    P1
_symmetry_Int_Tables_number       1
_space_group_crystal_system       triclinic
_cell_length_a                    10.872404
_cell_length_b                    10.788139
_cell_length_c                    9.587327
_cell_angle_alpha                 89.65029
_cell_angle_beta                  90.99496
_cell_angle_gamma                 90.135487
_cell_volume                      1124.3330386

loop_
_atom_site_label
_atom_site_type_symbol
_atom_type_description
_atom_site_fract_x
_atom_site_fract_y
_atom_site_fract_z
_atom_type_partial_charge
C1    C     C_R   0.501446 0.262587 0.500552 0.798973
C2    C     C_R   0.202924 0.546895 0.964794 -0.140249
C3    C     C_R   0.930894 0.533925 0.382528 -0.246570
C4    C     C_R   0.871096 0.498373 0.504133 -0.085884
C5    C     C_R   0.940318 0.459603 0.622330 0.008395
C6    C     C_R   0.067538 0.463945 0.617637 -0.249534
C7    C     C_R   0.127700 0.497821 0.495508 -0.089920
C8    C     C_R   0.057693 0.527901 0.374523 0.006754
C9    C     C_R   0.874453 0.481183 0.867141 -0.172844
C10   C     C_R   0.824708 0.433708 0.989519 -0.113739
C11   C     C_R   0.786980 0.310282 0.996440 -0.165689
C12   C     C_R   0.262136 0.499170 0.498428 0.789971
C13   C     C_R   0.796855 0.234227 0.879933 -0.157829
C14   C     C_R   0.845780 0.280555 0.755354 0.229124
C15   C     C_R   0.884703 0.406010 0.749025 0.136070
C16   C     C_R   0.471871 0.063153 0.619676 0.119709
C17   C     C_R   0.511127 0.129494 0.503338 -0.095198
C18   C     C_R   0.567808 0.065930 0.394468 -0.228340
C19   C     C_R   0.569540 0.936559 0.395437 -0.222913
C20   C     C_R   0.511636 0.870951 0.502858 -0.087154
C21   C     C_R   0.471326 0.935680 0.618932 0.118407
C22   C     C_3   0.351220 0.928409 0.691959 -0.476830
C23   C     C_R   0.502020 0.737543 0.500059 0.794806
C24   C     C_3   0.352156 0.069176 0.693486 -0.478343
C25   C     C_R   0.498224 0.608761 0.072381 0.295861
C26   C     C_R   0.493717 0.392476 0.074578 -0.071460
C27   C     C_R   0.494230 0.392458 0.926565 -0.060882
C28   C     C_R   0.499332 0.608617 0.925377 0.249573
C29   C     C_3   0.594644 0.707770 0.920751 -0.498533
C30   C     C_3   0.591797 0.709841 0.078608 -0.531294
C31   C     C_R   0.737444 0.498696 0.501480 0.799569
C32   C     C_R   0.182551 0.656346 0.038234 -0.214618
C33   C     C_R   0.135968 0.651369 0.173017 -0.142260
C34   C     C_R   0.109946 0.536386 0.234387 0.093042
C35   C     C_R   0.128848 0.426877 0.159923 -0.105146
C36   C     C_R   0.176366 0.431245 0.025447 0.250893
Cu1   Cu    Cu3+1 0.499990 0.499980 0.640670 0.936636
Cu2   Cu    Cu3+1 0.500010 0.500020 0.359330 0.942027
H1    H     H_    0.240189 0.553018 0.861449 0.159910
H2    H     H_    0.749076 0.273722 0.091949 0.133396
H3    H     H_    0.766577 0.138677 0.886865 0.134340
H4    H     H_    0.607982 0.115723 0.307917 0.150020
H5    H     H_    0.613846 0.888494 0.311884 0.149383
H6    H     H_    0.276416 0.888644 0.625332 0.193943
H7    H     H_    0.360432 0.886462 0.797771 0.188767
H8    H     H_    0.277476 0.111564 0.628487 0.196272
H9    H     H_    0.362952 0.108042 0.800105 0.193108
H10   H     H_    0.489849 0.304633 0.128739 0.137063
H11   H     H_    0.203517 0.745023 0.990748 0.137218
H12   H     H_    0.491056 0.304691 0.873227 0.143704
H13   H     H_    0.683316 0.674542 0.879066 0.214405
H14   H     H_    0.559501 0.794663 0.872112 0.196966
H15   H     H_    0.679623 0.680782 0.130004 0.203508
H16   H     H_    0.551342 0.796969 0.117456 0.192845
H17   H     H_    0.120388 0.736428 0.229388 0.126256
H18   H     H_    0.107193 0.338114 0.207280 0.123405
H19   H     H_    0.878520 0.562399 0.290923 0.147824
H20   H     H_    0.119490 0.434429 0.708247 0.167902
H21   H     H_    0.904630 0.576922 0.864077 0.131091
H22   H     H_    0.814960 0.492857 0.078863 0.133947
N1    N     N_R   0.500790 0.500930 0.147930 -0.184800
N2    N     N_R   0.500790 0.500890 0.852020 -0.188363
O1    O     O_R   0.500000 0.319640 0.618810 -0.586472
O2    O     O_R   0.500010 0.319680 0.381230 -0.595872
O3    O     O_R   0.319640 0.499990 0.618790 -0.602151
O4    O     O_R   0.319650 0.500030 0.381210 -0.562980
O5    O     O_R   0.499990 0.680320 0.618770 -0.581893
O6    O     O_R   0.500000 0.680360 0.381190 -0.581183
O7    O     O_R   0.680350 0.499970 0.618790 -0.567894
O8    O     O_R   0.680360 0.500010 0.381210 -0.592957
C37   C     C_3   0.856377 0.193099 0.634238 -0.920728
H23   H     H_    0.896417 0.237159 0.540676 0.236474
H24   H     H_    0.915885 0.113722 0.665185 0.233024
H25   H     H_    0.763804 0.157345 0.604985 0.238383
C38   C     C_3   0.198115 0.312162 0.949625 -0.944302
H26   H     H_    0.248169 0.327667 0.851245 0.237526
H27   H     H_    0.254514 0.248870 0.016229 0.226530
H28   H     H_    0.108609 0.266773 0.925206 0.247805

loop_
_geom_bond_atom_site_label_1
_geom_bond_atom_site_label_2
_ccdc_geom_bond_type
C33   H17   S    
Cu2   O8    S    
C16   C21   A    
Cu1   O7    S    
C14   C37   S    
C6    H20   S    
C35   C36   A    
C13   H3    S    
Cu1   N2    S    
C7    C8    A    
C25   C28   A    
C30   H16   S    
C26   C27   A    
Cu1   Cu2   S    
C28   C29   S    
C36   C38   S    
C26   N1    A    
C18   C19   A    
C18   H4    S    
C5    C6    A    
C2    C32   A    
C34   C35   A    
C23   O5    A    
C2    H1    S    
C31   O8    A    
C22   H6    S    
C19   C20   A    
C16   C17   A    
Cu1   O3    S    
C9    C10   A    
C27   H12   S    
C26   H10   S    
Cu2   N1    S    
C16   C24   S    
C21   C22   S    
C1    O1    A    
Cu1   O1    S    
C19   H5    S    
C33   C34   A    
Cu2   O2    S    
C7    C12   S    
C30   H15   S    
Cu2   O4    S    
C3    C8    A    
C37   H24   S    
C8    C34   S    
C12   O4    A    
C9    H21   S    
C23   O6    A    
C10   H22   S    
C38   H26   S    
C29   C30   S    
C27   N2    A    
C20   C23   S    
C17   C18   A    
C25   N1    A    
C38   H27   S    
C3    H19   S    
Cu2   O6    S    
C22   C24   S    
C3    C4    A    
C1    O2    A    
C29   H13   S    
C2    C36   A    
C25   C30   S    
C35   H18   S    
C24   H9    S    
C4    C5    A    
C37   H25   S    
C6    C7    A    
C12   O3    A    
C1    C17   S    
C24   H8    S    
C32   C33   A    
C9    C15   A    
C37   H23   S    
C11   C13   A    
Cu1   O5    S    
C11   H2    S    
C38   H28   S    
C32   H11   S    
C5    C15   S    
C4    C31   S    
C10   C11   A    
C31   O7    A    
C22   H7    S    
C20   C21   A    
C14   C15   A    
C13   C14   A    
C29   H14   S    
C28   N2    A    
