data_mof_unit_31677.cif
_audit_creation_date              2013-03-05T16:43:53-0500
_audit_creation_method            fapswitch 2.2
_symmetry_space_group_name_H-M    P1
_symmetry_Int_Tables_number       1
_space_group_crystal_system       triclinic
_cell_length_a                    9.828521
_cell_length_b                    10.654452
_cell_length_c                    16.488093
_cell_angle_alpha                 89.659005
_cell_angle_beta                  85.483788
_cell_angle_gamma                 89.333252
_cell_volume                      1721.09255963

loop_
_atom_site_label
_atom_site_type_symbol
_atom_site_description
_atom_site_fract_x
_atom_site_fract_y
_atom_site_fract_z
_atom_type_partial_charge
O1    O     O_R   0.385310 0.683210 0.499990 -0.604302
O2    O     O_R   0.614650 0.683240 0.500000 -0.598461
C1    C     C_R   0.500354 0.739623 0.492710 0.924687
O3    O     O_R   0.371780 0.500000 0.615800 -0.600697
O4    O     O_R   0.601120 0.500040 0.615800 -0.622253
C2    C     C_R   0.481456 0.506562 0.653746 0.975154
Zn1   Zn    Zn3+2 0.346870 0.499980 0.499990 1.032909
Zn2   Zn    Zn3+2 0.653130 0.500020 0.500010 1.039232
O5    O     O_R   0.385350 0.316760 0.500000 -0.614900
O6    O     O_R   0.614690 0.316790 0.500010 -0.582152
O7    O     O_R   0.398880 0.499960 0.384200 -0.589371
O8    O     O_R   0.628220 0.500000 0.384200 -0.601626
C3    C     C_R   0.501408 0.259391 0.495864 0.972212
C4    C     C_R   0.518214 0.507459 0.346027 0.921940
C5    C     C_R   0.471378 0.558507 0.735631 -0.175977
C6    C     C_R   0.552485 0.662782 0.748320 -0.333796
C7    C     C_R   0.544496 0.724281 0.822617 -0.018160
C8    C     C_R   0.452581 0.679631 0.885743 -0.016937
C9    C     C_R   0.362534 0.580586 0.872002 0.219125
C10   C     C_R   0.372825 0.518865 0.796486 0.176260
C11   C     C_R   0.432590 0.628755 0.140791 -0.184684
C12   C     C_R   0.417736 0.596805 0.222608 0.310825
C13   C     C_R   0.654045 0.523734 0.213516 -0.213108
C14   C     C_R   0.670750 0.560913 0.131774 0.330665
C15   C     C_R   0.557717 0.612437 0.094780 -0.011518
C16   C     C_2   0.476522 0.706850 0.970026 -0.056568
C17   C     C_2   0.562608 0.630156 0.006144 -0.091472
C18   C     C_R   0.528601 0.540349 0.259272 -0.219766
H1    H     H_    0.621809 0.697605 0.699149 0.160644
H2    H     H_    0.740340 0.483642 0.241984 0.222160
H3    H     H_    0.626821 0.565690 0.968710 0.189503
H4    H     H_    0.343709 0.665122 0.113438 0.215623
H5    H     H_    0.410287 0.773790 0.003628 0.200675
C19   C     C_R   0.379661 0.937016 0.474525 0.110445
C20   C     C_R   0.501633 0.869428 0.470597 -0.227210
C21   C     C_R   0.624655 0.931724 0.446588 0.207001
C22   C     C_R   0.626801 0.062749 0.452542 0.232919
C23   C     C_R   0.504346 0.127920 0.477982 -0.254894
C24   C     C_R   0.381031 0.064474 0.478036 -0.024341
C25   C     C_3   0.249562 0.069164 0.530986 0.146342
C26   C     C_3   0.249618 0.926371 0.527592 -0.454390
H6    H     H_    0.164416 0.114336 0.500472 0.158378
H7    H     H_    0.263842 0.878605 0.586546 0.211444
H8    H     H_    0.165394 0.888929 0.493897 0.238339
C27   C     C_R   0.922033 0.588195 0.543184 0.282159
N1    N     N_R   0.857140 0.500860 0.500530 -0.123717
C28   C     C_R   0.935590 0.423742 0.449511 -0.011914
H9    H     H_    0.887067 0.361639 0.409420 0.202937
C29   C     C_R   0.079780 0.422855 0.449995 -0.031995
H10   H     H_    0.140372 0.358624 0.411080 0.160366
N2    N     N_R   0.142780 0.500820 0.500530 -0.112152
C30   C     C_R   0.064780 0.588237 0.543076 0.217560
C31   C     C_3   0.059154 0.608513 0.632539 -0.464396
C32   C     C_3   0.904656 0.608951 0.632757 -0.493254
H11   H     H_    0.100245 0.527021 0.665466 0.268644
H12   H     H_    0.101053 0.701013 0.648035 0.208902
H13   H     H_    0.856390 0.528301 0.666557 0.246007
H14   H     H_    0.858108 0.702240 0.647953 0.204464
N3    N     N_R   0.802623 0.546906 0.087850 0.228102
O9    O     O_R   0.845120 0.629801 0.033636 -0.296995
O10   O     O_R   0.887536 0.460231 0.108937 -0.281166
N4    N     N_R   0.746130 0.863568 0.418197 0.253146
O11   O     O_R   0.742345 0.783778 0.358984 -0.338217
O12   O     O_R   0.860617 0.881119 0.450862 -0.341651
N5    N     N_R   0.752440 0.126988 0.433831 0.227997
O13   O     O_R   0.835138 0.143219 0.490646 -0.362962
O14   O     O_R   0.795977 0.144990 0.358162 -0.356475
N6    N     N_R   0.264191 0.117018 0.612753 0.249005
O15   O     O_R   0.175094 0.197583 0.644356 -0.292777
O16   O     O_R   0.361912 0.076805 0.655497 -0.342386
N7    N     N_R   0.290861 0.627288 0.267601 0.222532
O17   O     O_R   0.176478 0.592243 0.240533 -0.308799
O18   O     O_R   0.288093 0.711403 0.324633 -0.358512
N8    N     N_R   0.270390 0.535358 0.937475 0.236450
O19   O     O_R   0.271038 0.417220 0.957939 -0.265322
O20   O     O_R   0.192040 0.613628 0.980282 -0.304974
N9    N     N_R   0.288828 0.412801 0.783233 0.234572
O21   O     O_R   0.344675 0.308544 0.755926 -0.277364
O22   O     O_R   0.158321 0.416801 0.803903 -0.295223
C33   C     C_2   0.637147 0.831579 0.832133 0.547819
H15   H     H_    0.717241 0.851656 0.784813 0.061467
O23   O     O_2   0.623939 0.900303 0.891283 -0.491781

loop_
_geom_bond_atom_site_label_1
_geom_bond_atom_site_label_2
_geom_bond_distance
_ccdc_geom_bond_type
C9    C10   1.407604 A    
C8    C16   1.458946 S    
C28   C29   1.417747 A    
C31   C32   1.518166 S    
Zn1   O7    1.937136 S    
C16   C17   1.340034 D    
N4    O11   1.301393 A    
N8    O20   1.301174 A    
C10   N9    1.435058 S    
C21   C22   1.400550 A    
C8    C9    1.415751 A    
C23   C24   1.394561 A    
Zn2   O6    1.992750 S    
O7    C4    1.289765 A    
C5    C6    1.401131 A    
C19   C20   1.388565 A    
O5    C3    1.285078 A    
N4    O12   1.301044 A    
C2    C5    1.457915 S    
C20   C21   1.414001 A    
N6    O15   1.300435 A    
C29   N2    1.367174 A    
C22   N5    1.430256 S    
C13   C14   1.400247 A    
C25   H6    1.113176 S    
N3    O9    1.301509 A    
C12   C18   1.413761 A    
C11   C12   1.386255 A    
C26   H7    1.112330 S    
C19   C26   1.496047 S    
O3    Zn1   1.944145 S    
C21   N4    1.437968 S    
C31   H11   1.110169 S    
C5    C10   1.405296 A    
C11   H4    1.081079 S    
N3    O10   1.301590 A    
N8    O19   1.301270 A    
C17   H3    1.088420 S    
N2    C30   1.361525 A    
C13   H2    1.083515 S    
C14   C15   1.412851 A    
O3    C2    1.291051 A    
C24   C25   1.501897 S    
N7    O18   1.301386 A    
C6    C7    1.389023 A    
C27   C30   1.402856 A    
N5    O14   1.300578 A    
C6    H1    1.083737 S    
N9    O21   1.300279 A    
C7    C33   1.486482 S    
C19   C24   1.359833 A    
O1    C1    1.283649 A    
C22   C23   1.418150 A    
C16   H5    1.084675 S    
C28   H9    1.079078 S    
C1    C20   1.428100 S    
Zn2   O8    1.944145 S    
C7    C8    1.407751 A    
N9    O22   1.301268 A    
C13   C18   1.403798 A    
C3    C23   1.432651 S    
C33   O23   1.220859 D    
C25   C26   1.522740 S    
O8    C4    1.294617 A    
C27   C32   1.490840 S    
C29   H10   1.081770 S    
C26   H8    1.111660 S    
C12   N7    1.434769 S    
C30   C31   1.488707 S    
C32   H14   1.110999 S    
C31   H12   1.111370 S    
Zn1   O5    1.984084 S    
C11   C15   1.402805 A    
N1    C28   1.366964 A    
O1    Zn1   1.992749 S    
C9    N8    1.437968 S    
O2    Zn2   1.984083 S    
C33   H15   1.086001 S    
O6    C3    1.283221 A    
O4    Zn2   1.937136 S    
C15   C17   1.469548 S    
O2    C1    1.281394 A    
Zn1   N2    2.005137 S    
N7    O17   1.301236 A    
O4    C2    1.289289 A    
C14   N3    1.440709 S    
Zn2   N1    2.005934 S    
C27   N1    1.363627 A    
N6    O16   1.302360 A    
N5    O13   1.301224 A    
C25   N6    1.462408 S    
C4    C18   1.466694 S    
C32   H13   1.111821 S    
