data_mof_unit_53741.cif
_audit_creation_date              2012-12-10T20:32:00-0500
_audit_creation_method            fapswitch 2.2
_symmetry_space_group_name_H-M    P1
_symmetry_Int_Tables_number       1
_space_group_crystal_system       triclinic
_cell_length_a                    9.875534
_cell_length_b                    10.679915
_cell_length_c                    15.478413
_cell_angle_alpha                 90.144035
_cell_angle_beta                  67.643427
_cell_angle_gamma                 89.936636
_cell_volume                      1509.78960778

loop_
_atom_site_label
_atom_site_type_symbol
_atom_type_description
_atom_site_fract_x
_atom_site_fract_y
_atom_site_fract_z
_atom_type_partial_charge
C1    C     C_R   0.502006 0.739925 0.496471 0.944035
C2    C     C_R   0.395179 0.548959 0.918346 0.082113
C3    C     C_R   0.255557 0.498522 0.972377 -0.104364
C4    C     C_R   0.495137 0.579550 0.961248 0.049139
C5    C     C_R   0.460324 0.544097 0.055239 0.080379
C6    C     C_R   0.315839 0.504687 0.109088 -0.166503
C7    C     C_R   0.215020 0.483470 0.068240 -0.063988
C8    C     C_R   0.630201 0.640679 0.912965 -0.295956
C9    C     C_R   0.733233 0.656492 0.953185 0.673859
C10   C     C_R   0.705843 0.610276 0.042460 -0.053180
C11   C     C_R   0.570471 0.550916 0.092844 0.007675
C12   C     C_R   0.407830 0.501054 0.676177 0.958337
C13   C     C_R   0.810533 0.623849 0.083091 -0.124811
C14   C     C_R   0.779925 0.582358 0.174028 0.622073
C15   C     C_R   0.549813 0.498164 0.179272 -0.255158
C16   C     C_R   0.381464 0.936353 0.493482 -0.030780
C17   C     C_R   0.509597 0.871167 0.481031 -0.305176
C18   C     C_R   0.644316 0.934707 0.449922 0.557182
C19   C     C_R   0.644367 0.064456 0.450106 0.530304
C20   C     C_R   0.509719 0.128595 0.481467 -0.310527
C21   C     C_R   0.381492 0.063866 0.493965 -0.020904
C22   C     C_3   0.233072 0.070809 0.570651 0.566784
C23   C     C_R   0.502177 0.260046 0.496509 1.011104
C24   C     C_3   0.233020 0.928797 0.569917 -0.474375
C25   C     C_R   0.901292 0.591056 0.546637 0.275668
C26   C     C_R   0.959734 0.417364 0.446864 -0.163972
C27   C     C_R   0.103563 0.417066 0.446962 0.636818
C28   C     C_R   0.044125 0.591593 0.546096 0.072044
C29   C     C_3   0.990806 0.618833 0.647946 -0.399247
C30   C     C_3   0.836744 0.615821 0.649118 -0.508340
C31   C     C_R   0.591720 0.501536 0.323801 0.907030
C32   C     C_R   0.347184 0.507485 0.778142 -0.287650
C33   C     C_R   0.647072 0.521361 0.222942 -0.186451
C34   C     C_R   0.160718 0.459436 0.929061 0.543791
C35   C     C_R   0.207348 0.461983 0.832056 0.601621
C36   C     C_R   0.435599 0.556271 0.821647 -0.337172
H1    H     H_    0.930194 0.349277 0.405265 0.226729
H2    H     H_    0.780065 0.707922 0.665974 0.214110
N1    N     N_R   0.856900 0.500860 0.500610 -0.139634
N2    N     N_R   0.142540 0.500820 0.500610 -0.156171
O1    O     O_R   0.385310 0.683210 0.499990 -0.626258
O2    O     O_R   0.614650 0.683240 0.500000 -0.559295
O3    O     O_R   0.319830 0.499970 0.632240 -0.571744
O4    O     O_R   0.549170 0.500000 0.632250 -0.635904
O5    O     O_R   0.385350 0.316760 0.500000 -0.564991
O6    O     O_R   0.614690 0.316790 0.500010 -0.579629
O7    O     O_R   0.450830 0.500000 0.367750 -0.599444
O8    O     O_R   0.680170 0.500030 0.367760 -0.554478
Zn1   Zn    Zn3+2 0.346870 0.499980 0.499990 1.038928
Zn2   Zn    Zn3+2 0.653130 0.500020 0.500010 1.046057
H3    H     H_    0.107108 0.449601 0.111514 0.226823
H4    H     H_    0.913767 0.670438 0.045966 0.209483
F1    F     F_    0.773921 0.872823 0.425212 -0.589281
F2    F     F_    0.774013 0.125730 0.425453 -0.614526
F3    F     F_    0.237571 0.119627 0.652529 -0.609734
H5    H     H_    0.148988 0.114231 0.548646 0.123311
H6    H     H_    0.235329 0.886107 0.634831 0.227330
H7    H     H_    0.150615 0.888625 0.544913 0.186644
F4    F     F_    0.201988 0.331084 0.394903 -0.651978
H8    H     H_    0.013594 0.541397 0.688250 0.277740
H9    H     H_    0.455377 0.441079 0.215888 0.205334
H10   H     H_    0.024296 0.713155 0.662715 0.219139
H11   H     H_    0.773241 0.534685 0.688892 0.223109
F5    F     F_    0.876450 0.606964 0.215082 -0.643244
F6    F     F_    0.860949 0.715713 0.903774 -0.656643
F7    F     F_    0.027185 0.410568 0.979984 -0.628822
F8    F     F_    0.119240 0.413793 0.791140 -0.599981
H12   H     H_    0.539609 0.593362 0.777489 0.184432
H13   H     H_    0.276699 0.490934 0.183624 0.168975
H14   H     H_    0.658002 0.680886 0.844701 0.172210

loop_
_geom_bond_atom_site_label_1
_geom_bond_atom_site_label_2
_ccdc_geom_bond_type
C16   C24   S    
C6    H13   S    
C2    C4    A    
C3    C7    A    
C31   C33   S    
C26   H1    S    
C29   C30   S    
C23   O5    A    
O5    Zn1   S    
C12   O3    A    
C13   H4    S    
C9    C10   A    
O6    Zn2   S    
C1    C17   S    
C19   C20   A    
C3    C34   A    
C20   C23   S    
C35   F8    S    
C27   N2    A    
C4    C8    A    
C14   F5    S    
C34   F7    S    
C14   C33   A    
O8    Zn2   S    
C17   C18   A    
C15   H9    S    
C7    H3    S    
C10   C13   A    
O7    Zn1   S    
C23   O6    A    
C27   F4    S    
C21   C22   S    
C25   N1    A    
C25   C28   A    
C26   C27   A    
C22   F3    S    
C11   C15   A    
O2    Zn2   S    
C30   H11   S    
C32   C36   A    
C19   F2    S    
O1    Zn1   S    
C28   C29   S    
C5    C11   A    
C6    C7    A    
C2    C3    A    
C31   O8    A    
C5    C6    A    
C22   C24   S    
C26   N1    A    
C12   C32   S    
C10   C11   A    
C28   N2    A    
C22   H5    S    
C2    C36   A    
N2    Zn1   S    
C24   H7    S    
C1    O2    A    
N1    Zn2   S    
C18   C19   A    
C20   C21   A    
C30   H2    S    
C12   O4    A    
C34   C35   A    
C24   H6    S    
O4    Zn2   S    
C25   C30   S    
C16   C21   A    
C29   H10   S    
C4    C5    A    
C31   O7    A    
C18   F1    S    
C13   C14   A    
C29   H8    S    
C8    H14   S    
C36   H12   S    
C15   C33   A    
O3    Zn1   S    
C32   C35   A    
C1    O1    A    
C16   C17   A    
C8    C9    A    
C9    F6    S    
