data_mof_unit_26687.cif
_audit_creation_date              2013-03-05T15:55:55-0500
_audit_creation_method            fapswitch 2.2
_symmetry_space_group_name_H-M    P1
_symmetry_Int_Tables_number       1
_space_group_crystal_system       triclinic
_cell_length_a                    21.635191
_cell_length_b                    7.18275
_cell_length_c                    14.8412
_cell_angle_alpha                 90.146735
_cell_angle_beta                  105.738825
_cell_angle_gamma                 90.067058
_cell_volume                      2219.8451615

loop_
_atom_site_label
_atom_site_type_symbol
_atom_site_description
_atom_site_fract_x
_atom_site_fract_y
_atom_site_fract_z
_atom_type_partial_charge
O1    O     O_R   0.335860 0.638190 0.002110 -0.587001
O2    O     O_R   0.664140 0.361810 0.997890 -0.587116
O3    O     O_R   0.164140 0.138190 0.997890 -0.589773
O4    O     O_R   0.835860 0.861810 0.002110 -0.589355
O5    O     O_R   0.217530 0.305920 0.861960 -0.588366
O6    O     O_R   0.782470 0.694080 0.138040 -0.588073
O7    O     O_R   0.282470 0.805920 0.138040 -0.585266
O8    O     O_R   0.717530 0.194080 0.861960 -0.585928
C1    C     C_R   0.205451 0.476376 0.825990 1.013707
C2    C     C_R   0.794418 0.523637 0.174010 1.015283
C3    C     C_R   0.294401 0.976969 0.173973 1.015499
C4    C     C_R   0.705679 0.022984 0.826031 1.014411
O9    O     O_R   0.338690 0.308320 0.993240 -0.588364
O10   O     O_R   0.661310 0.691680 0.006760 -0.588207
O11   O     O_R   0.161310 0.808320 0.006760 -0.586066
O12   O     O_R   0.838690 0.191680 0.993240 -0.586883
O13   O     O_R   0.286170 0.140430 0.130100 -0.580290
O14   O     O_R   0.713830 0.859570 0.869900 -0.580113
O15   O     O_R   0.213830 0.640430 0.869900 -0.576396
O16   O     O_R   0.786170 0.359570 0.130100 -0.576700
C5    C     C_R   0.364988 0.477253 0.997838 0.923919
C6    C     C_R   0.635012 0.522747 0.002160 0.923627
C7    C     C_R   0.135014 0.977124 0.002179 0.927832
C8    C     C_R   0.864985 0.022876 0.997817 0.926738
O17   O     O_3   0.232630 0.472410 0.044750 -0.287969
O18   O     O_3   0.767370 0.527590 0.955250 -0.288208
O19   O     O_3   0.267370 0.972410 0.955250 -0.287939
O20   O     O_3   0.732630 0.027590 0.044750 -0.287573
V1    V     V_3+5 0.253220 0.196620 0.991700 1.221192
V2    V     V_3+5 0.746780 0.803380 0.008300 1.221739
V3    V     V_3+5 0.246780 0.696620 0.008300 1.229302
V4    V     V_3+5 0.753220 0.303380 0.991700 1.228478
C9    C     C_R   0.029319 0.826207 0.000994 -0.071062
C10   C     C_R   0.970680 0.173795 0.999003 -0.073149
C11   C     C_R   0.470011 0.326379 0.996091 -0.097406
C12   C     C_R   0.529988 0.673619 0.003904 -0.097109
H1    H     H_    0.050651 0.689780 0.001448 0.150290
H2    H     H_    0.949351 0.310224 0.998565 0.149809
H3    H     H_    0.448134 0.190036 0.993237 0.149766
H4    H     H_    0.551864 0.809962 0.006758 0.149829
C13   C     C_R   0.964375 0.837737 0.999375 -0.095863
C14   C     C_R   0.035623 0.162265 0.000614 -0.096183
C15   C     C_R   0.534949 0.337744 0.997638 -0.067215
C16   C     C_R   0.465049 0.662253 0.002350 -0.066786
H5    H     H_    0.937999 0.709355 0.998852 0.156572
H6    H     H_    0.061999 0.290645 0.001139 0.156825
H7    H     H_    0.560773 0.209416 0.995714 0.157603
H8    H     H_    0.439224 0.790582 0.004262 0.157685
C17   C     C_R   0.934027 0.011721 0.998345 -0.138996
C18   C     C_R   0.065971 0.988280 0.001645 -0.138505
C19   C     C_R   0.565964 0.511547 0.001588 -0.142290
C20   C     C_R   0.434035 0.488452 0.998407 -0.142188
C21   C     C_R   0.675978 0.013872 0.725218 -0.243714
C22   C     C_R   0.324297 0.985585 0.274766 -0.259910
C23   C     C_R   0.823869 0.517608 0.274985 -0.243986
C24   C     C_R   0.175484 0.482689 0.725114 -0.242296
C25   C     C_R   0.689413 0.013113 0.568318 0.050040
C26   C     C_R   0.310885 0.981558 0.431242 0.051270
C27   C     C_R   0.810011 0.514049 0.431652 0.054242
C28   C     C_R   0.188363 0.484869 0.567890 0.053226
C29   C     C_R   0.715441 0.001292 0.665237 -0.266591
C30   C     C_R   0.284977 0.997250 0.334955 -0.239459
C31   C     C_R   0.784601 0.534913 0.335020 -0.272025
C32   C     C_R   0.214198 0.463083 0.664386 -0.275389
C33   C     C_R   0.608880 0.028165 0.689310 0.276463
C34   C     C_R   0.391370 0.969108 0.310530 0.278436
C35   C     C_R   0.890451 0.490154 0.310873 0.276334
C36   C     C_R   0.108978 0.513428 0.690006 0.277863
C37   C     C_R   0.580729 0.011429 0.590897 -0.069145
C38   C     C_R   0.419657 0.983674 0.409048 -0.058838
C39   C     C_R   0.918755 0.501238 0.409476 -0.068905
C40   C     C_R   0.080145 0.504365 0.591480 -0.068937
C41   C     C_R   0.622072 0.023793 0.531139 0.124247
C42   C     C_R   0.378330 0.970280 0.468898 0.102749
C43   C     C_R   0.877130 0.494481 0.469045 0.126026
C44   C     C_R   0.121460 0.510060 0.531488 0.126397
C45   C     C_R   0.513167 0.987050 0.549255 0.086163
C46   C     C_R   0.487285 0.007423 0.450603 0.088832
C47   C     C_R   0.986646 0.516121 0.451368 0.088870
C48   C     C_R   0.012124 0.492148 0.549913 0.089590
C49   C     C_R   0.529481 0.059788 0.397583 -0.093352
C50   C     C_R   0.471077 0.934350 0.602300 -0.078916
C51   C     C_R   0.968993 0.447608 0.602681 -0.095336
C52   C     C_R   0.029639 0.563183 0.398767 -0.094708
C53   C     C_R   0.595477 0.055566 0.435542 -0.215520
C54   C     C_R   0.405094 0.938319 0.564503 -0.223215
C55   C     C_R   0.903181 0.461454 0.564686 -0.212960
C56   C     C_R   0.095440 0.548466 0.436430 -0.206171
H9    H     H_    0.625639 0.084320 0.389672 0.143715
H10   H     H_    0.375342 0.909963 0.610892 0.130249
H11   H     H_    0.872740 0.439817 0.610839 0.140561
H12   H     H_    0.126018 0.573008 0.390699 0.145349
H13   H     H_    0.233342 0.007430 0.306528 0.133087
H14   H     H_    0.767013 0.991866 0.694471 0.125476
H15   H     H_    0.265318 0.440488 0.692894 0.126124
H16   H     H_    0.733377 0.554297 0.305819 0.126415
H17   H     H_    0.512621 0.105791 0.326098 0.173522
H18   H     H_    0.488066 0.888467 0.673805 0.171334
H19   H     H_    0.984890 0.400351 0.674026 0.173684
H20   H     H_    0.013540 0.612524 0.327775 0.173461
N1    N     N_R   0.428147 0.907974 0.248458 0.211943
O21   O     O_R   0.425185 0.997006 0.171118 -0.451589
O22   O     O_R   0.462839 0.757885 0.267568 -0.407467
N2    N     N_R   0.571831 0.089364 0.751011 0.211571
O23   O     O_R   0.536771 0.238639 0.731257 -0.407566
O24   O     O_R   0.574884 0.001208 0.828617 -0.451889
N3    N     N_R   0.073844 0.580209 0.753137 0.214044
O25   O     O_R   0.042303 0.736111 0.735821 -0.405633
O26   O     O_R   0.074938 0.489610 0.829407 -0.453199
N4    N     N_R   0.926399 0.424889 0.248493 0.214248
O27   O     O_R   0.925196 0.515173 0.172090 -0.452455
O28   O     O_R   0.958774 0.270493 0.266577 -0.404726
N5    N     N_3   0.731087 0.014523 0.507437 -0.222568
H21   H     H_    0.779282 0.011929 0.546264 0.118025
H22   H     H_    0.722831 0.891693 0.468104 0.118011
N6    N     N_3   0.267471 0.978375 0.489072 -0.210550
H23   H     H_    0.271641 0.850061 0.523150 0.119179
H24   H     H_    0.280533 0.083773 0.539381 0.105041
N7    N     N_3   0.767994 0.515904 0.492042 -0.216443
H25   H     H_    0.720886 0.546066 0.453988 0.114322
H26   H     H_    0.766851 0.381076 0.517745 0.115373
N8    N     N_3   0.229709 0.480342 0.506556 -0.220517
H27   H     H_    0.277769 0.466958 0.544896 0.111350
H28   H     H_    0.218207 0.360959 0.464911 0.119371

loop_
_geom_bond_atom_site_label_1
_geom_bond_atom_site_label_2
_geom_bond_distance
_ccdc_geom_bond_type
O17   V3    1.753009 S    
C51   C55   1.385739 A    
C26   C30   1.391175 A    
N1    O21   1.301726 A    
C55   H11   1.082636 S    
O19   V1    1.751122 S    
O13   V1    2.025004 S    
C37   C45   1.434570 A    
C10   C14   1.401320 A    
C40   C44   1.423107 A    
O15   V3    2.022575 S    
N2    O24   1.301707 A    
O4    V2    1.998319 S    
C45   C46   1.426576 A    
O1    C5    1.326810 A    
O9    V1    2.009262 S    
C47   C52   1.408344 A    
O4    C8    1.326642 A    
C38   C46   1.435118 A    
O1    V3    1.999167 S    
N6    H23   1.044598 S    
O2    V4    1.999165 S    
C14   H6    1.082747 S    
C25   C41   1.413273 A    
C25   C29   1.398076 A    
O3    V1    1.998316 S    
O3    C7    1.326644 A    
C38   C42   1.424350 A    
N4    O27   1.301834 A    
C21   C29   1.393442 A    
C1    O15   1.333246 A    
C56   H12   1.083198 S    
C2    O16   1.333328 A    
C23   C31   1.393345 A    
O2    C6    1.326808 A    
N3    O25   1.301457 A    
C24   C32   1.393867 A    
C37   C41   1.423047 A    
O14   V2    2.025005 S    
C36   N3    1.438993 S    
C21   C33   1.408126 A    
C44   C56   1.398136 A    
C4    C21   1.460682 S    
C36   C40   1.426918 A    
C16   C20   1.410133 A    
O11   C7    1.333955 A    
O12   C8    1.333952 A    
C51   H19   1.076666 S    
C26   N6    1.434136 S    
N3    O26   1.301766 A    
C34   N1    1.439101 S    
O10   V2    2.009258 S    
C48   C51   1.408349 A    
C13   C17   1.410536 A    
N2    O23   1.301466 A    
O5    V1    2.030439 S    
N7    H26   1.044483 S    
O7    V3    2.025921 S    
C50   H18   1.077200 S    
O8    V4    2.025921 S    
C12   H4    1.082910 S    
C54   H10   1.081954 S    
C53   H9    1.083208 S    
C29   H14   1.084190 S    
C7    C18   1.493877 S    
C25   N5    1.439227 S    
C22   C30   1.393093 A    
C9    C18   1.406311 A    
C50   C54   1.385337 A    
C31   H16   1.084206 S    
C28   C44   1.413028 A    
C9    H1    1.082907 S    
C39   C47   1.435044 A    
C52   H20   1.077093 S    
O7    C3    1.334804 A    
O5    C1    1.334431 A    
C35   N4    1.439106 S    
O8    C4    1.334955 A    
O9    C5    1.333269 A    
C1    C24   1.462050 S    
C42   C54   1.399103 A    
C28   N8    1.439279 S    
C2    C23   1.461514 S    
C3    C22   1.460960 S    
C41   C53   1.398282 A    
C12   C19   1.406636 A    
C14   C18   1.410538 A    
C22   C34   1.408674 A    
C43   C55   1.398832 A    
O6    V2    2.030438 S    
C12   C16   1.401168 A    
N8    H28   1.045256 S    
C27   C43   1.414257 A    
C11   C15   1.401172 A    
C26   C42   1.416416 A    
N5    H21   1.045851 S    
O16   V4    2.022573 S    
C8    C17   1.493875 S    
C3    O13   1.332551 A    
C10   C17   1.406319 A    
C27   N7    1.439373 S    
C10   H2    1.082923 S    
C52   C56   1.385366 A    
C32   H15   1.084182 S    
O6    C2    1.334101 A    
C23   C35   1.408047 A    
N7    H25   1.045704 S    
O11   V3    2.011032 S    
O18   V4    1.753010 S    
O12   V4    2.011036 S    
C27   C31   1.398213 A    
C28   C32   1.398188 A    
C9    C13   1.401311 A    
O10   C6    1.333271 A    
O20   V2    1.751121 S    
C40   C48   1.435602 A    
C24   C36   1.408966 A    
C39   C43   1.423734 A    
C46   C49   1.408722 A    
C15   C19   1.410140 A    
C34   C38   1.427212 A    
C49   H17   1.077005 S    
C45   C50   1.407804 A    
C33   C37   1.426539 A    
C11   H3    1.082911 S    
N6    H24   1.045279 S    
C35   C39   1.426863 A    
N4    O28   1.301485 A    
C47   C48   1.427104 A    
N1    O22   1.301520 A    
C30   H13   1.084434 S    
C4    O14   1.332219 A    
C11   C20   1.406639 A    
C13   H5    1.082752 S    
C33   N2    1.439175 S    
N8    H27   1.045813 S    
C15   H7    1.082733 S    
C5    C20   1.493651 S    
C49   C53   1.385935 A    
C16   H8    1.082722 S    
C6    C19   1.493648 S    
N5    H22   1.044737 S    
