data_mof_unit_13437.cif
_audit_creation_date              2012-12-11T14:39:41-0500
_audit_creation_method            fapswitch 2.2
_symmetry_space_group_name_H-M    P1
_symmetry_Int_Tables_number       1
_space_group_crystal_system       triclinic
_cell_length_a                    7.217588
_cell_length_b                    14.082482
_cell_length_c                    16.311103
_cell_angle_alpha                 89.999952
_cell_angle_beta                  97.306413
_cell_angle_gamma                 89.999458
_cell_volume                      1644.42416375

loop_
_atom_site_label
_atom_site_type_symbol
_atom_type_description
_atom_site_fract_x
_atom_site_fract_y
_atom_site_fract_z
_atom_type_partial_charge
O1    O     O_R   0.525340 0.338340 0.164530 -0.539964
O2    O     O_R   0.474660 0.661660 0.835470 -0.539963
O3    O     O_R   0.974660 0.838340 0.835470 -0.539963
O4    O     O_R   0.025340 0.161660 0.164530 -0.539963
O5    O     O_R   0.253520 0.352000 0.336710 -0.543913
O6    O     O_R   0.746480 0.648000 0.663290 -0.543912
O7    O     O_R   0.246480 0.852000 0.663290 -0.543914
O8    O     O_R   0.753520 0.148000 0.336710 -0.543914
O9    O     O_R   0.083330 0.168380 0.337300 -0.531601
O10   O     O_R   0.916670 0.831620 0.662700 -0.531601
O11   O     O_R   0.416670 0.668380 0.662700 -0.531600
O12   O     O_R   0.583330 0.331620 0.337300 -0.531600
C1    C     C_R   0.432246 0.368809 0.363616 0.694790
C2    C     C_R   0.567754 0.631191 0.636384 0.694790
C3    C     C_R   0.067754 0.868810 0.636385 0.694792
C4    C     C_R   0.932245 0.131189 0.363615 0.694791
O13   O     O_R   0.195840 0.349670 0.165140 -0.543940
O14   O     O_R   0.804160 0.650330 0.834860 -0.543940
O15   O     O_R   0.304160 0.849670 0.834860 -0.543943
O16   O     O_R   0.695840 0.150330 0.165140 -0.543943
C5    C     C_R   0.357227 0.371995 0.137706 0.738063
C6    C     C_R   0.642773 0.628005 0.862294 0.738063
C7    C     C_R   0.142772 0.871995 0.862294 0.738062
C8    C     C_R   0.857228 0.128005 0.137706 0.738062
O17   O     O_3   0.387830 0.193120 0.250910 -0.374845
O18   O     O_3   0.612170 0.806880 0.749090 -0.374845
O19   O     O_3   0.112170 0.693120 0.749090 -0.374845
O20   O     O_3   0.887830 0.306880 0.250910 -0.374845
V1    V     V_3+5 0.113010 0.264540 0.250910 1.418065
V2    V     V_3+5 0.886990 0.735460 0.749090 1.418065
V3    V     V_3+5 0.386990 0.764540 0.749090 1.418061
V4    V     V_3+5 0.613010 0.235460 0.250910 1.418061
H1    H     H_    0.789514 0.807566 0.265715 0.125752
H2    H     H_    0.210488 0.192434 0.734285 0.125752
H3    H     H_    0.710263 0.307565 0.734302 0.125738
H4    H     H_    0.289737 0.692435 0.265698 0.125739
C9    C     C_R   0.065233 0.196714 0.527913 -0.240103
C10   C     C_R   0.934768 0.803286 0.472087 -0.240103
C11   C     C_R   0.434870 0.696712 0.472080 -0.240081
C12   C     C_R   0.565130 0.303288 0.527919 -0.240081
C13   C     C_R   0.129111 0.230803 0.607438 0.409235
C14   C     C_R   0.870891 0.769197 0.392561 0.409235
C15   C     C_R   0.371032 0.730801 0.392551 0.409273
C16   C     C_R   0.628969 0.269199 0.607449 0.409273
C17   C     C_R   0.161734 0.166851 0.672704 -0.063158
C18   C     C_R   0.838267 0.833148 0.327296 -0.063158
C19   C     C_R   0.338444 0.666852 0.327282 -0.063158
C20   C     C_R   0.661555 0.333148 0.672718 -0.063158
C21   C     C_R   0.130735 0.070051 0.659750 -0.185974
C22   C     C_R   0.869265 0.929949 0.340250 -0.185974
C23   C     C_R   0.369403 0.570052 0.340241 -0.185940
C24   C     C_R   0.630596 0.429948 0.659759 -0.185940
C25   C     C_R   0.066904 0.034153 0.580166 0.068145
C26   C     C_R   0.933096 0.965847 0.419834 0.068145
C27   C     C_R   0.433165 0.534153 0.419829 0.068158
C28   C     C_R   0.566835 0.465847 0.580171 0.068158
C29   C     C_R   0.033956 0.098486 0.513047 0.019482
C30   C     C_R   0.966044 0.901514 0.486953 0.019482
C31   C     C_R   0.466106 0.598486 0.486949 0.019464
C32   C     C_R   0.533894 0.401514 0.513051 0.019464
C33   C     C_R   0.032664 0.935946 0.566956 -0.141268
C34   C     C_R   0.967336 0.064054 0.433044 -0.141268
C35   C     C_R   0.467338 0.435946 0.433045 -0.141270
C36   C     C_R   0.532662 0.564054 0.566955 -0.141270
H5    H     H_    0.138003 0.066514 0.056312 0.158324
H6    H     H_    0.861997 0.933486 0.943688 0.158324
H7    H     H_    0.361996 0.566512 0.943685 0.158325
H8    H     H_    0.638004 0.433487 0.056315 0.158325
C37   C     C_2   0.149875 0.942110 0.930502 -0.331762
C38   C     C_2   0.850124 0.057890 0.069498 -0.331762
C39   C     C_2   0.350123 0.442110 0.069497 -0.331765
C40   C     C_2   0.649877 0.557890 0.930503 -0.331765
C41   C     C_2   0.996134 0.965581 0.965553 -0.122804
C42   C     C_2   0.003866 0.034419 0.034447 -0.122804
C43   C     C_2   0.503866 0.465582 0.034447 -0.122806
C44   C     C_2   0.496134 0.534418 0.965553 -0.122806
H9    H     H_    0.716380 0.025855 0.046832 0.127812
H10   H     H_    0.283620 0.974145 0.953167 0.127812
H11   H     H_    0.783623 0.525857 0.953170 0.127813
H12   H     H_    0.216377 0.474143 0.046830 0.127813
H13   H     H_    0.038733 0.247927 0.478385 0.108672
H14   H     H_    0.961268 0.752073 0.521615 0.108672
H15   H     H_    0.461354 0.747923 0.521610 0.108652
H16   H     H_    0.538647 0.252077 0.478389 0.108652
O21   O     O_3   0.159415 0.326142 0.623355 -0.647839
H17   H     H_    0.130541 0.362177 0.571051 0.286218
O22   O     O_3   0.840587 0.673858 0.376645 -0.647839
H18   H     H_    0.869462 0.637822 0.428949 0.286218
O23   O     O_3   0.340717 0.826137 0.376636 -0.647838
H19   H     H_    0.369531 0.862167 0.428947 0.286210
O24   O     O_3   0.659284 0.173863 0.623364 -0.647838
H20   H     H_    0.630471 0.137832 0.571053 0.286210
H21   H     H_    0.156130 0.023923 0.713034 0.112608
H22   H     H_    0.843870 0.976077 0.286966 0.112608
H23   H     H_    0.344027 0.523924 0.286956 0.112580
H24   H     H_    0.655972 0.476076 0.713044 0.112580

loop_
_geom_bond_atom_site_label_1
_geom_bond_atom_site_label_2
_ccdc_geom_bond_type
O22   H18   S    
O1    C5    A    
C12   C32   A    
C27   C31   A    
O13   V1    S    
C41   C42   S    
C12   H16   S    
O3    C7    A    
C40   C44   D    
O15   V3    S    
C8    C38   S    
C29   C34   A    
O21   H17   S    
H8    C43   S    
C31   C36   A    
C15   O23   S    
C5    C39   S    
C32   C35   A    
O20   V1    S    
O9    C4    A    
C10   C14   A    
C40   H11   S    
O10   C3    A    
C26   C30   A    
O4    C8    A    
O11   C2    A    
H4    C19   S    
C14   C18   A    
C7    C37   S    
C10   C30   A    
C25   C33   A    
O16   C8    A    
C27   C35   A    
C38   C42   D    
C28   C36   A    
C37   C41   D    
O14   V2    S    
O5    C1    A    
O4    V1    S    
O9    V1    S    
C30   C33   A    
O7    C3    A    
C2    C36   S    
O18   V3    S    
O8    C4    A    
C10   H14   S    
C38   H9    S    
H1    C18   S    
C9    H13   S    
C37   H10   S    
C4    C34   S    
H3    C20   S    
C6    C40   S    
C39   H12   S    
O5    V1    S    
O7    V3    S    
O8    V4    S    
O24   H20   S    
C25   C29   A    
C22   H22   S    
C19   C23   A    
C26   C34   A    
H6    C41   S    
O1    V4    S    
O13   C5    A    
H5    C42   S    
C28   C32   A    
O2    V3    S    
O3    V2    S    
O15   C7    A    
C43   C44   S    
O2    C6    A    
O6    C2    A    
O10   V2    S    
C1    C35   S    
C17   C21   A    
C11   C31   A    
C3    C33   S    
H2    C17   S    
C22   C26   A    
C16   O24   S    
O6    V2    S    
O12   V4    S    
O16   V4    S    
O14   C6    A    
C11   C15   A    
H7    C44   S    
C13   O21   S    
C18   C22   A    
C11   H15   S    
C39   C43   D    
O17   V4    S    
C21   C25   A    
C24   H24   S    
C23   C27   A    
C9    C13   A    
O11   V3    S    
C16   C20   A    
C12   C16   A    
O12   C1    A    
C13   C17   A    
C14   O22   S    
C21   H21   S    
O23   H19   S    
C20   C24   A    
C15   C19   A    
C9    C29   A    
C24   C28   A    
C23   H23   S    
O19   V2    S    
