data_mof_unit_6045.cif
_audit_creation_date              2012-12-10T17:21:17-0500
_audit_creation_method            fapswitch 2.2
_symmetry_space_group_name_H-M    P1
_symmetry_Int_Tables_number       1
_space_group_crystal_system       triclinic
_cell_length_a                    9.669211
_cell_length_b                    10.803219
_cell_length_c                    13.890695
_cell_angle_alpha                 94.643995
_cell_angle_beta                  85.347088
_cell_angle_gamma                 91.515764
_cell_volume                      1441.18395718

loop_
_atom_site_label
_atom_site_type_symbol
_atom_type_description
_atom_site_fract_x
_atom_site_fract_y
_atom_site_fract_z
_atom_type_partial_charge
C1    C     C_R   0.502875 0.736281 0.490253 0.850124
C2    C     C_1   0.465662 0.508760 0.785847 -0.144270
C3    C     C_R   0.278977 0.874358 0.408323 0.349347
C4    C     C_R   0.146249 0.928581 0.414807 0.253945
C5    C     C_R   0.123989 0.039671 0.471439 -0.168252
C6    C     C_R   0.231515 0.101033 0.518144 0.421499
C7    C     C_R   0.369058 0.055563 0.500930 -0.184360
C8    C     C_R   0.384747 0.931739 0.462660 -0.067378
C9    C     C_R   0.507808 0.870449 0.477336 -0.179858
C10   C     C_R   0.627511 0.940732 0.499998 0.248586
C11   C     C_R   0.617509 0.067955 0.525871 0.414097
C12   C     C_R   0.477928 0.501901 0.682623 0.773037
C13   C     C_R   0.491342 0.127726 0.518264 -0.233470
C14   C     C_R   0.874689 0.374167 0.341049 0.339469
C15   C     C_R   0.953686 0.365272 0.251224 0.234987
C16   C     C_R   0.096737 0.360327 0.251520 -0.094844
C17   C     C_R   0.154912 0.372550 0.341749 0.363704
C18   C     C_R   0.081438 0.437979 0.422927 0.092712
C19   C     C_R   0.932622 0.437334 0.423214 0.050172
C20   C     C_R   0.922643 0.566411 0.570468 0.178948
C21   C     C_R   0.069234 0.559242 0.571979 -0.028350
C22   C     C_R   0.496876 0.263059 0.508598 0.894455
C23   C     C_R   0.522160 0.499959 0.317414 0.880435
C24   C     C_1   0.534865 0.497933 0.214317 -0.181640
C25   C     C_2   0.554659 0.488246 0.022801 0.376888
C26   C     C_2   0.447363 0.525238 0.977399 0.362348
C27   C     C_1   0.456103 0.516174 0.872815 -0.035682
C28   C     C_1   0.545082 0.494356 0.127389 -0.055706
Cu1   Cu    Cu3+1 0.359340 0.500010 0.500010 1.020926
Cu2   Cu    Cu3+1 0.640660 0.499990 0.499990 1.009833
H1    H     H_    0.121902 0.605750 0.630722 0.131077
H2    H     H_    0.020546 0.076786 0.481953 0.213875
N1    N     N_R   0.852210 0.498790 0.499090 -0.172724
N2    N     N_R   0.148080 0.498710 0.499060 -0.162989
O1    O     O_R   0.381190 0.680360 0.500010 -0.555646
O2    O     O_R   0.618760 0.680340 0.500000 -0.608065
O3    O     O_R   0.364420 0.499990 0.637850 -0.588187
O4    O     O_R   0.601990 0.499960 0.637840 -0.592530
O5    O     O_R   0.381240 0.319660 0.500000 -0.498060
O6    O     O_R   0.618810 0.319640 0.499990 -0.451751
O7    O     O_R   0.398010 0.500040 0.362160 -0.516648
O8    O     O_R   0.635580 0.500010 0.362150 -0.564954
O9    O     O_3   0.330567 0.572294 0.030502 -0.765547
H3    H     H_    0.263298 0.593688 0.984483 0.326004
O10   O     O_3   0.757146 0.300893 0.351534 -0.670779
H4    H     H_    0.751130 0.239798 0.294678 0.320285
O11   O     O_3   0.892795 0.345163 0.164642 -0.743657
H5    H     H_    0.793559 0.366677 0.176053 0.323379
C29   C     C_3   0.185733 0.336335 0.157196 -0.286903
C30   C     C_3   0.171879 0.201752 0.113496 -0.335269
C31   C     C_3   0.271048 0.179148 0.022882 -0.828016
H6    H     H_    0.248219 0.242664 0.967409 0.262983
H7    H     H_    0.380260 0.194679 0.041119 0.256207
H8    H     H_    0.258531 0.081788 0.992065 0.250585
H9    H     H_    0.195420 0.135750 0.166956 0.213289
H10   H     H_    0.064267 0.181797 0.093443 0.275540
H11   H     H_    0.155427 0.400922 0.104592 0.256379
H12   H     H_    0.296141 0.357861 0.168939 0.197118
O12   O     O_3   0.267144 0.302587 0.354859 -0.678822
H13   H     H_    0.286233 0.240275 0.299540 0.304320
O13   O     O_3   0.672096 0.442978 0.969347 -0.742021
H14   H     H_    0.739489 0.421137 0.015036 0.346270
O14   O     O_3   0.757015 0.889064 0.492385 -0.725703
H15   H     H_    0.764276 0.832992 0.432125 0.370130
O15   O     O_3   0.312474 0.773351 0.343741 -0.721913
H16   H     H_    0.249761 0.769136 0.290622 0.336001
O16   O     O_3   0.034362 0.872610 0.371998 -0.717220
H17   H     H_    0.047340 0.781582 0.365206 0.324304
O17   O     O_3   0.194676 0.194685 0.588353 -0.689276
H18   H     H_    0.268328 0.204099 0.634274 0.318392
O18   O     O_3   0.730407 0.136531 0.557699 -0.685738
H19   H     H_    0.801725 0.080399 0.575609 0.358947
C32   C     C_3   0.849514 0.652089 0.649650 -0.367769
C33   C     C_3   0.921233 0.780866 0.663811 -0.404071
C34   C     C_3   0.828267 0.872649 0.726720 -0.767232
H20   H     H_    0.730319 0.885606 0.692530 0.263384
H21   H     H_    0.803090 0.838273 0.799452 0.250313
H22   H     H_    0.883032 0.964032 0.735501 0.250760
H23   H     H_    0.018209 0.773772 0.700453 0.204899
H24   H     H_    0.948657 0.818458 0.592483 0.274097
H25   H     H_    0.743944 0.669823 0.632782 0.271092
H26   H     H_    0.843936 0.606884 0.718986 0.200158

loop_
_geom_bond_atom_site_label_1
_geom_bond_atom_site_label_2
_ccdc_geom_bond_type
C6    O17   S    
C32   C33   S    
C10   O14   S    
C15   O11   S    
O9    H3    S    
C2    C12   S    
C7    C8    A    
O10   H4    S    
C25   C28   S    
C21   H1    S    
C26   C27   S    
C23   O8    A    
O17   H18   S    
C5    C6    A    
C11   O18   S    
C15   C16   A    
C29   H11   S    
Cu2   O4    S    
C18   C19   A    
C12   O3    A    
C16   C17   A    
C20   C32   S    
C23   C24   S    
C2    C27   T    
C9    C10   A    
C5    H2    S    
O12   H13   S    
C33   H24   S    
C3    O15   S    
C32   H25   S    
C26   O9    S    
C17   C18   A    
C14   O10   S    
C33   C34   S    
O16   H17   S    
C1    C9    S    
C16   C29   S    
C3    C8    A    
C19   N1    A    
C8    C9    A    
C21   N2    A    
C25   C26   D    
Cu1   N2    S    
C30   H10   S    
C29   H12   S    
C31   H6    S    
C31   H7    S    
C34   H20   S    
Cu1   Cu2   S    
C18   N2    A    
O11   H5    S    
C22   O6    A    
Cu1   O5    S    
C30   C31   S    
Cu2   O6    S    
C25   O13   S    
C34   H21   S    
C17   O12   S    
C20   N1    A    
C29   C30   S    
C33   H23   S    
C3    C4    A    
C32   H26   S    
C1    O1    A    
Cu2   N1    S    
Cu1   O7    S    
C14   C19   A    
C24   C28   T    
C4    C5    A    
C4    O16   S    
C6    C7    A    
Cu1   O1    S    
C30   H9    S    
C23   O7    A    
Cu2   O2    S    
C31   H8    S    
O18   H19   S    
C11   C13   A    
C22   O5    A    
C13   C22   S    
C12   O4    A    
O13   H14   S    
C34   H22   S    
C10   C11   A    
O14   H15   S    
C7    C13   A    
C20   C21   A    
O15   H16   S    
Cu1   O3    S    
C14   C15   A    
Cu2   O8    S    
C1    O2    A    
