data_mof_unit_68041.cif
_audit_creation_date              2013-03-05T15:43:41-0500
_audit_creation_method            fapswitch 2.2
_symmetry_space_group_name_H-M    P1
_symmetry_Int_Tables_number       1
_space_group_crystal_system       triclinic
_cell_length_a                    14.696615
_cell_length_b                    15.671548
_cell_length_c                    6.948373
_cell_angle_alpha                 90.002125
_cell_angle_beta                  80.766367
_cell_angle_gamma                 90.001657
_cell_volume                      1579.60346699

loop_
_atom_site_label
_atom_site_type_symbol
_atom_site_description
_atom_site_fract_x
_atom_site_fract_y
_atom_site_fract_z
_atom_type_partial_charge
O1    O     O_R   0.337080 0.165770 0.524980 -0.559584
O2    O     O_R   0.662920 0.834230 0.475020 -0.575645
O3    O     O_R   0.662920 0.665770 0.475020 -0.559981
O4    O     O_R   0.337080 0.334230 0.524980 -0.575452
O5    O     O_R   0.348340 0.341430 0.191390 -0.571664
O6    O     O_R   0.651660 0.658570 0.808610 -0.530379
O7    O     O_R   0.651660 0.841430 0.808610 -0.571321
O8    O     O_R   0.348340 0.158570 0.191390 -0.530725
O9    O     O_R   0.165780 0.339950 0.082750 -0.581345
O10   O     O_R   0.834220 0.660050 0.917250 -0.560240
O11   O     O_R   0.834220 0.839950 0.917250 -0.581338
O12   O     O_R   0.165780 0.160050 0.082750 -0.560135
C1    C     C_R   0.370136 0.364640 0.355856 0.858285
C2    C     C_R   0.629860 0.635541 0.644180 0.857540
C3    C     C_R   0.629868 0.864640 0.644147 0.859098
C4    C     C_R   0.370144 0.135546 0.355813 0.856511
O13   O     O_3   0.191540 0.250000 0.407620 -0.299835
O14   O     O_3   0.808460 0.750000 0.592380 -0.299941
V1    V     V_3+5 0.262540 0.250000 0.108780 1.177160
V2    V     V_3+5 0.737460 0.750000 0.891220 1.177462
O15   O     O_R   0.154530 0.164290 0.756910 -0.566468
O16   O     O_R   0.845470 0.835710 0.243090 -0.567678
O17   O     O_R   0.845470 0.664290 0.243090 -0.566565
O18   O     O_R   0.154530 0.335710 0.756910 -0.567674
C5    C     C_R   0.135615 0.130839 0.930739 0.864283
C6    C     C_R   0.866500 0.867811 0.067350 0.802315
C7    C     C_R   0.864361 0.630821 0.069272 0.863373
C8    C     C_R   0.133502 0.367814 0.932658 0.802152
H1    H     H_    0.489946 0.450520 0.581998 0.114240
H2    H     H_    0.406282 0.621601 0.449415 0.140372
H3    H     H_    0.509635 0.950720 0.419708 0.113785
H4    H     H_    0.593549 0.121780 0.551908 0.140486
V3    V     V_3+5 0.240320 0.250000 0.616280 1.126715
V4    V     V_3+5 0.759680 0.750000 0.383720 1.126555
O19   O     O_3   0.311330 0.250000 0.867310 -0.260543
O20   O     O_3   0.688670 0.750000 0.132690 -0.260503
C9    C     C_3   0.071097 0.524239 0.078131 0.004461
C10   C     C_3   0.923270 0.473020 0.931630 0.015578
C11   C     C_3   0.928889 0.024219 0.921874 0.004512
C12   C     C_3   0.076711 0.973061 0.068450 0.015716
C13   C     C_3   0.029506 0.571612 0.917057 -0.108038
C14   C     C_3   0.965425 0.424984 0.090590 -0.098430
C15   C     C_3   0.970458 0.071626 0.082942 -0.108272
C16   C     C_3   0.034585 0.924990 0.909490 -0.098395
H5    H     H_    0.055949 0.631406 0.842575 0.063155
H6    H     H_    0.940951 0.364916 0.166291 0.054958
H7    H     H_    0.944001 0.131421 0.157404 0.063151
H8    H     H_    0.059093 0.864919 0.833841 0.054964
C17   C     C_3   0.932680 0.558675 0.035430 -0.087579
C18   C     C_3   0.062672 0.438220 0.971919 -0.083989
C19   C     C_3   0.067292 0.058697 0.964595 -0.087625
C20   C     C_3   0.937326 0.938218 0.028120 -0.084013
C21   C     C_3   0.973529 0.511292 0.195175 -0.085592
C22   C     C_3   0.020381 0.484998 0.810896 -0.089328
C23   C     C_3   0.026465 0.011281 0.804857 -0.085553
C24   C     C_3   0.979591 0.985030 0.189141 -0.089430
C25   C     C_2   0.515365 0.567413 0.267315 0.428039
C26   C     C_2   0.424662 0.532766 0.790337 0.339645
C27   C     C_2   0.484203 0.067743 0.733619 0.429027
C28   C     C_2   0.575194 0.032683 0.210995 0.339752
H9    H     H_    0.955551 0.521857 0.353895 0.061732
H10   H     H_    0.037741 0.473648 0.651755 0.070939
H11   H     H_    0.044430 0.021829 0.646137 0.061691
H12   H     H_    0.962227 0.973690 0.348283 0.070919
C29   C     C_2   0.456568 0.570714 0.436302 -0.180702
C30   C     C_2   0.459924 0.513296 0.605069 -0.239053
C31   C     C_2   0.543210 0.070938 0.564934 -0.179911
C32   C     C_2   0.539880 0.013404 0.396351 -0.239910
N1    N     N_R   0.387467 0.614180 0.857098 0.059995
O21   O     O_R   0.414354 0.684231 0.764602 -0.414166
O22   O     O_R   0.341784 0.619468 0.032854 -0.430872
N2    N     N_R   0.587460 0.505772 0.218940 0.045445
O23   O     O_R   0.575055 0.425905 0.266624 -0.437347
O24   O     O_R   0.659376 0.527118 0.094291 -0.392278
N3    N     N_R   0.612581 0.113975 0.143786 0.059890
O25   O     O_R   0.586182 0.184120 0.236363 -0.414417
O26   O     O_R   0.657916 0.119096 0.967680 -0.430837
N4    N     N_R   0.412141 0.006040 0.781421 0.045167
O27   O     O_R   0.425338 0.925938 0.736590 -0.436870
O28   O     O_R   0.339515 0.027660 0.903779 -0.392436
C33   C     C_R   0.136292 0.562730 0.201492 0.074001
C34   C     C_R   0.135766 0.651871 0.227739 0.018375
C35   C     C_R   0.173973 0.688283 0.380190 -0.045543
C36   C     C_R   0.215115 0.636745 0.505296 -0.053451
C37   C     C_R   0.217320 0.548466 0.479552 -0.073176
C38   C     C_R   0.176826 0.511523 0.330832 -0.068836
H13   H     H_    0.100699 0.693116 0.138395 0.026109
H14   H     H_    0.168889 0.756282 0.405592 0.052935
H15   H     H_    0.243377 0.665085 0.624851 0.121802
H16   H     H_    0.246720 0.508318 0.580458 0.064594
H17   H     H_    0.171893 0.443120 0.327285 0.105910
C39   C     C_R   0.839699 0.443827 0.849522 0.043597
C40   C     C_R   0.815377 0.484997 0.686028 -0.042474
C41   C     C_R   0.740779 0.455835 0.602290 -0.088189
C42   C     C_R   0.686925 0.388140 0.687290 -0.065833
C43   C     C_R   0.708295 0.348939 0.854910 0.020228
C44   C     C_R   0.785175 0.375633 0.934315 0.007393
H18   H     H_    0.854058 0.539768 0.624068 0.077761
H19   H     H_    0.724271 0.486314 0.472572 0.118204
H20   H     H_    0.628758 0.365949 0.623490 0.116751
H21   H     H_    0.666244 0.296845 0.921310 0.161493
H22   H     H_    0.800923 0.343431 0.062558 0.064947
C45   C     C_R   0.863659 0.062673 0.798553 0.074017
C46   C     C_R   0.864084 0.151818 0.772440 0.018262
C47   C     C_R   0.825866 0.188219 0.620003 -0.045852
C48   C     C_R   0.784795 0.136664 0.494804 -0.053580
C49   C     C_R   0.782664 0.048381 0.520446 -0.073132
C50   C     C_R   0.823189 0.011450 0.669127 -0.068784
H23   H     H_    0.899097 0.193082 0.861854 0.026135
H24   H     H_    0.830899 0.256222 0.594663 0.053035
H25   H     H_    0.756541 0.164998 0.375244 0.122358
H26   H     H_    0.753317 0.008225 0.419469 0.064699
H27   H     H_    0.828207 0.943051 0.672558 0.105905
C51   C     C_R   0.160258 0.943928 0.150717 0.043861
C52   C     C_R   0.184509 0.985163 0.314206 -0.042254
C53   C     C_R   0.259052 0.956038 0.398162 -0.089056
C54   C     C_R   0.312942 0.888332 0.313356 -0.066734
C55   C     C_R   0.291661 0.849082 0.145708 0.020564
C56   C     C_R   0.214819 0.875725 0.066109 0.007532
H28   H     H_    0.145810 0.039952 0.376002 0.077899
H29   H     H_    0.275493 0.986553 0.527897 0.118470
H30   H     H_    0.371065 0.866173 0.377343 0.116314
H31   H     H_    0.333745 0.796983 0.079447 0.161783
H32   H     H_    0.199123 0.843478 0.937870 0.064947

loop_
_geom_bond_atom_site_label_1
_geom_bond_atom_site_label_2
_geom_bond_distance
_ccdc_geom_bond_type
O10   C7    1.293070 A    
C16   H8    1.109733 S    
C47   H24   1.080771 S    
C40   C41   1.397860 A    
C49   H26   1.082307 S    
C42   C43   1.396417 A    
N3    O25   1.301016 A    
C51   C52   1.401761 A    
O1    V3    1.969172 S    
C10   C17   1.540501 S    
C56   H32   1.080967 S    
C18   C22   1.548810 S    
C10   C14   1.546014 S    
C38   H17   1.074971 S    
C14   C21   1.548998 S    
C46   H23   1.082359 S    
N4    O28   1.298321 A    
O15   V3    1.988296 S    
C48   C49   1.394673 A    
C34   H13   1.082364 S    
C10   C39   1.506026 S    
C53   C54   1.396627 A    
C14   H6    1.109733 S    
O4    C1    1.288757 A    
N1    O22   1.298412 A    
C55   C56   1.398605 A    
C27   C31   1.342434 D    
C21   H9    1.104521 S    
C26   C30   1.343402 D    
C12   C51   1.506026 S    
O10   V2    2.030945 S    
C12   C24   1.546490 S    
C23   H11   1.104473 S    
C49   C50   1.398033 A    
C24   H12   1.108554 S    
C45   C50   1.406578 A    
O17   C7    1.305071 A    
O14   V2    2.169130 S    
C51   C56   1.407034 A    
C9    C21   1.544176 S    
C16   C20   1.545131 S    
O7    C3    1.287731 A    
C11   C20   1.551231 S    
O8    C4    1.286717 A    
C43   H21   1.081574 S    
C9    C33   1.510009 S    
C41   C42   1.396676 A    
O13   V3    1.717430 S    
C27   N4    1.433219 S    
C13   C17   1.538504 S    
C46   C47   1.397775 A    
O9    V1    2.030944 S    
C39   C44   1.407070 A    
C33   C34   1.408683 A    
C48   H25   1.081885 S    
H3    C32   1.079706 S    
O16   V4    1.988295 S    
C11   C23   1.544168 S    
O11   V2    2.030877 S    
O8    V1    2.050618 S    
C53   H29   1.081464 S    
C31   C32   1.485193 S    
O18   C8    1.310997 A    
C36   C37   1.394690 A    
N2    O24   1.298218 A    
C8    C18   1.511406 S    
C42   H20   1.081590 S    
O13   V1    2.169129 S    
C11   C15   1.548233 S    
C22   H10   1.108569 S    
O3    V4    1.969148 S    
C37   C38   1.398036 A    
C50   H27   1.074980 S    
C54   H30   1.081596 S    
C5    C19   1.505308 S    
C6    C20   1.511339 S    
O6    C2    1.286730 A    
O14   V4    1.717430 S    
C35   C36   1.393689 A    
C10   C22   1.546503 S    
O17   V4    1.988296 S    
C43   C44   1.398591 A    
C33   C38   1.406567 A    
O1    C4    1.287943 A    
O2    C3    1.288737 A    
N3    O26   1.298474 A    
O3    C2    1.287936 A    
C14   C18   1.545117 S    
H4    C31   1.081138 S    
O7    V2    2.050616 S    
C36   H15   1.081926 S    
O15   C5    1.305078 A    
O4    V3    1.969147 S    
O2    V4    1.969171 S    
N4    O27   1.300406 A    
O5    C1    1.287747 A    
C44   H22   1.080966 S    
C25   C29   1.342555 D    
N2    O23   1.300101 A    
C37   H16   1.082307 S    
C52   H28   1.080148 S    
C26   N1    1.435435 S    
C11   C45   1.510012 S    
O5    V1    2.050536 S    
C12   C19   1.540495 S    
O6    V2    2.050537 S    
C47   C48   1.393668 A    
C28   N3    1.435499 S    
O18   V3    1.988296 S    
O11   C6    1.289258 A    
O12   C5    1.293035 A    
V1    O19   1.715562 S    
C54   C55   1.396415 A    
C9    C18   1.551278 S    
C16   C23   1.549029 S    
C15   C19   1.538505 S    
C52   C53   1.397840 A    
C41   H19   1.081493 S    
C17   C21   1.535501 S    
O12   V1    2.030878 S    
C39   C40   1.401770 A    
V3    O19   2.171567 S    
V4    O20   2.171567 S    
C35   H14   1.080781 S    
C19   C23   1.535500 S    
C55   H31   1.081551 S    
C29   C30   1.485223 S    
C25   N2    1.433377 S    
C9    C13   1.548239 S    
N1    O21   1.301130 A    
C13   C22   1.560847 S    
H2    C29   1.081147 S    
H1    C30   1.079593 S    
V2    O20   1.715562 S    
C20   C24   1.548790 S    
C15   C24   1.560811 S    
C12   C16   1.546011 S    
C28   C32   1.343461 D    
C34   C35   1.397792 A    
O16   C6    1.310961 A    
C45   C46   1.408666 A    
C13   H5    1.110140 S    
C15   H7    1.110138 S    
C40   H18   1.080158 S    
C7    C17   1.505346 S    
O9    C8    1.289248 A    
