data_mof_unit_63322.cif
_audit_creation_date              2013-03-05T16:09:40-0500
_audit_creation_method            fapswitch 2.2
_symmetry_space_group_name_H-M    P1
_symmetry_Int_Tables_number       1
_space_group_crystal_system       triclinic
_cell_length_a                    37.054432
_cell_length_b                    30.401939
_cell_length_c                    21.812675
_cell_angle_alpha                 89.924926
_cell_angle_beta                  55.009782
_cell_angle_gamma                 90.120925
_cell_volume                      20130.9271563

loop_
_atom_site_label
_atom_site_type_symbol
_atom_site_description
_atom_site_fract_x
_atom_site_fract_y
_atom_site_fract_z
_atom_type_partial_charge
O1    O     O_R   0.064270 0.537190 0.435730 -0.586012
O2    O     O_R   0.935730 0.537190 0.564270 -0.581533
O3    O     O_R   0.564270 0.037190 0.435730 -0.589042
O4    O     O_R   0.435730 0.037190 0.564270 -0.583495
O5    O     O_R   0.064270 0.462800 0.435730 -0.586917
O6    O     O_R   0.935730 0.462800 0.564270 -0.593312
O7    O     O_R   0.564270 0.962800 0.435730 -0.584182
O8    O     O_R   0.435730 0.962800 0.564270 -0.601449
C1    C     C_R   0.085107 0.500066 0.412843 0.848225
C2    C     C_R   0.914922 0.499936 0.587717 0.843649
C3    C     C_R   0.585033 0.000069 0.411722 0.848777
C4    C     C_R   0.414859 0.999931 0.586091 0.826368
O9    O     O_R   0.000010 0.537190 0.590170 -0.570448
O10   O     O_R   0.999990 0.537190 0.409830 -0.569105
O11   O     O_R   0.500010 0.037190 0.590170 -0.573601
O12   O     O_R   0.499990 0.037190 0.409830 -0.581885
O13   O     O_R   1.000000 0.462800 0.590170 -0.583440
O14   O     O_R   0.000000 0.462800 0.409830 -0.598723
O15   O     O_R   0.500000 0.962800 0.590170 -0.580246
O16   O     O_R   0.500000 0.962800 0.409830 -0.566740
C5    C     C_R   0.000780 0.499856 0.618045 0.880336
C6    C     C_R   0.999298 0.499912 0.381882 0.886560
C7    C     C_R   0.500813 0.999825 0.617815 0.895113
C8    C     C_R   0.496241 0.999590 0.385137 0.866623
Cu1   Cu    Cu3+1 0.000000 0.544050 0.500000 1.008369
Cu2   Cu    Cu3+1 0.500000 0.044050 0.500000 0.986237
Cu3   Cu    Cu3+1 1.000000 0.455950 0.500000 0.956937
Cu4   Cu    Cu3+1 0.500000 0.955950 0.500000 0.939666
C9    C     C_R   0.996055 0.656513 0.948020 0.290949
C10   C     C_R   0.004299 0.656337 0.051805 0.292836
C11   C     C_R   0.519808 0.156883 0.935058 0.321966
C12   C     C_R   0.477936 0.156653 0.071855 0.281810
C13   C     C_R   0.499858 0.633212 0.000018 -0.083120
C14   C     C_R   0.999921 0.133184 0.999898 -0.082376
C15   C     C_R   0.073763 0.539587 0.617944 0.281267
C16   C     C_R   0.925163 0.536950 0.382802 0.278134
C17   C     C_R   0.580334 0.024490 0.609952 0.269753
C18   C     C_R   0.427499 0.948117 0.378934 0.248299
C19   C     C_R   0.099680 0.570838 0.623349 -0.187092
C20   C     C_R   0.898185 0.567097 0.378278 -0.185363
C21   C     C_R   0.612124 0.049965 0.609127 -0.193711
C22   C     C_R   0.396781 0.926324 0.371439 -0.165497
H1    H     H_    0.128709 0.584602 0.573357 0.149338
H2    H     H_    0.868631 0.579556 0.428655 0.149957
H3    H     H_    0.643037 0.057979 0.556785 0.150133
H4    H     H_    0.368361 0.910141 0.419128 0.152448
C23   C     C_R   0.090034 0.582369 0.692792 -0.142955
C24   C     C_R   0.907637 0.579338 0.309169 -0.146798
C25   C     C_R   0.605491 0.062968 0.675623 -0.141561
C26   C     C_R   0.404333 0.921239 0.302282 -0.167807
H5    H     H_    0.110201 0.606443 0.696685 0.161104
H6    H     H_    0.886701 0.602637 0.306006 0.161541
H7    H     H_    0.630220 0.082564 0.674736 0.176114
H8    H     H_    0.382413 0.901081 0.296278 0.151749
C27   C     C_R   0.056508 0.560583 0.756745 -0.040598
C28   C     C_R   0.942165 0.559329 0.244459 -0.041778
C29   C     C_R   0.568584 0.048246 0.743290 -0.029441
C30   C     C_R   0.440718 0.940878 0.240386 -0.126518
H9    H     H_    0.051461 0.569339 0.809117 0.170289
H10   H     H_    0.947303 0.568717 0.192194 0.171195
H11   H     H_    0.566496 0.058216 0.792489 0.209379
H12   H     H_    0.446807 0.932709 0.187057 0.146363
C31   C     C_R   0.029911 0.528855 0.752791 -0.000420
C32   C     C_R   0.969785 0.528677 0.247455 0.004473
C33   C     C_R   0.535672 0.022405 0.746281 -0.002684
C34   C     C_R   0.468291 0.969799 0.247252 0.003419
C35   C     C_R   0.034992 0.522796 0.684164 0.021989
C36   C     C_R   0.964598 0.521882 0.316134 0.021424
C37   C     C_R   0.539261 0.015400 0.679065 0.016346
C38   C     C_R   0.463837 0.971953 0.316442 0.022600
C39   C     C_R   0.002053 0.499205 0.683794 -0.193901
C40   C     C_R   0.998294 0.499539 0.315891 -0.193983
C41   C     C_R   0.502201 0.998937 0.683091 -0.189708
C42   C     C_R   0.495748 0.997577 0.318729 -0.192885
C43   C     C_R   0.968633 0.476253 0.748201 0.157345
C44   C     C_R   0.033559 0.479762 0.249743 0.163376
C45   C     C_R   0.465263 0.982489 0.750748 0.154364
C46   C     C_R   0.530826 0.018948 0.253782 0.160978
C47   C     C_R   0.968771 0.475740 0.812373 0.231209
C48   C     C_R   0.033890 0.479869 0.185368 0.211806
C49   C     C_R   0.465344 0.981736 0.814879 0.229832
C50   C     C_R   0.532731 0.018703 0.187939 0.224444
C51   C     C_R   0.998920 0.502681 0.815132 -0.150262
C52   C     C_R   0.001928 0.504206 0.184057 -0.155462
C53   C     C_R   0.499831 0.002913 0.813694 -0.162515
C54   C     C_R   0.500785 0.995412 0.185321 -0.161178
C55   C     C_R   0.202796 0.460127 0.290417 0.315847
C56   C     C_R   0.797101 0.459475 0.710812 0.321942
C57   C     C_R   0.702879 0.960376 0.291606 0.319012
C58   C     C_R   0.297015 0.959409 0.702234 0.322711
C59   C     C_R   0.156769 0.460565 0.337454 -0.268022
C60   C     C_R   0.843160 0.460090 0.664038 -0.259383
C61   C     C_R   0.656839 0.960684 0.338084 -0.248167
C62   C     C_R   0.343042 0.960112 0.655132 -0.263582
H13   H     H_    0.139020 0.429610 0.355737 0.205236
H14   H     H_    0.860848 0.429214 0.646608 0.200171
H15   H     H_    0.639231 0.929684 0.357488 0.198160
H16   H     H_    0.360630 0.929351 0.633753 0.194499
C63   C     C_R   0.133535 0.500261 0.361068 -0.175173
C64   C     C_R   0.866498 0.499878 0.639573 -0.171099
C65   C     C_R   0.633444 0.000272 0.359564 -0.176966
C66   C     C_R   0.366433 0.999775 0.636245 -0.167262
C67   C     C_R   0.156690 0.540115 0.335540 -0.251919
C68   C     C_R   0.843419 0.539653 0.663894 -0.243331
C69   C     C_R   0.656465 0.040118 0.332251 -0.253729
C70   C     C_R   0.343429 0.039298 0.665534 -0.222560
H17   H     H_    0.138919 0.570937 0.353427 0.203826
H18   H     H_    0.861245 0.570559 0.645211 0.203942
H19   H     H_    0.638568 0.070862 0.348439 0.202035
H20   H     H_    0.361317 0.070107 0.651085 0.205262
C71   C     C_R   0.202759 0.540903 0.289057 0.319793
C72   C     C_R   0.797358 0.540258 0.710035 0.317945
C73   C     C_R   0.702549 0.041050 0.286193 0.320139
C74   C     C_R   0.297374 0.039849 0.712059 0.316599
C75   C     C_R   0.226038 0.500595 0.266747 -0.176778
C76   C     C_R   0.773964 0.499860 0.733327 -0.176600
C77   C     C_R   0.725987 0.000876 0.266179 -0.178263
C78   C     C_R   0.273936 0.999603 0.730522 -0.177276
C79   C     C_R   0.297660 0.510353 0.143749 -0.055865
C80   C     C_R   0.702427 0.510271 0.855984 -0.053652
C81   C     C_R   0.797730 0.009976 0.143162 -0.055072
C82   C     C_R   0.202825 0.008164 0.854690 -0.056337
H21   H     H_    0.280288 0.517928 0.118602 0.132846
H22   H     H_    0.719872 0.518297 0.880853 0.136645
H23   H     H_    0.780443 0.016946 0.117662 0.134461
H24   H     H_    0.220608 0.014740 0.879443 0.136755
C83   C     C_R   0.343537 0.509869 0.099420 -0.185776
C84   C     C_R   0.656547 0.510077 0.900273 -0.186195
C85   C     C_R   0.843602 0.009413 0.098989 -0.188318
C86   C     C_R   0.156931 0.008075 0.899686 -0.187933
H25   H     H_    0.360963 0.517273 0.040343 0.155585
H26   H     H_    0.639191 0.518108 0.959044 0.155817
H27   H     H_    0.861086 0.016191 0.039700 0.156913
H28   H     H_    0.139888 0.014762 0.958861 0.157325
C87   C     C_R   0.366536 0.500320 0.131342 -0.039249
C88   C     C_R   0.633457 0.500047 0.868673 -0.038962
C89   C     C_R   0.866517 0.000536 0.131289 -0.040174
C90   C     C_R   0.133446 0.999847 0.868228 -0.041184
C91   C     C_R   0.342879 0.490985 0.208226 -0.165667
C92   C     C_R   0.657014 0.489908 0.792176 -0.165592
C93   C     C_R   0.842761 0.992064 0.208460 -0.165773
C94   C     C_R   0.156606 0.991477 0.791167 -0.164950
H29   H     H_    0.359792 0.483359 0.234142 0.157360
H30   H     H_    0.640012 0.481881 0.766546 0.157019
H31   H     H_    0.859595 0.985001 0.234703 0.158203
H32   H     H_    0.139333 0.984883 0.765536 0.159684
C95   C     C_R   0.296983 0.490888 0.252297 -0.061651
C96   C     C_R   0.702912 0.489526 0.748158 -0.062154
C97   C     C_R   0.796858 0.992102 0.252421 -0.063233
C98   C     C_R   0.202469 0.991155 0.746406 -0.058991
H33   H     H_    0.279054 0.483383 0.311447 0.132129
H34   H     H_    0.720764 0.481471 0.689294 0.131928
H35   H     H_    0.778855 0.985220 0.311787 0.131603
H36   H     H_    0.219972 0.984551 0.687093 0.135127
C99   C     C_R   0.274338 0.500675 0.220151 0.211370
C100  C     C_R   0.725657 0.499830 0.779962 0.210125
C101  C     C_R   0.774301 0.001119 0.219847 0.211413
C102  C     C_R   0.225634 0.999592 0.778046 0.208852
C103  C     C_R   0.000194 0.633107 0.999854 -0.255399
C104  C     C_R   0.499496 0.133338 0.003063 -0.270702
C105  C     C_R   0.997433 0.702516 0.947418 -0.197050
C106  C     C_R   0.002935 0.702341 0.052559 -0.197935
C107  C     C_R   0.521735 0.202663 0.935090 -0.196701
C108  C     C_R   0.479225 0.202778 0.070120 -0.209318
C109  C     C_R   0.499640 0.725658 0.000134 0.030884
C110  C     C_R   0.999852 0.225623 0.999641 0.031132
H37   H     H_    0.513330 0.361400 0.085443 0.161919
H38   H     H_    0.487626 0.359648 0.915534 0.162598
H39   H     H_    0.043612 0.861524 0.035683 0.155129
H40   H     H_    0.956386 0.861218 0.964637 0.155708
C111  C     C_R   0.000162 0.725800 0.000045 -0.032495
C112  C     C_R   0.501259 0.225858 0.002243 -0.035804
H41   H     H_    0.995844 0.720159 0.905903 0.181662
H42   H     H_    0.004500 0.719840 0.094160 0.181320
H43   H     H_    0.537809 0.220279 0.882420 0.180365
H44   H     H_    0.462496 0.220891 0.122187 0.185208
H45   H     H_    0.514315 0.281270 0.085750 0.138931
H46   H     H_    0.487414 0.279509 0.917493 0.146320
H47   H     H_    0.045251 0.781374 0.032927 0.143149
H48   H     H_    0.954838 0.781071 0.967506 0.144227
O17   O     O_R   0.962800 0.435720 0.037190 -0.589261
O18   O     O_R   0.037200 0.435720 0.962810 -0.594024
O19   O     O_R   0.462800 0.935720 0.037190 -0.605778
O20   O     O_R   0.537200 0.935720 0.962810 -0.592231
C113  C     C_R   0.999941 0.414848 0.000040 0.774945
C114  C     C_R   0.499929 0.914853 0.000002 0.749376
O21   O     O_R   0.962790 0.499990 0.947030 -0.523856
O22   O     O_R   0.037210 0.499990 0.052970 -0.540651
O23   O     O_R   0.462790 0.999990 0.947030 -0.541088
O24   O     O_R   0.537210 0.999990 0.052970 -0.571747
O25   O     O_R   0.037190 0.500000 0.872640 -0.622234
O26   O     O_R   0.962810 0.500000 0.127360 -0.617877
O27   O     O_R   0.537190 0.000000 0.872640 -0.617775
O28   O     O_R   0.462810 0.000000 0.127360 -0.564708
C115  C     C_R   0.999600 0.501313 0.881542 0.863745
C116  C     C_R   0.000529 0.501398 0.118373 0.872721
C117  C     C_R   0.499775 0.001733 0.881185 0.860251
C118  C     C_R   0.500410 0.998783 0.118535 0.879451
Cu5   Cu    Cu3+1 0.955950 0.499980 0.044050 1.010366
Cu6   Cu    Cu3+1 0.044050 0.499980 0.955950 0.983523
Cu7   Cu    Cu3+1 0.455950 0.999980 0.044050 1.035427
Cu8   Cu    Cu3+1 0.544050 0.999980 0.955950 0.975406
O29   O     O_R   0.962790 0.564250 0.037210 -0.567743
O30   O     O_R   0.037210 0.564250 0.962790 -0.571385
O31   O     O_R   0.462790 0.064250 0.037210 -0.530010
O32   O     O_R   0.537210 0.064250 0.962790 -0.598897
C119  C     C_R   0.508060 0.298102 0.048941 -0.149195
C120  C     C_R   0.493683 0.297114 0.953640 -0.140597
C121  C     C_R   0.024883 0.798191 0.019513 -0.140963
C122  C     C_R   0.975193 0.798025 0.980891 -0.140321
C123  C     C_R   0.000064 0.584925 0.999935 0.911083
C124  C     C_R   0.499923 0.084998 0.001103 0.921608
O33   O     O_R   0.500000 0.435740 0.052190 -0.587199
O34   O     O_R   0.500000 0.435740 0.947810 -0.585994
O35   O     O_R   0.000000 0.935740 0.052190 -0.581586
O36   O     O_R   0.000000 0.935740 0.947810 -0.581398
C125  C     C_R   0.500113 0.414996 0.000009 0.795201
C126  C     C_R   0.999999 0.915118 0.000039 0.788768
O37   O     O_R   0.435730 0.500010 0.116460 -0.588630
O38   O     O_R   0.564270 0.500010 0.883540 -0.588386
O39   O     O_R   0.935730 0.000010 0.116460 -0.587833
O40   O     O_R   0.064270 0.000010 0.883540 -0.587806
O41   O     O_R   0.435720 0.500010 0.012080 -0.579766
O42   O     O_R   0.564280 0.500010 0.987920 -0.580274
O43   O     O_R   0.935720 0.000010 0.012080 -0.581338
O44   O     O_R   0.064280 0.000010 0.987920 -0.581656
C127  C     C_R   0.414941 0.500040 0.084501 0.784288
C128  C     C_R   0.585056 0.500001 0.915500 0.783132
C129  C     C_R   0.914934 0.000090 0.084502 0.781540
C130  C     C_R   0.085053 0.999950 0.915457 0.781461
Cu9   Cu    Cu3+1 0.500000 0.500010 0.061800 0.981619
Cu10  Cu    Cu3+1 0.500000 0.500010 0.938200 0.982470
Cu11  Cu    Cu3+1 0.000000 0.000010 0.061800 0.985102
Cu12  Cu    Cu3+1 1.000000 0.000010 0.938200 0.985503
O45   O     O_R   0.500010 0.564280 0.052190 -0.561883
O46   O     O_R   0.499990 0.564280 0.947810 -0.562009
O47   O     O_R   0.000010 0.064280 0.052190 -0.561925
O48   O     O_R   0.999990 0.064280 0.947810 -0.562225
C131  C     C_R   0.507662 0.343891 0.048471 -0.166666
C132  C     C_R   0.493558 0.342912 0.952814 -0.170990
C133  C     C_R   0.024302 0.844020 0.020554 -0.168824
C134  C     C_R   0.975719 0.843852 0.979787 -0.168563
C135  C     C_R   0.499950 0.584911 0.000012 0.835159
C136  C     C_R   0.999955 0.084901 0.000001 0.835626
C137  C     C_R   0.959913 0.297225 0.037430 -0.160758
C138  C     C_R   0.039746 0.297467 0.961475 -0.162009
C139  C     C_R   0.459771 0.797289 0.037166 -0.161913
C140  C     C_R   0.539585 0.797443 0.962597 -0.163109
H49   H     H_    0.928704 0.279848 0.067792 0.138778
H50   H     H_    0.070947 0.280290 0.931013 0.139176
H51   H     H_    0.428551 0.779940 0.067008 0.137805
H52   H     H_    0.570760 0.780227 0.932745 0.139303
C141  C     C_R   0.959914 0.343054 0.037598 -0.190224
C142  C     C_R   0.039773 0.343276 0.961555 -0.179491
C143  C     C_R   0.459827 0.843119 0.037213 -0.196251
C144  C     C_R   0.539668 0.843248 0.962510 -0.177858
H53   H     H_    0.928642 0.360081 0.067491 0.159737
H54   H     H_    0.071078 0.360462 0.931665 0.160028
H55   H     H_    0.428584 0.860186 0.066523 0.156830
H56   H     H_    0.570983 0.860398 0.933119 0.161348
C145  C     C_R   0.999854 0.366480 0.999763 -0.033742
C146  C     C_R   0.499790 0.866494 0.999928 -0.029788
C147  C     C_R   0.501075 0.274334 0.001544 0.147780
C148  C     C_R   0.000071 0.774589 0.000176 0.141368
C149  C     C_R   0.500470 0.366680 0.000321 -0.035104
C150  C     C_R   0.000008 0.867031 0.000129 -0.028397
C151  C     C_R   0.999828 0.274085 0.999492 0.134124
C152  C     C_R   0.499650 0.774111 0.999963 0.134557
C153  C     C_R   0.472006 0.702367 0.987148 -0.227941
C154  C     C_R   0.527361 0.702639 0.013111 -0.227213
C155  C     C_R   0.971753 0.202318 0.987748 -0.227313
C156  C     C_R   0.027998 0.202604 0.011648 -0.225313
H57   H     H_    0.450576 0.719957 0.976808 0.141339
H58   H     H_    0.548720 0.720442 0.023479 0.142968
H59   H     H_    0.950002 0.219893 0.978139 0.141292
H60   H     H_    0.049721 0.220409 0.021169 0.143112
C157  C     C_R   0.471471 0.656367 0.987794 0.204580
C158  C     C_R   0.528128 0.656651 0.012322 0.204113
C159  C     C_R   0.971145 0.156322 0.988597 0.204563
C160  C     C_R   0.028687 0.156609 0.011024 0.203286
N1    N     N_R   0.990342 0.634409 0.895791 0.095025
O49   O     O_R   0.964011 0.600731 0.916975 -0.370298
O50   O     O_R   0.005676 0.652071 0.830789 -0.362357
N2    N     N_R   0.009830 0.634026 0.104142 0.095181
O51   O     O_R   0.036241 0.600588 0.082914 -0.381837
O52   O     O_R   0.994171 0.651266 0.169412 -0.362713
N3    N     N_R   0.533515 0.135103 0.866875 0.100505
O53   O     O_R   0.504870 0.111415 0.865027 -0.399811
O54   O     O_R   0.569292 0.147748 0.804148 -0.377551
N4    N     N_R   0.453728 0.134781 0.143672 0.129644
O55   O     O_R   0.464725 0.095849 0.152083 -0.393707
O56   O     O_R   0.422187 0.155263 0.202833 -0.333419
N5    N     N_R   0.225119 0.582806 0.266293 0.123979
O57   O     O_R   0.261511 0.588772 0.261284 -0.360820
O58   O     O_R   0.206516 0.616646 0.258723 -0.345712
N6    N     N_R   0.775112 0.582071 0.731438 0.124544
O59   O     O_R   0.738955 0.587573 0.735583 -0.359699
O60   O     O_R   0.793657 0.616252 0.738470 -0.341113
N7    N     N_R   0.724758 0.082983 0.261620 0.124776
O61   O     O_R   0.760945 0.089907 0.256898 -0.359841
O62   O     O_R   0.706181 0.116032 0.252055 -0.352778
N8    N     N_R   0.275157 0.081501 0.738865 0.126620
O63   O     O_R   0.239038 0.089060 0.743742 -0.353473
O64   O     O_R   0.293721 0.113857 0.750166 -0.341803
N9    N     N_2   0.933966 0.454452 0.749723 -0.432207
H61   H     H_    0.920627 0.471704 0.726477 0.247759
C161  C     C_3   0.940166 0.407987 0.731785 -0.605727
H62   H     H_    0.938170 0.401497 0.683683 0.231861
H63   H     H_    0.913681 0.389008 0.780759 0.228131
H64   H     H_    0.972675 0.396167 0.716780 0.219822
N10   N     N_2   0.069609 0.460066 0.246178 -0.435104
H65   H     H_    0.061053 0.437628 0.287875 0.271908
C162  C     C_3   0.103368 0.490766 0.232689 -0.634308
H66   H     H_    0.090248 0.513539 0.280630 0.213074
H67   H     H_    0.115444 0.510502 0.181492 0.241329
H68   H     H_    0.131577 0.472405 0.224918 0.232155
N11   N     N_2   0.427448 0.967029 0.755092 -0.435186
H69   H     H_    0.416914 0.987009 0.730049 0.246226
C163  C     C_3   0.426564 0.920518 0.741470 -0.618915
H70   H     H_    0.424207 0.915823 0.693357 0.231907
H71   H     H_    0.397210 0.905211 0.791749 0.231319
H72   H     H_    0.456613 0.903337 0.728700 0.220826
N12   N     N_2   0.566316 0.038649 0.252495 -0.435660
H73   H     H_    0.578038 0.021184 0.278186 0.244224
C164  C     C_3   0.564368 0.085824 0.263410 -0.573515
H74   H     H_    0.563072 0.093480 0.314420 0.231631
H75   H     H_    0.534990 0.100557 0.269666 0.228356
H76   H     H_    0.594511 0.101184 0.214680 0.225777
N13   N     N_2   0.441775 0.633630 0.977294 -0.422499
H77   H     H_    0.435978 0.649695 0.942045 0.254696
C165  C     C_3   0.401261 0.619940 0.046172 -0.613518
H78   H     H_    0.382208 0.649157 0.079780 0.231964
H79   H     H_    0.408227 0.598698 0.079660 0.216244
H80   H     H_    0.380962 0.600834 0.033007 0.227007
N14   N     N_2   0.557910 0.634221 0.022819 -0.422200
H81   H     H_    0.563796 0.650416 0.057830 0.255633
C166  C     C_3   0.598356 0.620672 0.953990 -0.612048
H82   H     H_    0.617415 0.649954 0.920034 0.232136
H83   H     H_    0.591305 0.599263 0.920814 0.215943
H84   H     H_    0.618690 0.601770 0.967223 0.227189
N15   N     N_2   0.940998 0.133562 0.979220 -0.423149
H85   H     H_    0.934751 0.149592 0.944509 0.255308
C167  C     C_3   0.900811 0.119909 0.048669 -0.612022
H86   H     H_    0.881913 0.149144 0.082435 0.232458
H87   H     H_    0.908216 0.098736 0.081648 0.215894
H88   H     H_    0.880160 0.100737 0.036339 0.228348
N16   N     N_2   0.058842 0.134141 0.020580 -0.423144
H89   H     H_    0.065306 0.150413 0.054801 0.256505
C168  C     C_3   0.098851 0.120258 0.951327 -0.607470
H90   H     H_    0.118020 0.149387 0.916969 0.232702
H91   H     H_    0.091201 0.098983 0.918805 0.214917
H92   H     H_    0.119342 0.101088 0.963928 0.229512
N17   N     N_2   0.091207 0.519444 0.547501 -0.440453
H93   H     H_    0.112481 0.539397 0.502414 0.254834
C169  C     C_3   0.109994 0.476524 0.541356 -0.665239
H94   H     H_    0.121592 0.461421 0.486967 0.239737
H95   H     H_    0.084994 0.454082 0.586061 0.233215
H96   H     H_    0.138483 0.479591 0.545353 0.227611
N18   N     N_2   0.908597 0.516498 0.452855 -0.441056
H97   H     H_    0.886854 0.535833 0.498250 0.253604
C170  C     C_3   0.891013 0.472849 0.458778 -0.662218
H98   H     H_    0.880227 0.457619 0.512841 0.239933
H99   H     H_    0.916506 0.451230 0.413503 0.233383
H100  H     H_    0.862190 0.474680 0.455527 0.227095
N19   N     N_2   0.592892 0.002378 0.543211 -0.442411
H101  H     H_    0.617545 0.018419 0.495484 0.249630
C171  C     C_3   0.603353 0.956433 0.542921 -0.642270
H102  H     H_    0.611078 0.940429 0.491162 0.241604
H103  H     H_    0.574959 0.938696 0.591292 0.232257
H104  H     H_    0.632470 0.953393 0.545163 0.224265
N20   N     N_2   0.421968 0.942839 0.448459 -0.420748
H105  H     H_    0.392344 0.955318 0.492322 0.242638
C172  C     C_3   0.428450 0.897767 0.462726 -0.570264
H106  H     H_    0.426834 0.895723 0.514880 0.233159
H107  H     H_    0.461230 0.885569 0.415943 0.228424
H108  H     H_    0.402384 0.875713 0.469741 0.200563
N21   N     N_2   0.937587 0.449329 0.875389 -0.394585
H109  H     H_    0.907268 0.445978 0.884121 0.284551
C173  C     C_3   0.954562 0.407975 0.881717 -0.652634
H110  H     H_    0.962020 0.385436 0.835916 0.217085
H111  H     H_    0.929545 0.392170 0.936093 0.228216
H112  H     H_    0.984961 0.413171 0.879446 0.212212
N22   N     N_2   0.064864 0.453073 0.123369 -0.419312
H113  H     H_    0.067600 0.421458 0.137485 0.260497
C174  C     C_3   0.107104 0.473292 0.068984 -0.557314
H114  H     H_    0.131769 0.463315 0.079855 0.214945
H115  H     H_    0.104817 0.509801 0.070119 0.241388
H116  H     H_    0.118701 0.461883 0.012178 0.221596
N23   N     N_2   0.430219 0.960437 0.881194 -0.391535
H117  H     H_    0.399750 0.962546 0.890214 0.283228
C175  C     C_3   0.440059 0.916411 0.892947 -0.639161
H118  H     H_    0.443857 0.893678 0.849889 0.214092
H119  H     H_    0.412682 0.904358 0.948983 0.226309
H120  H     H_    0.470777 0.916059 0.890648 0.215489
N24   N     N_2   0.568375 0.040229 0.122635 -0.405734
H121  H     H_    0.599007 0.034573 0.111648 0.272162
C176  C     C_3   0.561150 0.085708 0.112453 -0.575504
H122  H     H_    0.588421 0.106695 0.103338 0.199663
H123  H     H_    0.529788 0.098623 0.161909 0.249527
H124  H     H_    0.560453 0.088426 0.062436 0.244438
N25   N     N_R   0.225216 0.418421 0.267467 0.128767
O65   O     O_R   0.260683 0.413132 0.200286 -0.345160
O66   O     O_R   0.207512 0.384159 0.310874 -0.344253
N26   N     N_R   0.774559 0.417688 0.734684 0.127767
O67   O     O_R   0.738865 0.412610 0.801766 -0.346680
O68   O     O_R   0.792320 0.383217 0.692291 -0.349620
N27   N     N_R   0.725453 0.918757 0.270935 0.127751
O69   O     O_R   0.760981 0.912657 0.204107 -0.345862
O70   O     O_R   0.707828 0.885221 0.316126 -0.351154
N28   N     N_R   0.274447 0.917692 0.720975 0.126436
O71   O     O_R   0.239257 0.910324 0.787803 -0.347582
O72   O     O_R   0.291844 0.885171 0.673886 -0.360825

loop_
_geom_bond_atom_site_label_1
_geom_bond_atom_site_label_2
_geom_bond_distance
_ccdc_geom_bond_type
C175  H120  1.110300 S    
C63   C67   1.400060 A    
C17   C37   1.425175 A    
C94   H32   1.082875 S    
O35   Cu11  1.965421 S    
C88   C92   1.404709 A    
C166  H82   1.111574 S    
C87   C91   1.404671 A    
O44   Cu11  1.966742 S    
N2    O51   1.300502 A    
C144  C146  1.404217 A    
C176  H123  1.110697 S    
O23   C117  1.298404 A    
C74   N8    1.441319 S    
C103  C123  1.464841 S    
C154  H58   1.083629 S    
C32   C52   1.414869 A    
C106  C111  1.401588 A    
C142  C145  1.404380 A    
H46   C120  1.082925 S    
C38   C42   1.439236 A    
N3    O54   1.301359 A    
C49   N23   1.428446 S    
O4    C4    1.296337 A    
C95   C99   1.399874 A    
C55   C75   1.416275 A    
N13   H77   1.031842 S    
C93   H31   1.082868 S    
C155  C159  1.398435 A    
C88   C128  1.469293 S    
Cu5   Cu6   2.674900 S    
C122  C148  1.407509 A    
C18   N20   1.417867 S    
C86   H28   1.082859 S    
O42   C128  1.301266 A    
C21   C25   1.383298 A    
N17   C169  1.450000 S    
C143  H55   1.082951 S    
C170  H100  1.111704 S    
C55   C59   1.398155 A    
N12   H73   1.031478 S    
O19   Cu7   1.965399 S    
C122  C134  1.393320 A    
C172  H108  1.110557 S    
C61   C65   1.399867 A    
N14   C166  1.446878 S    
O16   Cu4   1.977572 S    
O28   Cu7   1.973996 S    
C137  C141  1.393279 A    
O13   C5    1.289008 A    
O7    Cu4   1.961721 S    
O18   C113  1.295114 A    
O15   C7    1.286100 A    
C9    C105  1.399167 A    
C44   N10   1.425943 S    
C46   C50   1.396965 A    
C169  H94   1.104760 S    
C57   N27   1.441305 S    
C36   C40   1.419972 A    
C82   C102  1.399553 A    
O9    C5    1.294982 A    
C3    C65   1.473656 S    
O25   Cu6   1.973990 S    
H48   C122  1.082187 S    
C107  C112  1.396026 A    
O45   C135  1.299927 A    
C54   C118  1.468231 S    
C85   H27   1.082838 S    
N6    O59   1.301229 A    
C46   N12   1.429441 S    
N23   H117  1.031027 S    
O8    Cu4   1.963180 S    
C78   C102  1.466325 S    
C10   C106  1.399420 A    
N22   H113  1.031661 S    
C86   C90   1.405390 A    
C58   C78   1.416536 A    
C166  H84   1.109994 S    
O41   Cu10  1.966742 S    
C121  C148  1.407403 A    
C19   C23   1.387828 A    
C141  C145  1.404223 A    
C20   C24   1.387826 A    
O40   Cu12  1.958720 S    
O17   C113  1.295890 A    
O47   C136  1.299902 A    
O3    Cu2   1.963211 S    
O11   Cu2   1.977813 S    
C16   C36   1.423845 A    
C29   H11   1.074829 S    
C79   H21   1.083298 S    
C58   N28   1.441193 S    
C172  H107  1.111567 S    
C15   N17   1.420867 S    
N19   H101  1.030653 S    
C94   C98   1.392302 A    
C34   C38   1.422637 A    
C25   H7    1.082724 S    
C126  C150  1.461910 S    
C171  H104  1.111713 S    
C51   C115  1.463715 S    
C83   H25   1.082826 S    
C76   C100  1.466459 S    
O3    C3    1.297274 A    
N14   H81   1.031842 S    
O32   C124  1.298480 A    
C24   H6    1.082547 S    
C85   C89   1.405992 A    
C62   C66   1.399913 A    
C159  N15   1.423954 S    
N18   H97   1.031357 S    
C41   C45   1.407109 A    
C67   H17   1.082974 S    
C43   C47   1.402772 A    
C140  H52   1.083131 S    
C174  H115  1.112579 S    
C163  H71   1.109423 S    
C56   C76   1.416616 A    
C50   N24   1.427578 S    
C110  C155  1.400205 A    
C64   C68   1.400282 A    
C107  H43   1.083378 S    
N25   O65   1.301229 A    
C114  C146  1.470209 S    
C81   H23   1.083301 S    
C120  C147  1.404866 A    
C87   C127  1.469478 S    
O43   Cu12  1.966742 S    
C32   C36   1.411605 A    
C69   C73   1.399386 A    
O36   C126  1.299654 A    
C22   H4    1.083157 S    
O41   C127  1.301295 A    
C162  H67   1.109678 S    
O22   Cu6   1.981835 S    
Cu10  O46   1.965396 S    
C25   C29   1.389182 A    
C164  H75   1.111836 S    
C97   H35   1.083335 S    
C55   N25   1.441394 S    
O5    Cu3   1.961721 S    
C91   H29   1.082886 S    
N9    C161  1.449532 S    
C27   C31   1.415215 A    
C28   C32   1.414461 A    
Cu11  Cu12  2.696049 S    
O33   Cu9   1.965421 S    
Cu6   O30   1.965664 S    
H37   C131  1.082939 S    
C156  C160  1.398590 A    
N13   C165  1.446764 S    
O29   C123  1.292625 A    
C137  C151  1.403388 A    
C6    C40   1.461160 S    
C13   C158  1.413108 A    
N15   C167  1.446782 S    
C10   C103  1.416081 A    
N8    O64   1.301473 A    
O13   Cu3   1.978112 S    
C90   C130  1.469074 S    
N26   O67   1.301234 A    
O42   Cu9   1.966742 S    
C121  C133  1.393504 A    
C68   C72   1.398742 A    
O24   Cu8   1.981835 S    
C173  H112  1.109737 S    
O44   C130  1.302119 A    
N12   C164  1.449282 S    
C95   H33   1.083341 S    
O5    C1    1.296835 A    
N5    O57   1.301221 A    
C165  H79   1.110400 S    
C15   C35   1.423353 A    
O8    C4    1.296862 A    
C29   C33   1.418881 A    
C153  C157  1.398538 A    
O15   Cu4   1.978112 S    
N28   O71   1.301279 A    
C22   C26   1.376380 A    
C73   C77   1.416906 A    
C169  H95   1.110902 S    
C57   C77   1.416288 A    
C168  H92   1.110207 S    
N10   C162  1.447322 S    
C13   C135  1.468458 S    
C168  H91   1.110388 S    
O39   C129  1.302241 A    
O17   Cu5   1.965399 S    
C160  N16   1.424227 S    
C61   H15   1.082908 S    
C72   C76   1.416597 A    
C175  H119  1.110212 S    
C137  H49   1.083131 S    
C21   H3    1.083141 S    
O39   Cu11  1.958724 S    
O14   C6    1.289124 A    
C11   N3    1.430395 S    
C96   H34   1.083328 S    
H39   C133  1.083417 S    
C34   C54   1.417335 A    
O1    Cu1   1.963211 S    
C139  H51   1.083099 S    
N1    O50   1.301635 A    
C161  H64   1.112322 S    
O10   C6    1.294730 A    
N2    O52   1.301609 A    
C176  H122  1.110979 S    
O28   C118  1.293148 A    
C52   C116  1.465677 S    
C12   C108  1.402724 A    
C134  C150  1.399857 A    
C17   C21   1.399840 A    
C165  H80   1.109917 S    
O25   C115  1.292065 A    
N21   C173  1.448379 S    
C108  C112  1.399832 A    
C59   H13   1.082982 S    
C105  C111  1.401443 A    
C141  H53   1.082949 S    
C20   H2    1.083026 S    
O40   C130  1.301003 A    
Cu7   O31   1.964212 S    
Cu9   O45   1.964848 S    
C59   C63   1.400131 A    
C49   C53   1.416625 A    
C139  C143  1.393315 A    
C79   C83   1.392835 A    
C30   H12   1.079697 S    
C14   C159  1.413027 A    
C18   C38   1.443793 A    
C71   N5    1.441517 S    
O36   Cu12  1.964874 S    
C48   C52   1.411884 A    
O34   Cu10  1.964874 S    
N17   H93   1.031451 S    
C173  H110  1.109035 S    
H38   C132  1.082972 S    
C170  H99   1.110865 S    
C26   H8    1.082825 S    
C109  C153  1.400068 A    
C5    C39   1.461830 S    
O26   C116  1.295831 A    
O46   C135  1.299959 A    
C83   C87   1.405873 A    
C84   C88   1.405691 A    
C11   C107  1.393505 A    
C70   H20   1.083057 S    
C62   H16   1.082582 S    
N20   H105  1.030778 S    
C157  N13   1.423861 S    
C80   C100  1.398904 A    
O38   C128  1.301955 A    
C67   C71   1.399063 A    
N4    O55   1.299160 A    
Cu12  O48   1.965396 S    
C111  C148  1.483300 S    
N11   C163  1.449473 S    
C69   H19   1.083075 S    
C109  C152  1.473073 S    
C110  C151  1.473341 S    
C37   C41   1.415152 A    
C48   N22   1.427062 S    
C11   C104  1.412009 A    
C119  C131  1.392264 A    
O21   C115  1.291366 A    
N6    O60   1.301510 A    
C73   N7    1.441426 S    
Cu5   O29   1.964212 S    
C92   C96   1.393501 A    
C166  H83   1.110384 S    
C58   C62   1.398181 A    
C168  H90   1.111549 S    
O12   Cu2   1.978360 S    
C14   C136  1.467915 S    
C161  H62   1.111205 S    
C26   C30   1.379817 A    
C44   C48   1.397197 A    
O18   Cu6   1.963943 S    
C89   C129  1.469902 S    
C109  C154  1.400364 A    
C176  H124  1.108988 S    
O37   Cu9   1.958724 S    
N16   H89   1.031905 S    
C23   H5    1.082554 S    
C138  C142  1.392685 A    
O31   C124  1.289819 A    
C50   C54   1.407137 A    
O43   C129  1.301276 A    
O27   Cu8   1.973990 S    
C28   H10   1.080456 S    
O21   Cu5   1.981830 S    
C72   N6    1.441514 S    
C15   C19   1.401828 A    
N7    O61   1.301268 A    
C105  H41   1.082229 S    
N3    O53   1.301073 A    
C45   C49   1.400736 A    
C156  H60   1.083598 S    
C45   N11   1.427630 S    
O1    C1    1.297022 A    
C171  H103  1.110846 S    
C2    C64   1.473551 S    
C47   N21   1.428584 S    
C106  H42   1.082247 S    
C53   C117  1.471367 S    
C125  C149  1.469020 S    
C90   C94   1.405092 A    
C68   H18   1.083009 S    
O24   C118  1.291955 A    
C174  H114  1.110410 S    
C89   C93   1.404732 A    
C98   C102  1.399232 A    
C110  C156  1.400679 A    
C132  C149  1.402554 A    
C92   H30   1.082899 S    
C81   C85   1.392717 A    
O6    C2    1.297557 A    
O4    Cu2   1.961755 S    
N24   H121  1.031651 S    
C80   C84   1.392776 A    
C18   C22   1.404226 A    
C119  C147  1.402157 A    
C17   N19   1.419419 S    
C153  H57   1.083629 S    
O19   C114  1.295523 A    
Cu11  O47   1.964848 S    
C154  C158  1.398407 A    
C112  C147  1.473891 S    
C47   C51   1.412765 A    
C162  H66   1.108839 S    
C167  H87   1.110429 S    
C33   C37   1.410682 A    
O30   C123  1.293071 A    
O20   C114  1.295353 A    
C108  H44   1.083051 S    
O2    Cu1   1.961755 S    
C35   C39   1.418402 A    
O10   Cu1   1.978360 S    
C164  H74   1.110816 S    
C163  H70   1.111213 S    
C9    N1    1.439570 S    
N9    H61   1.031655 S    
C42   C46   1.414463 A    
C31   C51   1.415436 A    
N23   C175  1.448649 S    
C133  C150  1.400033 A    
C96   C100  1.399908 A    
O37   C127  1.302011 A    
C97   C101  1.400066 A    
C12   N4    1.443609 S    
C167  H86   1.111579 S    
Cu7   Cu8   2.674900 S    
C171  H102  1.106670 S    
C60   H14   1.083065 S    
C165  H78   1.111586 S    
C8    C42   1.460466 S    
C120  C132  1.392493 A    
C56   N26   1.441454 S    
C93   C97   1.393569 A    
C175  H118  1.109110 S    
C9    C103  1.416126 A    
C13   C157  1.413281 A    
N15   H85   1.031918 S    
O7    C3    1.297169 A    
C91   C95   1.393323 A    
C70   C74   1.398713 A    
N26   O68   1.301525 A    
C158  N14   1.424048 S    
C155  H59   1.083619 S    
N19   C171  1.449465 S    
C43   N9    1.427560 S    
C173  H111  1.110243 S    
C142  H54   1.082955 S    
O48   C136  1.299684 A    
C131  C149  1.405000 A    
O26   Cu5   1.973996 S    
C30   C34   1.418260 A    
C56   C60   1.398856 A    
N20   C172  1.455388 S    
N27   O69   1.301254 A    
N28   O72   1.301561 A    
C174  H116  1.109692 S    
N27   O70   1.301526 A    
C163  H72   1.112353 S    
C1    C63   1.473526 S    
C81   C101  1.398751 A    
C57   C61   1.398169 A    
O9    Cu1   1.977813 S    
C7    C41   1.454181 S    
C84   H26   1.082844 S    
N25   O66   1.301522 A    
C65   C69   1.400333 A    
C104  C124  1.470141 S    
C31   C35   1.409919 A    
O20   Cu8   1.963943 S    
O38   Cu10  1.958720 S    
C77   C101  1.466737 S    
O16   C8    1.282825 A    
C16   C20   1.402093 A    
O33   C125  1.299886 A    
C162  H68   1.110127 S    
C19   H1    1.083005 S    
N10   H65   1.029477 S    
O23   Cu7   1.981830 S    
N1    O49   1.300499 A    
H45   C119  1.083078 S    
C161  H63   1.109439 S    
C82   H24   1.083277 S    
C164  H76   1.109218 S    
N22   C174  1.448955 S    
C4    C66   1.471509 S    
N16   C168  1.446993 S    
O6    Cu3   1.963180 S    
C143  C146  1.404305 A    
C10   N2    1.439534 S    
C40   C44   1.412151 A    
N18   C170  1.449676 S    
N7    O62   1.301504 A    
N21   H109  1.030960 S    
C74   C78   1.416559 A    
C16   N18   1.420718 S    
C139  C152  1.403286 A    
C98   H36   1.083367 S    
C144  H56   1.082897 S    
C138  C151  1.402916 A    
O2    C2    1.296678 A    
C27   H9    1.080208 S    
C60   C64   1.400156 A    
C23   C27   1.390888 A    
C138  H50   1.083170 S    
C24   C28   1.390584 A    
C14   C160  1.412874 A    
N8    O63   1.301312 A    
C79   C99   1.398785 A    
O35   C126  1.299611 A    
C75   C99   1.466241 S    
H40   C134  1.083423 S    
O14   Cu3   1.977572 S    
O34   C125  1.302978 A    
C140  C144  1.392569 A    
C33   C53   1.425456 A    
C140  C152  1.402855 A    
Cu1   Cu3   2.678408 S    
C170  H98   1.105463 S    
H47   C121  1.082193 S    
Cu2   Cu4   2.678408 S    
N5    O58   1.301518 A    
C172  H106  1.106007 S    
C39   C43   1.411615 A    
N24   C176  1.449711 S    
C113  C145  1.470524 S    
O27   C117  1.289800 A    
O11   C7    1.293768 A    
C66   C70   1.400088 A    
N4    O56   1.301691 A    
N11   H69   1.031682 S    
C169  H96   1.111717 S    
O22   C116  1.288810 A    
O12   C8    1.304922 A    
Cu8   O32   1.965664 S    
C167  H88   1.110025 S    
Cu9   Cu10  2.696049 S    
C71   C75   1.416770 A    
C82   C86   1.393204 A    
C80   H22   1.083290 S    
C12   C104  1.422193 A    
