data_mof_unit_21958.cif
_audit_creation_date              2013-03-05T15:46:58-0500
_audit_creation_method            fapswitch 2.2
_symmetry_space_group_name_H-M    P1
_symmetry_Int_Tables_number       1
_space_group_crystal_system       triclinic
_cell_length_a                    10.12572
_cell_length_b                    10.895669
_cell_length_c                    14.943864
_cell_angle_alpha                 90.328489
_cell_angle_beta                  81.384307
_cell_angle_gamma                 95.684417
_cell_volume                      1622.01372622

loop_
_atom_site_label
_atom_site_type_symbol
_atom_site_description
_atom_site_fract_x
_atom_site_fract_y
_atom_site_fract_z
_atom_type_partial_charge
O1    O     O_R   0.431060 0.692470 0.507460 -0.604164
O2    O     O_R   0.568940 0.307530 0.492540 -0.602113
O3    O     O_R   0.651120 0.659650 0.483670 -0.623012
O4    O     O_R   0.348880 0.340350 0.516330 -0.628177
C1    C     C_R   0.556492 0.732341 0.495580 0.939288
C2    C     C_R   0.443582 0.267559 0.505281 0.941050
O5    O     O_R   0.389960 0.516440 0.644050 -0.630719
O6    O     O_R   0.610040 0.483560 0.355950 -0.619171
O7    O     O_R   0.610030 0.483620 0.620260 -0.584242
O8    O     O_R   0.389970 0.516380 0.379740 -0.580959
C3    C     C_R   0.500466 0.499921 0.672838 0.919346
C4    C     C_R   0.499492 0.499713 0.327146 0.915877
Zn1   Zn    Zn3+2 0.353060 0.521920 0.515880 0.965088
Zn2   Zn    Zn3+2 0.646940 0.478080 0.484120 0.974418
C5    C     C_R   0.532705 0.396499 0.183328 -0.262724
C6    C     C_R   0.480330 0.606281 0.815502 -0.265026
C7    C     C_R   0.500174 0.501440 0.231717 -0.179261
C8    C     C_R   0.501225 0.498356 0.768103 -0.188455
C9    C     C_R   0.474446 0.608480 0.189299 0.441109
C10   C     C_R   0.522902 0.390064 0.810973 0.448411
C11   C     C_R   0.478020 0.608796 0.095657 -0.042066
C12   C     C_R   0.531525 0.392471 0.903250 -0.038289
C13   C     C_R   0.509502 0.501959 0.045816 -0.009084
C14   C     C_R   0.509316 0.501678 0.952313 -0.014637
C15   C     C_R   0.538686 0.394962 0.089727 0.013749
C16   C     C_R   0.484579 0.609939 0.908029 0.010271
C17   C     C_R   0.453077 0.714925 0.051228 -0.218690
C18   C     C_R   0.560761 0.287352 0.946994 -0.208539
C19   C     C_R   0.461436 0.718089 0.957621 0.329701
C20   C     C_R   0.568428 0.288298 0.039334 0.309999
H1    H     H_    0.548902 0.315560 0.220329 0.200956
H2    H     H_    0.459152 0.686199 0.779323 0.200107
H3    H     H_    0.431911 0.797870 0.088678 0.233496
H4    H     H_    0.581328 0.204645 0.908960 0.243409
H5    H     H_    0.617213 0.104119 0.482581 0.202548
H6    H     H_    0.385016 0.896051 0.532172 0.197264
C21   C     C_2   0.589006 0.864079 0.493459 -0.361074
C22   C     C_2   0.411621 0.135715 0.511073 -0.379911
C23   C     C_2   0.488349 0.934725 0.511669 -0.169819
C24   C     C_2   0.513277 0.065403 0.499872 -0.153171
H7    H     H_    0.307825 0.096520 0.527444 0.155966
H8    H     H_    0.692277 0.903124 0.473760 0.157088
H9    H     H_    0.108869 0.422220 0.443974 0.166905
H10   H     H_    0.891132 0.577775 0.556031 0.167852
N1    N     N_2   0.842700 0.448880 0.462930 -0.192748
N2    N     N_2   0.157300 0.551120 0.537070 -0.194186
C25   C     C_2   0.927246 0.510071 0.507190 -0.109945
C26   C     C_2   0.072755 0.489926 0.492812 -0.106351
H11   H     H_    0.119975 0.614799 0.582931 0.169803
H12   H     H_    0.880027 0.385207 0.417064 0.174547
O9    O     O_3   0.439000 0.710274 0.239937 -0.610439
C27   C     C_3   0.555825 0.790046 0.246903 0.057658
H13   H     H_    0.626724 0.799987 0.181964 0.163827
H14   H     H_    0.609033 0.755115 0.299908 0.145264
C28   C     C_3   0.515054 0.917476 0.273396 -0.694750
H15   H     H_    0.438428 0.910823 0.334981 0.256782
H16   H     H_    0.604039 0.978899 0.286825 0.224867
H17   H     H_    0.471435 0.957976 0.217846 0.278831
O10   O     O_3   0.532966 0.281203 0.763297 -0.610088
C29   C     C_3   0.402045 0.226947 0.756193 0.042509
H18   H     H_    0.365901 0.266983 0.697317 0.156288
H19   H     H_    0.327959 0.239571 0.818124 0.152719
C30   C     C_3   0.405722 0.089337 0.741915 -0.684505
H20   H     H_    0.421743 0.046210 0.805639 0.312940
H21   H     H_    0.308999 0.048132 0.723086 0.197570
H22   H     H_    0.489042 0.071159 0.687892 0.274461
N3    N     N_R   0.451617 0.832933 0.913967 0.199594
O11   O     O_R   0.363782 0.905596 0.949554 -0.386544
O12   O     O_R   0.548057 0.876075 0.851231 -0.409575
N4    N     N_R   0.607483 0.180840 0.080028 0.194401
O13   O     O_R   0.566750 0.071440 0.053559 -0.368129
O14   O     O_R   0.703644 0.191933 0.129228 -0.405396

loop_
_geom_bond_atom_site_label_1
_geom_bond_atom_site_label_2
_geom_bond_distance
_ccdc_geom_bond_type
C4    C7    1.425286 S    
C22   C24   1.333259 D    
O7    Zn2   2.014348 S    
C30   H21   1.110827 S    
C3    C8    1.425010 S    
C5    H1    1.082484 S    
N4    O13   1.301339 A    
C1    C21   1.439955 S    
C17   C19   1.389108 A    
H10   C25   1.085307 S    
H9    C26   1.085303 S    
C20   N4    1.438394 S    
C25   C26   1.494614 S    
C27   C28   1.520922 S    
O6    C4    1.285892 A    
C13   C14   1.397569 A    
C27   H14   1.111070 S    
C28   H15   1.109023 S    
C28   H16   1.110501 S    
H5    C24   1.088191 S    
C11   C17   1.399524 A    
C30   H22   1.109038 S    
C18   H4    1.083662 S    
O10   C29   1.415748 S    
C21   C23   1.332393 D    
C6    C8    1.387115 A    
C12   C18   1.400184 A    
C17   H3    1.082838 S    
C10   O10   1.384680 S    
O5    C3    1.286295 A    
O7    C3    1.286839 A    
N2    H11   1.030931 S    
O2    C2    1.286924 A    
O3    Zn2   1.974611 S    
O8    C4    1.287511 A    
N1    H12   1.030934 S    
C22   H7    1.087240 S    
C29   C30   1.516566 S    
O1    C1    1.287396 A    
C18   C20   1.393577 A    
N3    O11   1.301387 A    
C9    C11   1.394418 A    
C10   C12   1.394667 A    
Zn2   N1    2.016524 S    
C8    C10   1.397455 A    
C11   C13   1.415567 A    
C6    C16   1.390037 A    
Zn1   N2    2.016524 S    
O2    Zn2   1.942913 S    
C12   C14   1.413350 A    
C5    C15   1.391047 A    
O1    Zn1   1.942911 S    
C30   H20   1.104754 S    
C23   C24   1.428423 S    
N2    C26   1.290885 D    
C9    O9    1.385440 S    
O5    Zn1   2.007962 S    
C13   C15   1.418498 A    
C27   H13   1.116219 S    
C16   C19   1.409024 A    
O4    C2    1.295196 A    
N1    C25   1.290892 D    
N3    O12   1.301275 A    
C21   H8    1.087292 S    
C5    C7    1.390163 A    
C28   H17   1.109756 S    
C6    H2    1.083350 S    
C15   C20   1.414149 A    
N4    O14   1.301320 A    
O6    Zn2   2.007959 S    
C7    C9    1.395712 A    
C2    C22   1.441107 S    
C19   N3    1.433401 S    
H6    C23   1.088269 S    
C29   H19   1.117674 S    
O9    C27   1.413434 S    
O4    Zn1   1.974613 S    
C14   C16   1.417476 A    
C29   H18   1.109427 S    
O3    C1    1.294102 A    
O8    Zn1   2.014345 S    
