data_mof_unit_42677.cif
_audit_creation_date              2012-12-10T18:02:05-0500
_audit_creation_method            fapswitch 2.2
_symmetry_space_group_name_H-M    P1
_symmetry_Int_Tables_number       1
_space_group_crystal_system       triclinic
_cell_length_a                    10.825581
_cell_length_b                    9.47806
_cell_length_c                    23.640901
_cell_angle_alpha                 90.148202
_cell_angle_beta                  89.780748
_cell_angle_gamma                 90.060229
_cell_volume                      2425.65942561

loop_
_atom_site_label
_atom_site_type_symbol
_atom_type_description
_atom_site_fract_x
_atom_site_fract_y
_atom_site_fract_z
_atom_type_partial_charge
C1    C     C_R   0.261948 0.499953 0.499936 0.817424
C2    C     C_R   0.738049 0.500047 0.499984 0.808259
C3    C     C_R   0.556238 0.638854 0.241063 -0.060475
C4    C     C_R   0.431959 0.633344 0.758439 -0.059738
C5    C     C_R   0.562865 0.623401 0.300313 -0.154201
C6    C     C_R   0.427380 0.616770 0.699172 -0.156470
C7    C     C_R   0.510796 0.502139 0.327165 -0.147303
C8    C     C_R   0.491340 0.503164 0.672417 -0.143855
C9    C     C_R   0.463503 0.389331 0.292959 0.039024
C10   C     C_R   0.551932 0.399338 0.706257 0.045027
C11   C     C_R   0.464905 0.403426 0.233140 0.012461
C12   C     C_R   0.550146 0.414186 0.766013 0.013493
C13   C     C_R   0.508346 0.528633 0.207806 0.189280
C14   C     C_R   0.492277 0.531586 0.791500 0.188121
C15   C     C_R   0.063721 0.371766 0.501250 -0.168087
C16   C     C_R   0.936263 0.628221 0.498721 -0.152686
C17   C     C_R   0.935979 0.371828 0.501407 -0.173274
C18   C     C_R   0.063997 0.628165 0.498680 -0.164116
C19   C     C_R   0.871810 0.500055 0.500058 -0.010416
C20   C     C_R   0.128177 0.499937 0.499931 -0.007325
C21   C     C_R   0.414182 0.074193 0.469742 -0.014278
C22   C     C_R   0.585477 0.925726 0.530520 0.006424
C23   C     C_R   0.585751 0.074803 0.530341 -0.016168
C24   C     C_R   0.414494 0.925141 0.469511 0.016201
C25   C     C_R   0.502757 0.499760 0.390531 0.842378
C26   C     C_R   0.498159 0.500106 0.609318 0.849366
C27   C     C_R   0.602904 0.575640 0.878809 0.598324
C28   C     C_R   0.392796 0.551576 0.120525 0.598055
C29   C     C_R   0.386658 0.527425 0.881966 0.612890
C30   C     C_R   0.612979 0.545061 0.117167 0.613831
C31   C     C_R   0.386064 0.539007 0.940924 -0.037948
C32   C     C_R   0.611682 0.559664 0.058340 -0.039208
C33   C     C_R   0.498354 0.557302 0.969733 -0.039948
C34   C     C_R   0.498256 0.555953 0.029587 -0.040104
C35   C     C_R   0.610362 0.574928 0.938754 -0.044192
C36   C     C_R   0.385436 0.548637 0.060615 -0.041407
C37   C     C_R   0.275138 0.530025 0.971160 -0.177946
C38   C     C_R   0.722065 0.576531 0.028178 -0.176876
C39   C     C_R   0.271798 0.537487 0.030290 0.135803
C40   C     C_R   0.723622 0.588980 0.969173 0.135141
Cu1   Cu    Cu3+1 0.500000 0.640660 0.500000 0.980055
Cu2   Cu    Cu3+1 0.500000 0.359340 0.500000 0.959373
H1    H     H_    0.189284 0.516774 0.948376 0.179234
H2    H     H_    0.808791 0.581370 0.050907 0.182584
H3    H     H_    0.111714 0.271568 0.502229 0.149536
H4    H     H_    0.888272 0.728414 0.497643 0.143241
H5    H     H_    0.887758 0.271660 0.502588 0.148728
H6    H     H_    0.112207 0.728347 0.497620 0.141680
H7    H     H_    0.345226 0.130301 0.445832 0.120783
H8    H     H_    0.653672 0.869558 0.555030 0.121306
H9    H     H_    0.654507 0.131359 0.554476 0.119515
H10   H     H_    0.346241 0.868530 0.445020 0.121146
N1    N     N_R   0.493718 0.546191 0.852283 -0.438673
N2    N     N_R   0.504772 0.542860 0.147000 -0.437277
N3    N     N_R   0.500000 0.852070 0.500000 -0.162486
N4    N     N_R   0.500000 0.147930 0.500000 -0.159692
O1    O     O_R   0.319640 0.618740 0.500000 -0.587784
O2    O     O_R   0.680360 0.381260 0.500000 -0.594939
O3    O     O_R   0.680360 0.618740 0.500000 -0.586670
O4    O     O_R   0.319640 0.381260 0.500000 -0.594957
O5    O     O_R   0.499960 0.618810 0.417880 -0.571683
O6    O     O_R   0.500040 0.381190 0.582120 -0.576684
O7    O     O_R   0.500040 0.618810 0.582120 -0.574366
O8    O     O_R   0.499960 0.381190 0.417880 -0.580875
O9    O     O_2   0.702645 0.603683 0.846563 -0.523623
O10   O     O_2   0.290423 0.562437 0.152734 -0.524056
O11   O     O_2   0.281063 0.496841 0.854275 -0.523870
O12   O     O_2   0.721645 0.532971 0.144569 -0.520582
C41   C     C_3   0.144855 0.525762 0.057595 -0.370522
C42   C     C_3   0.120545 0.376889 0.079587 -0.679204
H11   H     H_    0.119284 0.300963 0.043712 0.229205
H12   H     H_    0.192599 0.343576 0.109872 0.294345
H13   H     H_    0.029309 0.373574 0.101173 0.258835
H14   H     H_    0.130498 0.606984 0.090713 0.261239
H15   H     H_    0.071599 0.548909 0.026277 0.171588
C43   C     C_3   0.849289 0.612543 0.941992 -0.364125
C44   C     C_3   0.904251 0.474334 0.920008 -0.692406
H16   H     H_    0.839387 0.418759 0.891385 0.296920
H17   H     H_    0.990888 0.496562 0.896398 0.261344
H18   H     H_    0.925848 0.403671 0.956057 0.224647
H19   H     H_    0.845943 0.694595 0.908781 0.261140
H20   H     H_    0.914883 0.657366 0.973288 0.169120
C45   C     C_2   0.599721 0.770204 0.212768 0.927151
O13   O     O_2   0.702249 0.817955 0.223024 -0.540400
O14   O     O_R   0.523841 0.837307 0.173412 -0.752063
H21   H     H_    0.564078 0.924052 0.156381 0.344068
C46   C     C_2   0.373234 0.756655 0.786949 0.927739
O15   O     O_2   0.266353 0.788481 0.776349 -0.541712
O16   O     O_R   0.440039 0.834622 0.826761 -0.750147
H22   H     H_    0.390204 0.914977 0.843630 0.348511
C47   C     C_2   0.627076 0.734117 0.333943 0.945289
O17   O     O_2   0.590964 0.856324 0.332647 -0.596603
O18   O     O_R   0.727720 0.697172 0.367696 -0.742197
H23   H     H_    0.762679 0.780674 0.389248 0.329686
C48   C     C_2   0.353395 0.717894 0.665226 0.941178
O19   O     O_2   0.375868 0.844301 0.667374 -0.583681
O20   O     O_R   0.259118 0.667404 0.630329 -0.746777
H24   H     H_    0.216092 0.745682 0.608926 0.330526
C49   C     C_3   0.410548 0.254472 0.318962 -0.333603
C50   C     C_3   0.279260 0.277862 0.341118 -0.744620
H25   H     H_    0.277835 0.355607 0.376242 0.231562
H26   H     H_    0.219063 0.316960 0.306621 0.287293
H27   H     H_    0.240654 0.176596 0.356739 0.225902
H28   H     H_    0.407755 0.165904 0.288401 0.229416
H29   H     H_    0.471746 0.210344 0.351740 0.229156
C51   C     C_3   0.618674 0.273282 0.679631 -0.352572
C52   C     C_3   0.743448 0.316203 0.654495 -0.740831
H30   H     H_    0.732385 0.395820 0.620656 0.227189
H31   H     H_    0.803529 0.361007 0.688024 0.287422
H32   H     H_    0.789884 0.222144 0.636160 0.225932
H33   H     H_    0.635500 0.187553 0.710336 0.224804
H34   H     H_    0.560220 0.219159 0.648086 0.224302
C53   C     C_2   0.419433 0.288973 0.195365 0.846090
O21   O     O_2   0.313942 0.244345 0.200418 -0.579328
O22   O     O_R   0.496290 0.236389 0.152609 -0.755931
H35   H     H_    0.454100 0.161829 0.128665 0.337202
C54   C     C_2   0.609854 0.308837 0.803474 0.846512
O23   O     O_2   0.720277 0.284123 0.798751 -0.575833
O24   O     O_R   0.540085 0.241723 0.845402 -0.750227
H36   H     H_    0.591103 0.174136 0.868854 0.343027

loop_
_geom_bond_atom_site_label_1
_geom_bond_atom_site_label_2
_ccdc_geom_bond_type
C24   H10   S    
C38   C40   A    
C46   O15   D    
O18   H23   S    
C8    C26   S    
Cu1   Cu2   S    
C48   O19   D    
Cu1   O5    S    
Cu2   O2    S    
C21   H7    S    
O20   H24   S    
C23   N4    A    
C4    C46   S    
C51   H34   S    
C44   H16   S    
C24   N3    A    
C30   N2    A    
C13   N2    S    
C54   O24   S    
C51   C52   S    
O22   H35   S    
C15   C17   A    
Cu1   N3    S    
Cu2   N4    S    
C29   O11   S    
C45   O13   D    
C52   H30   S    
C31   C33   A    
C42   H11   S    
C32   C38   A    
Cu2   O6    S    
C18   C20   A    
C3    C13   A    
C22   H8    S    
C49   H28   S    
C9    C49   S    
C27   N1    A    
C52   H31   S    
C16   H4    S    
C51   H33   S    
C44   H17   S    
C15   C20   A    
C49   H29   S    
C43   C44   S    
Cu1   O3    S    
C4    C6    A    
C1    O4    A    
C43   H20   S    
C47   O17   D    
C5    C7    A    
C28   N2    A    
C2    O3    A    
C17   C19   A    
C6    C8    A    
C27   C35   A    
O14   H21   S    
C50   H27   S    
C31   C37   A    
C25   O8    A    
C32   C34   A    
C37   H1    S    
C28   O10   S    
C26   O7    A    
C38   H2    S    
C27   O9    S    
C1    O1    A    
C47   O18   S    
C23   H9    S    
C49   C50   S    
C42   H13   S    
C50   H26   S    
C33   C34   A    
C39   C41   S    
C41   H14   S    
C25   O5    A    
C9    C11   A    
C5    C47   S    
C10   C12   A    
C16   C18   A    
C45   O14   S    
C12   C14   A    
C46   O16   S    
C3    C45   S    
C52   H32   S    
C10   C51   S    
Cu1   O7    S    
Cu2   O4    S    
Cu2   O8    S    
C53   O21   D    
C44   H18   S    
C7    C9    A    
C48   O20   S    
C1    C20   S    
C2    C19   S    
C36   C39   A    
C17   H5    S    
C3    C5    A    
C18   H6    S    
C43   H19   S    
C21   N4    A    
O24   H36   S    
C2    O2    A    
C22   N3    A    
C7    C25   S    
C35   C40   A    
C26   O6    A    
Cu1   O1    S    
C29   C31   A    
C54   O23   D    
C30   C32   A    
C11   C13   A    
C29   N1    A    
C16   C19   A    
C50   H25   S    
C33   C35   A    
C41   H15   S    
C34   C36   A    
C4    C14   A    
C41   C42   S    
C11   C53   S    
C12   C54   S    
C40   C43   S    
C37   C39   A    
C14   N1    S    
C28   C36   A    
C8    C10   A    
C6    C48   S    
C21   C24   A    
C15   H3    S    
C22   C23   A    
C42   H12   S    
O16   H22   S    
C30   O12   S    
C53   O22   S    
