data_mof_unit_19974.cif
_audit_creation_date              2013-03-05T16:30:50-0500
_audit_creation_method            fapswitch 2.2
_symmetry_space_group_name_H-M    P1
_symmetry_Int_Tables_number       1
_space_group_crystal_system       triclinic
_cell_length_a                    11.054835
_cell_length_b                    10.883212
_cell_length_c                    9.605517
_cell_angle_alpha                 92.000916
_cell_angle_beta                  101.988813
_cell_angle_gamma                 91.136909
_cell_volume                      1129.32973322

loop_
_atom_site_label
_atom_site_type_symbol
_atom_site_description
_atom_site_fract_x
_atom_site_fract_y
_atom_site_fract_z
_atom_type_partial_charge
O1    O     O_R   0.500000 0.319640 0.618810 -0.563518
O2    O     O_R   0.500010 0.319680 0.381230 -0.586819
C1    C     C_R   0.497250 0.262969 0.496523 0.830106
O3    O     O_R   0.320680 0.500000 0.575130 -0.530683
O4    O     O_R   0.320690 0.500040 0.337550 -0.580716
C2    C     C_R   0.263909 0.494523 0.442570 0.811928
Cu1   Cu    Cu3+1 0.499990 0.499980 0.640670 1.087977
Cu2   Cu    Cu3+1 0.500010 0.500020 0.359330 1.062619
O5    O     O_R   0.499990 0.680320 0.618770 -0.554963
O6    O     O_R   0.500000 0.680360 0.381190 -0.542844
O7    O     O_R   0.679310 0.499960 0.662450 -0.564511
O8    O     O_R   0.679320 0.500000 0.424870 -0.560955
C3    C     C_R   0.499023 0.737302 0.501770 0.871781
C4    C     C_R   0.736637 0.496837 0.556785 0.872367
C5    C     C_2   0.134686 0.455667 0.413239 0.144733
C6    C     C_2   0.056197 0.514982 0.481313 0.159199
H1    H     H_    0.919910 0.548750 0.680251 0.240989
C7    C     C_2   0.871390 0.500364 0.583754 -0.286496
C8    C     C_2   0.930326 0.464140 0.480232 0.241032
C9    C     C_R   0.549017 0.070021 0.609860 -0.028488
C10   C     C_R   0.494848 0.130181 0.489696 -0.024082
C11   C     C_R   0.436633 0.056706 0.367718 0.111199
C12   C     C_R   0.436007 0.927297 0.375708 -0.039954
H2    H     H_    0.390856 0.871170 0.283548 0.206462
C13   C     C_R   0.492566 0.870085 0.501644 -0.083656
C14   C     C_R   0.545848 0.946351 0.618253 0.008181
C15   C     C_3   0.617561 0.955314 0.770321 0.511781
C16   C     C_3   0.622850 0.096756 0.755780 -0.209505
H3    H     H_    0.569742 0.149895 0.822801 0.226892
C17   C     C_R   0.606520 0.522361 0.099581 0.168249
N1    N     N_R   0.500780 0.500930 0.148120 -0.207005
C18   C     C_R   0.399175 0.461023 0.050031 -0.058455
H4    H     H_    0.318180 0.428486 0.085725 0.200304
C19   C     C_R   0.398973 0.457955 0.901854 0.432588
N2    N     N_R   0.500790 0.500890 0.852210 -0.253057
C20   C     C_R   0.607390 0.519355 0.953161 0.091486
C21   C     C_3   0.696989 0.626197 0.970520 0.085639
C22   C     C_3   0.691253 0.633619 0.128098 0.063208
H5    H     H_    0.659543 0.704912 0.906937 0.180958
H6    H     H_    0.780602 0.618436 0.202426 0.178786
N3    N     N_R   0.868011 0.382748 0.364211 0.159229
O9    O     O_R   0.869877 0.406880 0.233022 -0.298863
O10   O     O_R   0.809144 0.284114 0.390066 -0.299265
C23   C     C_3   0.749881 0.155650 0.754377 -0.579748
H7    H     H_    0.797511 0.104697 0.679975 0.272226
H8    H     H_    0.738613 0.251880 0.720503 0.231929
H9    H     H_    0.808456 0.157481 0.863331 0.290178
N4    N     N_R   0.293643 0.401071 0.808267 0.137487
O11   O     O_R   0.183264 0.429833 0.823282 -0.292094
O12   O     O_R   0.306702 0.298276 0.740603 -0.318948
N5    N     N_R   0.820004 0.591324 0.950891 0.148990
O13   O     O_R   0.908867 0.674170 0.970163 -0.216475
O14   O     O_R   0.845359 0.476892 0.928381 -0.295127
N6    N     N_R   0.630339 0.743948 0.166309 0.161144
O15   O     O_R   0.513956 0.760646 0.112688 -0.296328
O16   O     O_R   0.691822 0.824444 0.258941 -0.264154
N7    N     N_R   0.090827 0.636035 0.544821 0.109342
O17   O     O_R   0.116862 0.653592 0.682529 -0.240827
O18   O     O_R   0.113567 0.724426 0.465321 -0.303714
N8    N     N_R   0.105563 0.336765 0.343745 0.131879
O19   O     O_R   0.116299 0.319617 0.212213 -0.289802
O20   O     O_R   0.092980 0.241937 0.418884 -0.261591
C24   C     C_3   0.374166 0.111968 0.230484 -0.612267
H10   H     H_    0.443944 0.159043 0.181406 0.250371
H11   H     H_    0.325229 0.040858 0.151941 0.257898
H12   H     H_    0.305006 0.178508 0.251666 0.251503
N9    N     N_R   0.544218 0.920860 0.874023 0.107533
O21   O     O_R   0.445187 0.850753 0.835755 -0.292490
O22   O     O_R   0.568151 0.974621 0.000315 -0.278139
N10   N     N_R   0.738181 0.897056 0.794391 0.100774
O23   O     O_R   0.768416 0.824445 0.697254 -0.341812
O24   O     O_R   0.815461 0.915988 0.915717 -0.241598

loop_
_geom_bond_atom_site_label_1
_geom_bond_atom_site_label_2
_geom_bond_distance
_ccdc_geom_bond_type
O4    Cu2   1.949670 S    
C22   H6    1.111038 S    
C12   H2    1.082820 S    
C24   H11   1.110790 S    
C21   C22   1.527462 S    
N5    O13   1.299960 A    
N5    O14   1.302503 A    
C5    N8    1.434446 S    
C4    C7    1.457541 S    
N1    C18   1.360296 A    
C22   N6    1.460796 S    
C23   H9    1.109723 S    
C17   C20   1.407717 A    
C17   N1    1.364324 A    
Cu2   O8    1.951207 S    
C18   H4    1.080779 S    
N4    O12   1.299791 A    
H1    C7    1.082737 S    
C14   C15   1.509147 S    
C24   H12   1.107553 S    
Cu1   Cu2   2.702478 S    
C21   H5    1.106270 S    
O1    Cu1   1.966580 S    
C10   C11   1.423825 A    
C9    C10   1.378670 A    
N8    O20   1.301308 A    
Cu1   O7    1.949672 S    
N3    O10   1.302117 A    
C3    C13   1.448307 S    
N7    O17   1.300399 A    
N10   O23   1.302056 A    
C15   N10   1.466015 S    
C9    C14   1.351342 A    
C11   C24   1.506626 S    
C6    C8    1.485098 S    
O3    C2    1.296134 A    
C20   C21   1.494364 S    
C13   C14   1.389983 A    
C23   H8    1.109206 S    
O6    C3    1.296541 A    
O2    C1    1.292023 A    
C6    N7    1.442631 S    
O3    Cu1   1.951206 S    
O4    C2    1.296549 A    
C21   N5    1.466611 S    
O7    C4    1.303310 A    
N6    O16   1.300708 A    
C1    C10   1.443820 S    
N7    O18   1.301236 A    
C15   N9    1.462806 S    
C24   H10   1.109958 S    
N9    O21   1.302254 A    
C16   H3    1.112691 S    
C8    N3    1.445377 S    
C12   C13   1.412723 A    
C19   N4    1.429995 S    
C23   H7    1.111640 S    
C17   C22   1.497944 S    
Cu2   O6    1.966581 S    
C19   N2    1.389358 A    
N3    O9    1.300403 A    
C15   C16   1.551552 S    
Cu1   O5    1.981210 S    
C7    C8    1.349318 D    
O5    C3    1.300641 A    
N6    O15   1.301603 A    
N4    O11   1.301097 A    
N10   O24   1.301193 A    
C9    C16   1.484008 S    
N9    O22   1.301879 A    
C2    C5    1.448933 S    
C11   C12   1.413104 A    
Cu2   N1    2.030935 S    
Cu1   N2    2.029808 S    
C16   C23   1.534871 S    
O2    Cu2   1.981209 S    
C5    C6    1.351162 D    
O8    C4    1.295610 A    
N8    O19   1.300730 A    
O1    C1    1.301889 A    
N2    C20   1.368088 A    
C18   C19   1.422083 A    
