data_mof_unit_28437.cif
_audit_creation_date              2012-12-11T15:35:34-0500
_audit_creation_method            fapswitch 2.2
_symmetry_space_group_name_H-M    P1
_symmetry_Int_Tables_number       1
_space_group_crystal_system       triclinic
_cell_length_a                    17.419711
_cell_length_b                    24.2665
_cell_length_c                    15.015802
_cell_angle_alpha                 90.139889
_cell_angle_beta                  124.994023
_cell_angle_gamma                 90.347641
_cell_volume                      5199.64292122

loop_
_atom_site_label
_atom_site_type_symbol
_atom_type_description
_atom_site_fract_x
_atom_site_fract_y
_atom_site_fract_z
_atom_type_partial_charge
C1    C     C_R   0.314384 0.130212 0.908289 -0.110311
C2    C     C_R   0.593440 0.134812 0.912731 -0.131206
C3    C     C_R   0.258000 0.545061 0.302412 -0.151344
C4    C     C_3   0.909192 0.843230 0.485339 0.184466
C5    C     C_3   0.983380 0.803762 0.498262 -0.271538
C6    C     C_3   0.966808 0.744946 0.519940 -1.044430
C7    C     C_3   0.950137 0.130053 0.492927 0.217091
C8    C     C_3   0.982354 0.181892 0.564739 -0.296784
C9    C     C_3   0.069426 0.207778 0.580181 -1.075430
C10   C     C_3   0.310936 0.380092 0.508030 0.198399
C11   C     C_3   0.353694 0.354615 0.620313 -0.327709
C12   C     C_3   0.278133 0.329153 0.629435 -0.981515
C13   C     C_R   0.057950 0.347168 0.911462 -0.136248
C14   C     C_3   0.487645 0.645631 0.503259 0.215877
C15   C     C_3   0.441103 0.676535 0.549825 -0.377091
C16   C     C_3   0.479255 0.735281 0.583688 -1.009037
C17   C     C_3   0.829477 0.232554 0.237500 -1.013137
C18   C     C_3   0.870984 0.819762 0.184109 -0.916199
C19   C     C_3   0.342367 0.723900 0.251658 -1.012018
C20   C     C_3   0.312126 0.257080 0.286555 -0.962471
C21   C     C_3   0.603820 0.135709 0.317740 0.172576
C22   C     C_3   0.677374 0.163953 0.425353 -0.290101
C23   C     C_3   0.725131 0.211262 0.408174 -0.997586
C24   C     C_R   0.094664 0.633517 0.912707 -0.129109
C25   C     C_3   0.435248 0.890482 0.272521 0.175978
C26   C     C_3   0.407994 0.902129 0.351316 -0.321186
C27   C     C_3   0.306134 0.886001 0.301532 -0.994504
C28   C     C_3   0.097766 0.638153 0.312267 0.203067
C29   C     C_3   0.165198 0.672924 0.413515 -0.280211
C30   C     C_3   0.189436 0.727468 0.384262 -1.048261
C31   C     C_3   0.991614 0.372848 0.326435 0.157291
C32   C     C_3   0.987064 0.380387 0.424843 -0.294493
C33   C     C_3   0.924563 0.337596 0.428190 -1.044281
C34   C     C_R   0.541258 0.998940 0.715749 0.043171
C35   C     C_R   0.030948 0.500225 0.707154 0.050560
C36   C     C_R   0.804724 0.998765 0.362298 0.031496
C37   C     C_R   0.307265 0.498478 0.359413 0.017807
C38   C     C_R   0.682741 0.147595 0.004168 0.068236
C39   C     C_R   0.631866 0.820334 0.004792 0.050221
C40   C     C_R   0.184026 0.646045 0.004376 0.069357
C41   C     C_R   0.354261 0.847174 0.906767 -0.133493
C42   C     C_R   0.118981 0.315857 0.002724 0.069282
C43   C     C_3   0.027502 0.940535 0.622918 -0.535344
C44   C     C_3   0.023659 0.040622 0.648360 -0.570341
C45   C     C_3   0.522895 0.446099 0.633879 -0.504844
C46   C     C_3   0.524843 0.547765 0.632819 -0.574062
C47   C     C_3   0.925937 0.939132 0.519930 0.451651
C48   C     C_3   0.920894 0.043137 0.547764 0.421533
C49   C     C_3   0.416386 0.452478 0.544700 0.441289
C50   C     C_3   0.433579 0.556245 0.518772 0.467617
C51   C     C_3   0.067627 0.003635 0.520897 -0.412021
C52   C     C_R   0.811057 0.626471 0.910190 -0.106263
C53   C     C_3   0.569050 0.492919 0.520753 -0.402990
C54   C     C_3   0.075099 0.995649 0.628797 0.291925
C55   C     C_3   0.575287 0.496298 0.628479 0.290241
C56   C     C_3   0.901473 0.997259 0.461322 0.080482
C57   C     C_3   0.402833 0.497646 0.460223 0.099076
C58   C     C_R   0.449146 0.845255 0.087333 -0.154932
C59   C     C_R   0.398544 0.123597 0.089006 -0.179052
C60   C     C_R   0.948476 0.345262 0.087017 -0.140700
C61   C     C_R   0.896305 0.616252 0.089596 -0.193287
C62   C     C_3   0.966103 0.005559 0.423255 -0.361026
C63   C     C_R   0.853886 0.347297 0.906361 -0.135913
C64   C     C_3   0.468135 0.483343 0.424860 -0.337794
C65   C     C_R   0.294781 0.730334 0.898645 -0.169327
C66   C     C_R   0.163415 0.190304 0.899486 -0.177076
C67   C     C_R   0.794729 0.230173 0.897488 -0.167052
C68   C     C_R   0.660432 0.681910 0.918414 -0.179195
C69   C     C_R   0.741026 0.189740 0.902946 -0.208694
C70   C     C_R   0.618648 0.730163 0.919450 -0.203423
C71   C     C_R   0.241759 0.689272 0.903509 -0.206835
C72   C     C_R   0.115688 0.234657 0.901946 -0.200541
C73   C     C_R   0.757330 0.176568 0.003794 0.082197
C74   C     C_R   0.686506 0.127679 0.093208 -0.142174
C75   C     C_R   0.666920 0.765335 0.010707 0.083019
C76   C     C_R   0.258635 0.675048 0.004165 0.071810
C77   C     C_R   0.143003 0.257918 0.001976 0.060684
C78   C     C_R   0.842428 0.194647 0.100259 0.198766
C79   C     C_R   0.752247 0.748443 0.105943 0.169228
C80   C     C_R   0.343603 0.692897 0.100788 0.193664
C81   C     C_R   0.203686 0.227801 0.098512 0.184382
C82   C     C_R   0.400599 0.730162 0.093965 -0.252010
C83   C     C_R   0.250941 0.182765 0.094437 -0.234013
C84   C     C_R   0.901529 0.229635 0.092375 -0.261665
C85   C     C_R   0.652875 0.851208 0.093254 -0.081223
C86   C     C_R   0.787478 0.697752 0.107216 -0.255151
C87   C     C_R   0.367745 0.755289 0.994925 0.120877
C88   C     C_R   0.239306 0.169013 0.996906 0.114438
C89   C     C_R   0.868466 0.254896 0.993530 0.124829
C90   C     C_R   0.748093 0.667713 0.010636 0.127346
C91   C     C_R   0.602146 0.948986 0.624145 -0.214374
C92   C     C_R   0.604360 0.048431 0.627474 -0.211690
C93   C     C_R   0.126620 0.478271 0.641490 -0.218618
C94   C     C_R   0.978774 0.527556 0.528823 -0.223585
C95   C     C_R   0.612132 0.949672 0.538958 -0.192143
C96   C     C_R   0.186898 0.627009 0.093460 -0.135119
C97   C     C_R   0.611709 0.048838 0.540763 -0.134214
C98   C     C_R   0.137990 0.480288 0.557739 -0.186058
C99   C     C_R   0.989486 0.529053 0.446080 -0.147050
C100  C     C_R   0.600916 0.999464 0.485505 0.179142
C101  C     C_R   0.067640 0.504258 0.459998 0.226359
C102  C     C_R   0.552981 0.044980 0.306314 0.454043
C103  C     C_R   0.543579 0.954821 0.301280 0.456474
C104  C     C_R   0.055397 0.545251 0.306111 0.428989
C105  C     C_R   0.043340 0.454713 0.301244 0.447292
C106  C     C_R   0.586756 0.998609 0.659234 0.171199
C107  C     C_R   0.149113 0.349360 0.092104 -0.137903
C108  C     C_R   0.046394 0.501481 0.625071 0.158656
C109  C     C_R   0.232364 0.951953 0.748628 -0.152657
C110  C     C_R   0.229315 0.044396 0.737921 -0.152975
C111  C     C_R   0.731602 0.452502 0.748662 -0.161776
C112  C     C_R   0.729797 0.544766 0.735477 -0.151893
C113  C     C_R   0.313065 0.140194 0.997873 0.060236
C114  C     C_R   0.390114 0.813420 0.995780 0.055862
C115  C     C_R   0.810766 0.633119 0.001429 0.059610
C116  C     C_R   0.889743 0.313395 0.995092 0.056853
C117  C     C_R   0.567633 0.999670 0.370213 -0.225633
C118  C     C_R   0.565666 0.849015 0.912131 -0.152042
C119  C     C_R   0.067673 0.500431 0.366433 -0.225797
C120  C     C_R   0.175003 0.997262 0.714706 0.086907
C121  C     C_R   0.674874 0.498214 0.714734 0.086291
C122  C     C_R   0.508815 0.044937 0.739340 -0.126823
C123  C     C_R   0.514755 0.953433 0.747333 -0.129059
C124  C     C_R   0.003713 0.545864 0.735777 -0.140753
C125  C     C_R   0.009878 0.453807 0.741749 -0.139402
C126  C     C_R   0.753928 0.953353 0.301139 -0.088750
C127  C     C_R   0.758687 0.045161 0.301293 -0.177559
C128  C     C_R   0.258999 0.453009 0.295779 -0.108425
H1    H     H_    0.265160 0.144297 0.826840 0.084646
H2    H     H_    0.877407 0.030368 0.576916 0.053426
H3    H     H_    0.859604 0.272192 0.233767 0.265158
H4    H     H_    0.845128 0.764999 0.269889 0.169530
H5    H     H_    0.905202 0.850682 0.251019 0.264566
H6    H     H_    0.830338 0.842336 0.105907 0.262397
H7    H     H_    0.925907 0.794843 0.187447 0.244948
H8    H     H_    0.434608 0.667342 0.258495 0.171148
H9    H     H_    0.337048 0.706395 0.315749 0.263129
H10   H     H_    0.273201 0.742028 0.189149 0.267985
H11   H     H_    0.397160 0.756616 0.288129 0.252131
H12   H     H_    0.188027 0.213368 0.221908 0.167715
H13   H     H_    0.383205 0.468853 0.584616 -0.023871
H14   H     H_    0.312047 0.274838 0.354689 0.256533
H15   H     H_    0.340795 0.288604 0.259195 0.263958
H16   H     H_    0.358106 0.220409 0.317016 0.257346
H17   H     H_    0.556877 0.168232 0.260991 0.129139
H18   H     H_    0.637443 0.116748 0.281603 0.094204
H19   H     H_    0.643239 0.180665 0.463417 0.200784
H20   H     H_    0.730681 0.133433 0.481430 0.225481
H21   H     H_    0.761340 0.194896 0.372833 0.272525
H22   H     H_    0.776770 0.231659 0.487278 0.264317
H23   H     H_    0.672995 0.242347 0.352431 0.265164
H24   H     H_    0.378089 0.571239 0.527830 -0.010460
H25   H     H_    0.422096 0.846084 0.251145 0.130213
H26   H     H_    0.388031 0.913290 0.195010 0.103195
H27   H     H_    0.453631 0.878110 0.426931 0.209522
H28   H     H_    0.417011 0.946726 0.371973 0.211166
H29   H     H_    0.258532 0.909602 0.225912 0.266907
H30   H     H_    0.288472 0.895350 0.360205 0.272512
H31   H     H_    0.295152 0.841201 0.282563 0.275363
H32   H     H_    0.043474 0.666221 0.250205 0.128656
H33   H     H_    0.135213 0.620599 0.279480 0.071637
H34   H     H_    0.132437 0.682280 0.457186 0.222836
H35   H     H_    0.102628 0.968689 0.509714 0.178741
H36   H     H_    0.229727 0.648970 0.469118 0.175176
H37   H     H_    0.214795 0.720091 0.332444 0.271051
H38   H     H_    0.244813 0.749439 0.459552 0.280715
H39   H     H_    0.126539 0.754052 0.339444 0.273719
H40   H     H_    0.002583 0.328352 0.320429 0.132867
H41   H     H_    0.923187 0.383850 0.249950 0.085401
H42   H     H_    0.058457 0.377295 0.501035 0.224685
H43   H     H_    0.957042 0.421047 0.420326 0.203219
H44   H     H_    0.921684 0.345975 0.498969 0.273032
H45   H     H_    0.953976 0.296025 0.437747 0.288642
H46   H     H_    0.104587 0.041565 0.522759 0.148039
H47   H     H_    0.852298 0.339296 0.352893 0.281159
H48   H     H_    0.612520 0.458763 0.522912 0.153420
H49   H     H_    0.595789 0.531930 0.508527 0.188322
H50   H     H_    0.953517 0.972544 0.364493 0.206415
H51   H     H_    0.951399 0.044703 0.378220 0.138546
H52   H     H_    0.458055 0.439497 0.397967 0.179088
H53   H     H_    0.316739 0.833978 0.822901 0.083074
H54   H     H_    0.453172 0.509048 0.355268 0.189971
H55   H     H_    0.271903 0.746094 0.819806 0.114195
H56   H     H_    0.146409 0.176887 0.821494 0.123062
H57   H     H_    0.771806 0.245798 0.818544 0.111298
H58   H     H_    0.627854 0.658108 0.843826 0.115827
H59   H     H_    0.681498 0.173460 0.827087 0.117726
H60   H     H_    0.552007 0.741460 0.846480 0.130010
H61   H     H_    0.182463 0.673111 0.827359 0.127742
H62   H     H_    0.064391 0.253432 0.824984 0.124095
H63   H     H_    0.461988 0.745617 0.169164 0.117217
H64   H     H_    0.759247 0.641660 0.830090 0.083027
H65   H     H_    0.301239 0.161524 0.168794 0.132887
H66   H     H_    0.963547 0.244924 0.167184 0.110507
H67   H     H_    0.854896 0.687583 0.180036 0.127862
H68   H     H_    0.598362 0.909564 0.654871 0.118862
H69   H     H_    0.603846 0.087490 0.661961 0.109944
H70   H     H_    0.178879 0.458724 0.717569 0.131867
H71   H     H_    0.916388 0.545185 0.516696 0.127444
H72   H     H_    0.500337 0.830377 0.168131 0.127055
H73   H     H_    0.417152 0.124575 0.170195 0.161544
H74   H     H_    0.000348 0.330030 0.166926 0.112688
H75   H     H_    0.816459 0.334252 0.822409 0.084672
H76   H     H_    0.913605 0.611731 0.169967 0.152650
H77   H     H_    0.619291 0.910742 0.509846 0.179190
H78   H     H_    0.618701 0.088418 0.514752 0.170159
H79   H     H_    0.198684 0.461940 0.567424 0.123221
H80   H     H_    0.934522 0.546959 0.369270 0.135968
H81   H     H_    0.214169 0.908793 0.737236 0.094791
H82   H     H_    0.204291 0.084673 0.703936 0.083964
H83   H     H_    0.710989 0.409593 0.735220 0.100418
H84   H     H_    0.706906 0.584977 0.699817 0.083834
H85   H     H_    0.507305 0.086512 0.714176 0.087246
H86   H     H_    0.028077 0.934512 0.696756 0.133991
H87   H     H_    0.525035 0.910591 0.738269 0.096554
H88   H     H_    0.997578 0.587246 0.706650 0.097182
H89   H     H_    0.015017 0.411147 0.724923 0.103683
H90   H     H_    0.760783 0.911007 0.325319 0.133393
H91   H     H_    0.775904 0.087501 0.325062 0.153345
H92   H     H_    0.275205 0.409948 0.311445 0.150551
H93   H     H_    0.273175 0.587104 0.331329 0.130838
H94   H     H_    0.743043 0.129621 0.177342 0.134899
H95   H     H_    0.686567 0.837824 0.176154 0.104665
H96   H     H_    0.242705 0.628737 0.177938 0.153953
H97   H     H_    0.024842 0.029982 0.721275 0.151882
H98   H     H_    0.187978 0.338208 0.176269 0.137899
H99   H     H_    0.524420 0.833757 0.829403 0.091464
H100  H     H_    0.562148 0.149419 0.831436 0.086100
H101  H     H_    0.011525 0.332916 0.828478 0.085388
H102  H     H_    0.064318 0.647194 0.831087 0.087891
H103  H     H_    0.066129 0.905752 0.619286 0.183799
H104  H     H_    0.060227 0.080881 0.670394 0.179393
H105  H     H_    0.548689 0.407353 0.620174 0.197645
H106  H     H_    0.569103 0.584709 0.668647 0.157612
H107  H     H_    0.838436 0.826804 0.421450 0.107631
H108  H     H_    0.535750 0.443197 0.715367 0.137172
H109  H     H_    0.915099 0.843820 0.563378 0.082878
H110  H     H_    0.982580 0.804111 0.423911 0.213380
H111  H     H_    0.054255 0.817275 0.567172 0.181560
H112  H     H_    0.971440 0.743385 0.596824 0.267045
H113  H     H_    0.021016 0.717451 0.527597 0.275824
H114  H     H_    0.896741 0.729621 0.452006 0.263012
H115  H     H_    0.910530 0.142649 0.406801 0.092280
H116  H     H_    0.012027 0.108359 0.508644 0.111019
H117  H     H_    0.925516 0.212649 0.527105 0.202410
H118  H     H_    0.998212 0.171530 0.645628 0.209580
H119  H     H_    0.505794 0.540482 0.691136 0.130340
H120  H     H_    0.129822 0.179474 0.626062 0.263438
H121  H     H_    0.087402 0.246911 0.626921 0.286071
H122  H     H_    0.056553 0.216631 0.500128 0.274021
H123  H     H_    0.270651 0.347513 0.445447 0.137939
H124  H     H_    0.259522 0.412641 0.490629 0.117316
H125  H     H_    0.404070 0.322132 0.634060 0.211849
H126  H     H_    0.392221 0.386658 0.684585 0.189056
H127  H     H_    0.229198 0.361371 0.620306 0.263441
H128  H     H_    0.311318 0.309928 0.710512 0.267817
H129  H     H_    0.238128 0.296913 0.565939 0.270771
H130  H     H_    0.876039 0.932199 0.543010 -0.026594
H131  H     H_    0.482521 0.671570 0.439749 0.139339
H132  H     H_    0.564423 0.642012 0.563165 0.080272
H133  H     H_    0.364822 0.678009 0.486944 0.221161
H134  H     H_    0.453539 0.655011 0.622099 0.192136
H135  H     H_    0.555975 0.734734 0.647238 0.264514
H136  H     H_    0.444575 0.756307 0.617340 0.265948
H137  H     H_    0.465025 0.758949 0.512511 0.274229
H138  H     H_    0.931860 0.178683 0.263545 0.156200
H139  H     H_    0.851436 0.226493 0.321823 0.256765
H140  H     H_    0.751838 0.234934 0.183571 0.273965
N1    N     N_R   0.392140 0.102630 0.941800 -0.037626
N2    N     N_R   0.525160 0.972040 0.206160 -0.120582
N3    N     N_R   0.025160 0.527960 0.206160 -0.129721
N4    N     N_R   0.025160 0.472040 0.206160 -0.111826
N5    N     N_R   0.317870 0.971120 0.792790 -0.040197
N6    N     N_R   0.317870 0.028880 0.792790 -0.037989
N7    N     N_R   0.817870 0.471120 0.792790 -0.039194
N8    N     N_R   0.817870 0.528880 0.792790 -0.038356
N9    N     N_R   0.473480 0.027920 0.793480 -0.039662
N10   N     N_R   0.473480 0.972080 0.793480 -0.040666
N11   N     N_R   0.973480 0.527920 0.793480 -0.039398
N12   N     N_R   0.392140 0.897370 0.941800 -0.039026
N13   N     N_R   0.973480 0.472080 0.793480 -0.040538
N14   N     N_R   0.681610 0.971120 0.207570 -0.050196
N15   N     N_R   0.681610 0.028880 0.207570 -0.057681
N16   N     N_R   0.181610 0.471120 0.207570 -0.046515
N17   N     N_R   0.181610 0.528880 0.207570 -0.055849
N18   N     N_R   0.605410 0.102620 0.056870 -0.048490
N19   N     N_R   0.605410 0.897380 0.056870 -0.043076
N20   N     N_R   0.105410 0.602620 0.056870 -0.051250
N21   N     N_R   0.105410 0.397380 0.056870 -0.040879
N22   N     N_R   0.549680 0.896430 0.944180 -0.037769
N23   N     N_R   0.892140 0.602630 0.941800 -0.037340
N24   N     N_R   0.549680 0.103570 0.944180 -0.037716
N25   N     N_R   0.049680 0.396430 0.944180 -0.037672
N26   N     N_R   0.049680 0.603570 0.944180 -0.038622
N27   N     N_2   0.862336 0.187273 0.205101 -0.129715
N28   N     N_2   0.809974 0.784503 0.195799 -0.126924
N29   N     N_2   0.366671 0.680617 0.205531 -0.116088
N30   N     N_2   0.217121 0.241978 0.198520 -0.128274
N31   N     N_R   0.892140 0.397370 0.941800 -0.038668
N32   N     N_R   0.450890 0.896450 0.057150 -0.041001
N33   N     N_R   0.450890 0.103550 0.057150 -0.046730
N34   N     N_R   0.950890 0.396450 0.057150 -0.038696
N35   N     N_R   0.950890 0.603550 0.057150 -0.047376
N36   N     N_R   0.525160 0.027960 0.206160 -0.126607
Ni1   Ni    Ni4+2 0.433410 0.064680 0.868830 0.214767
Ni2   Ni    Ni4+2 0.433410 0.935320 0.868830 0.207794
Ni3   Ni    Ni4+2 0.933410 0.564680 0.868830 0.210070
Ni4   Ni    Ni4+2 0.933410 0.435320 0.868830 0.207314
Ni5   Ni    Ni4+2 0.565650 0.934380 0.131170 0.210706
Ni6   Ni    Ni4+2 0.565650 0.065620 0.131170 0.194314
Ni7   Ni    Ni4+2 0.065650 0.434380 0.131170 0.221693
Ni8   Ni    Ni4+2 0.065650 0.565620 0.131170 0.192725
O1    O     O_3   0.919583 0.895839 0.451548 -0.664504
O2    O     O_3   0.890054 0.097714 0.507861 -0.669816
O3    O     O_3   0.381501 0.399641 0.496411 -0.677907
O4    O     O_3   0.444864 0.594001 0.453734 -0.660250
O5    O     O_3   0.550505 0.098910 0.334993 -0.695750
O6    O     O_3   0.532007 0.900981 0.321261 -0.688559
O7    O     O_3   0.054596 0.598703 0.339292 -0.679408
O8    O     O_3   0.068868 0.401561 0.339781 -0.678255

loop_
_geom_bond_atom_site_label_1
_geom_bond_atom_site_label_2
_ccdc_geom_bond_type
C12   H128  S    
C17   H3    S    
C20   H16   S    
C2    H100  S    
C27   H30   S    
N36   Ni6   S    
N14   N15   A    
C19   N29   S    
C35   C124  A    
C1    H1    S    
C14   H131  S    
C5    C6    S    
C53   C64   S    
C47   O1    S    
C74   N18   A    
C82   C87   A    
C107  H98   S    
C18   H5    S    
C110  N6    A    
N7    Ni4   S    
C66   C72   A    
C46   C55   S    
C61   C115  A    
C68   C90   A    
C4    H109  S    
C6    H113  S    
N20   N26   A    
C14   O4    S    
C44   H97   S    
C49   O3    S    
C10   O3    S    
C23   H21   S    
C21   C22   S    
C103  C117  A    
C1    C113  A    
C109  H81   S    
C13   C42   A    
C65   C87   A    
C5    H110  S    
C34   C106  S    
C103  N2    A    
C86   C90   A    
N21   N25   A    
H4    N28   S    
H138  N27   S    
C43   C54   S    
N11   Ni3   S    
C59   C113  A    
N19   Ni5   S    
N1    Ni1   S    
C60   H74   S    
C99   C101  A    
C22   H20   S    
C8    H117  S    
C67   H57   S    
N12   N32   A    
C56   C62   S    
C39   C85   A    
C52   C115  A    
N16   N17   A    
C25   H26   S    
C50   C57   S    
C36   C126  A    
C4    C5    S    
C53   H49   S    
C58   N32   A    
C39   C118  A    
C60   N34   A    
C21   O5    S    
C61   N35   A    
C122  H85   S    
C21   H18   S    
C104  N3    A    
C93   C108  A    
C41   N12   A    
N3    Ni8   S    
C78   N27   S    
C10   H124  S    
N11   N13   A    
C3    C37   A    
C19   H11   S    
C22   C23   S    
C100  C117  S    
C33   H44   S    
C43   C47   S    
C37   C57   S    
N24   Ni1   S    
C44   C48   S    
C109  C120  A    
C55   C121  S    
C82   H63   S    
C45   H108  S    
N15   Ni6   S    
C7    C8    S    
C63   H75   S    
C46   H106  S    
C30   H39   S    
C66   C88   A    
C1    N1    A    
C47   H130  S    
C27   H31   S    
C28   H32   S    
C11   H126  S    
C49   C57   S    
C94   H71   S    
C2    N24   A    
C88   C113  S    
C35   C125  A    
C9    H120  S    
C11   H125  S    
C84   H66   S    
N34   Ni7   S    
C126  H90   S    
C48   O2    S    
C39   C75   S    
C97   H78   S    
C128  H92   S    
C16   H137  S    
C70   H60   S    
C104  C119  A    
C64   H54   S    
C105  N4    A    
N3    N4    A    
C68   H58   S    
C34   C122  A    
C103  O6    S    
N9    N10   A    
C26   H27   S    
C51   C62   S    
N32   Ni5   S    
C72   H62   S    
C81   C83   A    
N16   Ni7   S    
C92   C97   A    
N22   Ni2   S    
C80   C82   A    
C62   H51   S    
C25   C26   S    
C83   H65   S    
C51   H46   S    
C29   C30   S    
C15   H133  S    
C50   H24   S    
C2    C38   A    
C66   H56   S    
C31   C32   S    
C19   H9    S    
C22   H19   S    
C51   H35   S    
C41   H53   S    
C102  C117  A    
C80   N29   S    
C125  N13   A    
N33   Ni6   S    
C60   C116  A    
C12   H129  S    
C128  N16   A    
C52   N23   A    
N14   Ni5   S    
C97   C100  A    
H8    N29   S    
C17   N27   S    
C18   N28   S    
C104  O7    S    
C29   H34   S    
C105  C119  A    
C76   C80   A    
C30   H37   S    
C4    O1    S    
C27   H29   S    
C7    O2    S    
C13   N25   A    
N18   N24   A    
C9    H122  S    
N4    Ni7   S    
C112  C121  A    
C14   H132  S    
C81   N30   S    
N1    N33   A    
C75   C79   A    
C38   C74   A    
C83   C88   A    
N31   N34   A    
C10   C11   S    
C91   C95   A    
C44   C54   S    
C102  O5    S    
C45   C55   S    
C42   C77   S    
C70   C75   A    
C58   C114  A    
C14   C15   S    
C6    H114  S    
C43   H86   S    
C47   C56   S    
C59   N33   A    
N21   Ni7   S    
C123  H87   S    
N7    N8    A    
C29   H36   S    
N23   N35   A    
N9    Ni1   S    
C127  H91   S    
N18   Ni6   S    
C26   C27   S    
C28   C29   S    
C45   H105  S    
C17   H140  S    
C24   H102  S    
C61   H76   S    
C65   H55   S    
C71   C76   A    
C43   H103  S    
C32   H42   S    
C16   H135  S    
C31   O8    S    
C49   H13   S    
C7    H116  S    
C69   C73   A    
C42   C107  A    
C37   C128  A    
C8    H118  S    
C3    H93   S    
C12   H127  S    
C20   H15   S    
C48   H2    S    
C110  H82   S    
C40   C96   A    
C25   O6    S    
C25   H25   S    
C28   O7    S    
N25   Ni4   S    
C95   C100  A    
N2    N36   A    
N26   Ni3   S    
C31   H41   S    
C21   H17   S    
N5    Ni2   S    
C36   C56   S    
C79   N28   S    
C45   C49   S    
C94   C108  A    
N19   N22   A    
C90   C115  S    
C71   H61   S    
C85   H95   S    
C105  O8    S    
C63   C116  A    
C32   H43   S    
N23   Ni3   S    
C98   H79   S    
C3    N17   A    
C24   N26   A    
C5    H111  S    
C63   N31   A    
C112  N8    A    
C118  H99   S    
C98   C101  A    
C74   H94   S    
C99   H80   S    
C32   C33   S    
C91   H68   S    
C126  N14   A    
C96   N20   A    
C111  H83   S    
C13   H101  S    
C40   C76   S    
N2    Ni5   S    
C31   H40   S    
C77   C81   A    
C118  N22   A    
C79   C86   A    
C109  N5    A    
N6    Ni1   S    
N35   Ni8   S    
C125  H89   S    
C95   H77   S    
C34   C123  A    
C54   C120  S    
C111  C121  A    
C26   H28   S    
C41   C114  A    
C123  N10   A    
C58   H72   S    
C112  H84   S    
C46   H119  S    
N8    Ni3   S    
C64   H52   S    
N31   Ni4   S    
C15   C16   S    
C67   C89   A    
C10   H123  S    
C52   H64   S    
C127  N15   A    
C87   C114  S    
C35   C108  S    
C8    C9    S    
C96   H96   S    
C20   N30   S    
C73   C78   A    
C18   H6    S    
C111  N7    A    
C33   H45   S    
N10   Ni2   S    
C50   O4    S    
C89   C116  S    
C91   C106  A    
C124  N11   A    
C53   C55   S    
N12   Ni2   S    
C101  C119  S    
C20   H14   S    
C28   H33   S    
C30   H38   S    
C110  C120  A    
H12   N30   S    
C65   C71   A    
C6    H112  S    
C67   C69   A    
C9    H121  S    
C72   C77   A    
C86   H67   S    
C59   H73   S    
C69   H59   S    
N5    N6    A    
C18   H7    S    
C4    H107  S    
C36   C127  A    
C84   C89   A    
C92   H69   S    
C122  N9    A    
C57   C64   S    
C124  H88   S    
C92   C106  A    
C48   C56   S    
C23   H23   S    
C85   N19   A    
C23   H22   S    
C62   H50   S    
C11   C12   S    
N17   Ni8   S    
C46   C50   S    
C51   C54   S    
C93   H70   S    
C44   H104  S    
N13   Ni4   S    
C17   H139  S    
C15   H134  S    
C94   C99   A    
C19   H10   S    
C24   C40   A    
C33   H47   S    
C102  N36   A    
C16   H136  S    
C78   C84   A    
C68   C70   A    
C7    H115  S    
C93   C98   A    
N20   Ni8   S    
C107  N21   A    
C53   H48   S    
C38   C73   S    
