data_mof_unit_39415.cif
_audit_creation_date              2012-12-10T18:51:36-0500
_audit_creation_method            fapswitch 2.2
_symmetry_space_group_name_H-M    P1
_symmetry_Int_Tables_number       1
_space_group_crystal_system       triclinic
_cell_length_a                    10.70799
_cell_length_b                    9.852859
_cell_length_c                    10.523492
_cell_angle_alpha                 89.736773
_cell_angle_beta                  90.099122
_cell_angle_gamma                 90.057786
_cell_volume                      1110.2598874

loop_
_atom_site_label
_atom_site_type_symbol
_atom_type_description
_atom_site_fract_x
_atom_site_fract_y
_atom_site_fract_z
_atom_type_partial_charge
C1    C     C_R   0.872532 0.500116 0.500456 -0.005689
C2    C     C_R   0.127468 0.499883 0.499544 -0.005689
C3    C     C_R   0.259924 0.499941 0.499552 0.913646
C4    C     C_R   0.740076 0.500059 0.500448 0.913646
C5    C     C_R   0.501087 0.500369 0.257417 0.942557
C6    C     C_R   0.498913 0.499631 0.742583 0.942557
C7    C     C_3   0.490496 0.629433 0.040545 -0.206781
C8    C     C_3   0.509504 0.370567 0.959455 -0.206781
C9    C     C_3   0.596778 0.573891 0.955614 -0.245466
C10   C     C_3   0.403222 0.426109 0.044386 -0.245465
C11   C     C_3   0.392924 0.553670 0.960198 0.021784
C12   C     C_3   0.607076 0.446330 0.039802 0.021784
C13   C     C_3   0.497852 0.498975 0.877263 -0.050742
C14   C     C_3   0.502148 0.501024 0.122737 -0.050742
C15   C     C_R   0.576985 0.071612 0.579653 -0.068244
C16   C     C_R   0.423015 0.928388 0.420347 -0.068244
C17   C     C_R   0.423017 0.072211 0.420347 -0.062077
C18   C     C_R   0.576983 0.927789 0.579653 -0.062077
C19   C     C_R   0.063911 0.379801 0.528363 -0.179873
C20   C     C_R   0.936089 0.620199 0.471637 -0.179873
C21   C     C_R   0.935993 0.379920 0.528838 -0.179165
C22   C     C_R   0.064007 0.620080 0.471162 -0.179165
H1    H     H_    0.638563 0.125807 0.643364 0.130906
H2    H     H_    0.361437 0.874193 0.356636 0.130906
H3    H     H_    0.361438 0.126882 0.356634 0.127932
H4    H     H_    0.638562 0.873118 0.643366 0.127932
H5    H     H_    0.482294 0.734795 0.076595 0.165269
H6    H     H_    0.517706 0.265205 0.923405 0.165269
H7    H     H_    0.675754 0.633297 0.915566 0.160252
H8    H     H_    0.324246 0.366702 0.084434 0.160252
H9    H     H_    0.112658 0.286528 0.551396 0.162199
H10   H     H_    0.887342 0.713472 0.448604 0.162199
H11   H     H_    0.887164 0.286699 0.552112 0.160129
H12   H     H_    0.112836 0.713301 0.447888 0.160129
N1    N     N_R   0.500000 0.857200 0.500000 -0.081934
N2    N     N_R   0.500000 0.142800 0.500000 -0.081933
O1    O     O_R   0.316770 0.614620 0.499990 -0.608420
O2    O     O_R   0.683230 0.385380 0.500010 -0.608421
O3    O     O_R   0.683230 0.614620 0.500010 -0.640634
O4    O     O_R   0.316770 0.385380 0.499990 -0.640634
O5    O     O_R   0.499970 0.614650 0.313950 -0.633183
O6    O     O_R   0.500030 0.385350 0.686050 -0.633183
O7    O     O_R   0.500030 0.614650 0.686050 -0.603420
O8    O     O_R   0.499970 0.385350 0.313950 -0.603421
Zn1   Zn    Zn3+2 0.500000 0.653120 0.500000 0.972072
Zn2   Zn    Zn3+2 0.500000 0.346880 0.500000 0.972072
C23   C     C_2   0.270899 0.613291 0.917929 0.896747
O9    O     O_2   0.197285 0.654603 0.997440 -0.624444
O10   O     O_R   0.241313 0.620755 0.788812 -0.808936
H13   H     H_    0.156165 0.662406 0.772755 0.345516
C24   C     C_2   0.729101 0.386709 0.082071 0.896747
O11   O     O_2   0.802715 0.345397 0.002560 -0.624444
O12   O     O_R   0.758686 0.379245 0.211188 -0.808936
H14   H     H_    0.843835 0.337594 0.227245 0.345516

loop_
_geom_bond_atom_site_label_1
_geom_bond_atom_site_label_2
_ccdc_geom_bond_type
C2    C22   A    
C15   C18   A    
O4    Zn2   S    
C5    O5    A    
C1    C21   A    
C8    C13   S    
C17   N2    A    
C11   C13   S    
C18   N1    A    
C10   H8    S    
C11   C23   S    
C23   O9    D    
C18   H4    S    
C4    O3    A    
C9    H7    S    
C8    C12   S    
C1    C4    S    
C17   H3    S    
C15   H1    S    
C2    C3    S    
C12   C14   S    
C19   H9    S    
C23   O10   S    
O12   H14   S    
C6    C13   S    
C7    C11   S    
N2    Zn2   S    
O7    Zn1   S    
C5    C14   S    
C20   H10   S    
C22   H12   S    
C8    C10   S    
C19   C21   A    
C5    O8    A    
O8    Zn2   S    
C3    O4    A    
C6    O7    A    
C16   N1    A    
C10   C14   S    
C8    H6    S    
C9    C12   S    
O2    Zn2   S    
C21   H11   S    
C10   C11   S    
O1    Zn1   S    
C24   O11   D    
N1    Zn1   S    
C15   N2    A    
C12   C24   S    
C7    H5    S    
C3    O1    A    
C16   H2    S    
O10   H13   S    
O6    Zn2   S    
C7    C9    S    
O5    Zn1   S    
O3    Zn1   S    
C1    C20   A    
C9    C13   S    
C2    C19   A    
C4    O2    A    
C6    O6    A    
C7    C14   S    
C20   C22   A    
C16   C17   A    
C24   O12   S    
