data_mof_unit_19890.cif
_audit_creation_date              2013-03-05T15:50:42-0500
_audit_creation_method            fapswitch 2.2
_symmetry_space_group_name_H-M    P1
_symmetry_Int_Tables_number       1
_space_group_crystal_system       triclinic
_cell_length_a                    15.120485
_cell_length_b                    10.829397
_cell_length_c                    9.713538
_cell_angle_alpha                 93.242338
_cell_angle_beta                  91.407897
_cell_angle_gamma                 93.044975
_cell_volume                      1585.15567557

loop_
_atom_site_label
_atom_site_type_symbol
_atom_site_description
_atom_site_fract_x
_atom_site_fract_y
_atom_site_fract_z
_atom_type_partial_charge
O1    O     O_R   0.499990 0.319640 0.618810 -0.551453
O2    O     O_R   0.500000 0.319660 0.381240 -0.519555
C1    C     C_R   0.504451 0.262253 0.496361 0.918951
O3    O     O_R   0.370250 0.499960 0.618800 -0.530282
O4    O     O_R   0.370260 0.499980 0.381230 -0.528070
C2    C     C_R   0.329620 0.499040 0.498843 0.922767
Cu1   Cu    Cu3+1 0.499990 0.499990 0.640660 1.104186
Cu2   Cu    Cu3+1 0.500010 0.500010 0.359340 1.154973
O5    O     O_R   0.500000 0.680340 0.618760 -0.582548
O6    O     O_R   0.500010 0.680360 0.381190 -0.521415
O7    O     O_R   0.629740 0.500020 0.618770 -0.580303
O8    O     O_R   0.629750 0.500040 0.381200 -0.563566
C3    C     C_R   0.491827 0.736715 0.504343 0.917740
C4    C     C_R   0.670954 0.505363 0.500846 0.942305
C5    C     C_R   0.819292 0.620496 0.527129 0.252810
C6    C     C_R   0.768270 0.508357 0.499753 -0.241410
C7    C     C_R   0.809022 0.402593 0.447884 0.387968
C8    C     C_R   0.901748 0.396446 0.459996 -0.090357
C9    C     C_R   0.954227 0.506971 0.495638 -0.075360
C10   C     C_R   0.913177 0.619300 0.531145 -0.098279
C11   C     C_R   0.943745 0.283948 0.434271 0.384497
C12   C     C_R   0.035687 0.284105 0.425160 0.352782
C13   C     C_R   0.088987 0.392097 0.464791 -0.105375
C14   C     C_R   0.048029 0.505395 0.494794 -0.069069
C15   C     C_R   0.100790 0.617327 0.522199 -0.089132
C16   C     C_R   0.058385 0.729652 0.544394 0.370821
C17   C     C_R   0.967608 0.728081 0.565712 0.381185
C18   C     C_R   0.182176 0.389630 0.476175 0.298423
C19   C     C_R   0.233368 0.500952 0.496752 -0.220385
C20   C     C_R   0.193982 0.612466 0.529384 0.379406
C21   C     C_R   0.608991 0.127535 0.700369 0.313028
C22   C     C_R   0.624975 0.079428 0.828918 0.223328
C23   C     C_R   0.576245 0.973278 0.864056 0.271758
C24   C     C_R   0.517526 0.909646 0.767250 0.323845
C25   C     C_R   0.512821 0.947557 0.629655 -0.101059
C26   C     C_R   0.544811 0.068590 0.605611 -0.089734
C27   C     C_R   0.510630 0.126225 0.489233 -0.131059
C28   C     C_R   0.464776 0.052922 0.381761 0.264341
C29   C     C_R   0.448642 0.925634 0.395153 0.271463
C30   C     C_R   0.478581 0.871112 0.514677 -0.113230
C31   C     C_R   0.648763 0.613531 0.146941 0.387304
C32   C     C_R   0.725901 0.629524 0.073638 -0.181817
H1    H     H_    0.787061 0.660946 0.128612 0.222762
C33   C     C_R   0.717380 0.654351 0.935939 0.299064
C34   C     C_R   0.635405 0.630287 0.868414 -0.140167
H2    H     H_    0.625626 0.665409 0.769099 0.223564
C35   C     C_R   0.567420 0.562615 0.931060 0.080681
C36   C     C_R   0.570072 0.559546 0.079057 0.097260
N1    N     N_R   0.500860 0.501210 0.147910 -0.243612
C37   C     C_R   0.434992 0.439495 0.066600 0.426514
C38   C     C_R   0.435818 0.437482 0.919574 0.369037
N2    N     N_R   0.500890 0.501290 0.852040 -0.253206
N3    N     N_R   0.777350 0.736022 0.516025 0.180000
O9    O     O_R   0.703627 0.756815 0.576962 -0.365398
O10   O     O_R   0.806352 0.813605 0.427595 -0.198368
Cl1   Cl    Cl    0.685145 0.242815 0.649909 -0.480570
N4    N     N_R   0.686971 0.142817 0.926732 0.220668
O11   O     O_R   0.680827 0.260212 0.959410 -0.283903
O12   O     O_R   0.749070 0.083346 0.984691 -0.153405
Cl2   Cl    Cl    0.587726 0.922507 0.031547 -0.358452
Cl3   Cl    Cl    0.432161 0.813228 0.832565 -0.362602
N5    N     N_R   0.397723 0.852034 0.289962 0.177678
O13   O     O_R   0.418953 0.853658 0.161271 -0.185810
O14   O     O_R   0.330425 0.781026 0.323109 -0.280849
Cl4   Cl    Cl    0.348304 0.354567 0.140835 -0.346917
Cl5   Cl    Cl    0.647367 0.740163 0.265417 -0.432200
N6    N     N_R   0.787078 0.722953 0.873228 0.158899
O15   O     O_R   0.868606 0.693245 0.891626 -0.283025
O16   O     O_R   0.771800 0.831930 0.831403 -0.223304
Cl6   Cl    Cl    0.744526 0.294336 0.336620 -0.396219
N7    N     N_R   0.367908 0.365120 0.842196 0.171889
O17   O     O_R   0.287532 0.402544 0.840870 -0.251142
O18   O     O_R   0.380188 0.249453 0.808625 -0.262448
Cl7   Cl    Cl    0.886245 0.136811 0.436152 -0.251278
Cl8   Cl    Cl    0.079999 0.150948 0.343754 -0.274024
N8    N     N_R   0.223809 0.275381 0.496047 0.167170
O19   O     O_R   0.291220 0.244716 0.423754 -0.293942
O20   O     O_R   0.200227 0.208484 0.597518 -0.186314
Cl9   Cl    Cl    0.263282 0.734570 0.609503 -0.398375
Cl10  Cl    Cl    0.112033 0.877140 0.524291 -0.259236
Cl11  Cl    Cl    0.928804 0.862951 0.651598 -0.250769
N9    N     N_R   0.434973 0.106093 0.257975 0.183840
O21   O     O_R   0.493156 0.149031 0.173818 -0.249659
O22   O     O_R   0.353065 0.086068 0.214579 -0.154251

loop_
_geom_bond_atom_site_label_1
_geom_bond_atom_site_label_2
_geom_bond_distance
_ccdc_geom_bond_type
C8    C11   1.416140 A    
C31   C32   1.389504 A    
C9    C10   1.423817 A    
Cu1   Cu2   2.732632 S    
N3    O9    1.299105 A    
Cu1   O7    1.978542 S    
C16   C17   1.392495 A    
N5    O13   1.299058 A    
C38   N7    1.429469 S    
C5    N3    1.440561 S    
C18   C19   1.399444 A    
C27   C28   1.418762 A    
N8    O20   1.301555 A    
Cu1   N2    2.052204 S    
C24   C25   1.421419 A    
C21   C26   1.421361 A    
O4    C2    1.310736 A    
O7    C4    1.320044 A    
N4    O12   1.301043 A    
C5    C6    1.412260 A    
C8    C9    1.421563 A    
O5    C3    1.304303 A    
C3    C30   1.477810 S    
N5    O14   1.300551 A    
C35   C36   1.439467 A    
C6    C7    1.403684 A    
C13   C14   1.422328 A    
C21   Cl1   1.751829 S    
N3    O10   1.302705 A    
C22   N4    1.437625 S    
C7    Cl6   1.782396 S    
C11   C12   1.395104 A    
C28   N9    1.435149 S    
C32   C33   1.383410 A    
C12   Cl8   1.775742 S    
O3    Cu1   1.967979 S    
C37   C38   1.427440 A    
C34   C35   1.401857 A    
C5    C10   1.419933 A    
N6    O15   1.301107 A    
C17   Cl11  1.775037 S    
N8    O19   1.298888 A    
O3    C2    1.303103 A    
C29   C30   1.407692 A    
N7    O18   1.300504 A    
C15   C16   1.413242 A    
C34   H2    1.066606 S    
C11   Cl7   1.775413 S    
C24   Cl3   1.769407 S    
C16   Cl10  1.775566 S    
C38   N2    1.373560 A    
O1    C1    1.315391 A    
C25   C26   1.406884 A    
C19   C20   1.398532 A    
C21   C22   1.400403 A    
Cu2   O8    1.967977 S    
C7    C8    1.409530 A    
C13   C18   1.412481 A    
C14   C15   1.423700 A    
C35   N2    1.369518 A    
C20   Cl9   1.774390 S    
C36   N1    1.397703 A    
O8    C4    1.301999 A    
N1    C37   1.375975 A    
C23   Cl2   1.754081 S    
N9    O22   1.301555 A    
C4    C6    1.470412 S    
C32   H1    1.085290 S    
C18   N8    1.438092 S    
C33   C34   1.393168 A    
C15   C20   1.413052 A    
Cu1   O5    1.976549 S    
C29   N5    1.440866 S    
C26   C27   1.421241 A    
O1    Cu1   1.952610 S    
C9    C14   1.419569 A    
O2    Cu2   1.976551 S    
O6    C3    1.323439 A    
O4    Cu2   1.978542 S    
C31   Cl5   1.741026 S    
C10   C17   1.420051 A    
C22   C23   1.395562 A    
O2    C1    1.311806 A    
N7    O17   1.301367 A    
N4    O11   1.301529 A    
C28   C29   1.400965 A    
C31   C36   1.426960 A    
C23   C24   1.402869 A    
C25   C30   1.422040 A    
C37   Cl4   1.754240 S    
C2    C19   1.456279 S    
C1    C27   1.478845 S    
Cu2   O6    1.952610 S    
N9    O21   1.301279 A    
C12   C13   1.413895 A    
C33   N6    1.425892 S    
N6    O16   1.299912 A    
Cu2   N1    2.054862 S    
