data_mof_unit_47782.cif
_audit_creation_date              2012-10-26T21:04:02-0400
_audit_creation_method            fapswitch 2.2
_symmetry_space_group_name_H-M    P1
_symmetry_Int_Tables_number       1
_space_group_crystal_system       triclinic
_cell_length_a                    15.24396
_cell_length_b                    13.842009
_cell_length_c                    11.021004
_cell_angle_alpha                 89.179165
_cell_angle_beta                  89.153449
_cell_angle_gamma                 90.246307
_cell_volume                      2324.99323226

loop_
_atom_site_label
_atom_site_type_symbol
_atom_type_description
_atom_site_fract_x
_atom_site_fract_y
_atom_site_fract_z
_atom_type_partial_charge
C1    C     C_R   0.329566 0.499667 0.498303 0.540256
C2    C     C_R   0.421960 0.107593 0.482747 -0.149802
C3    C     C_R   0.575017 0.208764 0.524012 0.040733
C4    C     C_R   0.424325 0.209015 0.478855 0.037867
C5    C     C_R   0.498631 0.054154 0.505475 0.021691
C6    C     C_R   0.435441 0.892456 0.441282 -0.120287
C7    C     C_R   0.560932 0.890722 0.570190 -0.130329
C8    C     C_R   0.438566 0.791238 0.437414 0.071394
C9    C     C_R   0.559704 0.789309 0.567316 0.057687
C10   C     C_R   0.498181 0.944846 0.506190 0.015933
C11   C     C_R   0.499584 0.500503 0.262132 0.533816
C12   C     C_R   0.670579 0.500764 0.498622 0.542265
C13   C     C_R   0.497847 0.499539 0.737475 0.547063
C14   C     C_R   0.533135 0.575101 0.057093 -0.029008
C15   C     C_R   0.526174 0.577293 0.934525 -0.030060
C16   C     C_R   0.497370 0.500366 0.129014 -0.018486
C17   C     C_R   0.493760 0.499500 0.869867 -0.021573
C18   C     C_R   0.460248 0.421717 0.066663 -0.158257
C19   C     C_R   0.459504 0.420677 0.938327 -0.163634
C20   C     C_3   0.581546 0.666957 0.915332 -0.008261
C21   C     C_3   0.586956 0.667228 0.060216 -0.010339
C22   C     C_R   0.088918 0.568037 0.520692 -0.123760
C23   C     C_R   0.190815 0.406038 0.480685 -0.144887
C24   C     C_R   0.911270 0.561527 0.434613 -0.128802
C25   C     C_R   0.179543 0.578913 0.513454 -0.021576
C26   C     C_R   0.822269 0.580011 0.455310 -0.005240
C27   C     C_R   0.232553 0.496340 0.496703 0.001763
C28   C     C_R   0.767779 0.500182 0.493878 0.013428
C29   C     C_R   0.669176 0.641435 0.847765 0.052584
C30   C     C_R   0.703361 0.545875 0.852581 -0.069610
C31   C     C_R   0.789055 0.525722 0.814628 -0.102789
C32   C     C_R   0.844458 0.600224 0.775677 -0.092398
C33   C     C_R   0.812929 0.694267 0.770113 -0.106938
C34   C     C_R   0.808633 0.412116 0.526435 -0.147607
C35   C     C_R   0.725439 0.713942 0.798753 -0.101510
C36   C     C_R   0.532717 0.749560 0.120149 0.062789
C37   C     C_R   0.439423 0.745990 0.120328 -0.069942
C38   C     C_R   0.389324 0.829193 0.135631 -0.127600
C39   C     C_R   0.430061 0.917428 0.156096 -0.105006
C40   C     C_R   0.520841 0.921762 0.166355 -0.112195
C41   C     C_R   0.571497 0.839154 0.148135 -0.110002
C42   C     C_R   0.529231 0.753974 0.863514 0.039605
C43   C     C_R   0.562249 0.849200 0.873919 -0.106784
C44   C     C_R   0.510925 0.929709 0.846139 -0.104431
C45   C     C_R   0.099547 0.398382 0.476909 -0.129668
C46   C     C_R   0.424924 0.917515 0.808605 -0.089990
C47   C     C_R   0.390100 0.824835 0.800100 -0.105144
C48   C     C_R   0.441099 0.744052 0.826641 -0.054216
C49   C     C_R   0.681930 0.651172 0.105113 0.021594
C50   C     C_R   0.748237 0.720203 0.077350 -0.088178
C51   C     C_R   0.836506 0.701238 0.099432 -0.096702
C52   C     C_R   0.861444 0.611879 0.146406 -0.097115
C53   C     C_R   0.797955 0.541959 0.173607 -0.115699
C54   C     C_R   0.709321 0.561333 0.154703 -0.103019
C55   C     C_R   0.210466 0.679937 0.506057 0.060469
C56   C     C_R   0.899588 0.402940 0.525128 -0.135788
C57   C     C_R   0.205696 0.737724 0.609583 -0.097646
C58   C     C_R   0.207697 0.838537 0.597905 -0.119983
C59   C     C_R   0.214473 0.882243 0.483288 -0.110215
C60   C     C_R   0.219189 0.825343 0.379895 -0.138675
C61   C     C_R   0.217315 0.724580 0.390972 -0.100138
C62   C     C_R   0.799107 0.685692 0.451594 0.048175
C63   C     C_R   0.727483 0.724202 0.388869 -0.056184
C64   C     C_R   0.712597 0.823977 0.386907 -0.127962
C65   C     C_R   0.770296 0.887340 0.441883 -0.123236
C66   C     C_R   0.843711 0.851297 0.499713 -0.126165
C67   C     C_R   0.047932 0.480206 0.494744 0.017003
C68   C     C_R   0.858145 0.751950 0.504084 -0.102301
C69   C     C_R   0.951691 0.478897 0.480978 0.011133
C70   C     C_R   0.575978 0.107251 0.525712 -0.149661
Cu1   Cu    Cu3+1 0.500000 0.596430 0.500000 0.940962
Cu2   Cu    Cu3+1 0.500000 0.403570 0.500000 0.928344
H1    H     H_    0.432405 0.360787 0.116747 0.131464
H2    H     H_    0.856733 0.753030 0.745106 0.098296
H3    H     H_    0.705555 0.787534 0.787331 0.081812
H4    H     H_    0.404026 0.680849 0.098620 0.104908
H5    H     H_    0.318782 0.825395 0.128024 0.089226
H6    H     H_    0.391162 0.982078 0.166601 0.097479
H7    H     H_    0.552487 0.990084 0.184568 0.106539
H8    H     H_    0.641057 0.849175 0.148729 0.086131
H9    H     H_    0.625618 0.862741 0.912500 0.084304
H10   H     H_    0.537465 0.001741 0.856286 0.102999
H11   H     H_    0.384743 0.979833 0.788535 0.104516
H12   H     H_    0.432309 0.358623 0.893174 0.131282
H13   H     H_    0.322305 0.815228 0.777463 0.099780
H14   H     H_    0.408610 0.674715 0.824903 0.121934
H15   H     H_    0.733531 0.786470 0.029506 0.085881
H16   H     H_    0.885979 0.754851 0.075776 0.098468
H17   H     H_    0.930072 0.596492 0.160832 0.103146
H18   H     H_    0.817447 0.472208 0.209495 0.115497
H19   H     H_    0.663920 0.503611 0.175380 0.112290
H20   H     H_    0.049761 0.631363 0.539561 0.099848
H21   H     H_    0.951611 0.617613 0.392260 0.106373
H22   H     H_    0.195481 0.704821 0.698463 0.089652
H23   H     H_    0.385514 0.929066 0.390197 0.097416
H24   H     H_    0.201400 0.883014 0.677479 0.090776
H25   H     H_    0.215016 0.960215 0.474468 0.094334
H26   H     H_    0.222246 0.859550 0.291166 0.093127
H27   H     H_    0.216555 0.681494 0.309701 0.097531
H28   H     H_    0.682674 0.678580 0.341555 0.158521
H29   H     H_    0.654130 0.852775 0.347598 0.123636
H30   H     H_    0.757699 0.964225 0.440211 0.100332
H31   H     H_    0.889246 0.900118 0.542121 0.099607
H32   H     H_    0.916020 0.726712 0.550264 0.090695
H33   H     H_    0.228684 0.341095 0.466895 0.114886
H34   H     H_    0.610340 0.925588 0.623813 0.093438
H35   H     H_    0.770313 0.350907 0.559414 0.114508
H36   H     H_    0.069766 0.329253 0.457588 0.100446
H37   H     H_    0.928819 0.337549 0.560921 0.101081
H38   H     H_    0.637681 0.071369 0.541473 0.075599
H39   H     H_    0.359637 0.072134 0.469271 0.076055
H40   H     H_    0.635178 0.246832 0.542086 0.117254
H41   H     H_    0.364612 0.247278 0.459420 0.115431
H42   H     H_    0.392208 0.752270 0.383593 0.143642
H43   H     H_    0.607824 0.748777 0.617205 0.143302
H44   H     H_    0.666413 0.486208 0.891757 0.107769
H45   H     H_    0.813579 0.452551 0.820237 0.101611
H46   H     H_    0.911935 0.585276 0.750694 0.108487
N1    N     N_R   0.500000 0.258690 0.500000 -0.219493
N2    N     N_R   0.500000 0.741330 0.500000 -0.238168
O1    O     O_R   0.371460 0.581430 0.500010 -0.500656
O2    O     O_R   0.628540 0.581430 0.499990 -0.514763
O3    O     O_R   0.371470 0.418560 0.500010 -0.522201
O4    O     O_R   0.628530 0.418560 0.499990 -0.519293
O5    O     O_R   0.499990 0.581450 0.319660 -0.508672
O6    O     O_R   0.500010 0.581450 0.680340 -0.504770
O7    O     O_R   0.500010 0.418580 0.319660 -0.502086
O8    O     O_R   0.499990 0.418580 0.680340 -0.498964

loop_
_geom_bond_atom_site_label_1
_geom_bond_atom_site_label_2
_ccdc_geom_bond_type
C7    C10   A    
C66   C68   A    
C34   C56   A    
C23   C45   A    
Cu1   O2    S    
C11   O7    A    
C41   H8    S    
C21   C49   S    
C36   C41   A    
C21   C36   S    
C30   H44   S    
C53   C54   A    
C35   H3    S    
C29   C30   A    
Cu1   N2    S    
Cu2   O8    S    
C34   H35   S    
C47   H13   S    
C14   C21   S    
C36   C37   A    
C11   O5    A    
C24   C26   A    
C60   H26   S    
C30   C31   A    
C49   C54   A    
C23   H33   S    
C15   C17   A    
C18   C19   A    
C49   C50   A    
C58   H24   S    
C31   H45   S    
C70   H38   S    
C17   C19   A    
C13   O8    A    
C47   C48   A    
C22   C25   A    
C45   C67   A    
C44   H10   S    
C4    N1    A    
C23   C27   A    
C45   H36   S    
C8    H42   S    
C28   C34   A    
C59   C60   A    
Cu2   O4    S    
C52   H17   S    
C61   H27   S    
C65   H30   S    
C44   C46   A    
C24   C69   A    
C20   C29   S    
C64   H29   S    
C2    H39   S    
C40   H7    S    
Cu2   O7    S    
C51   C52   A    
C9    H43   S    
C39   H6    S    
C68   H32   S    
C4    H41   S    
C3    C70   A    
C39   C40   A    
C6    C8    A    
C63   H28   S    
C58   C59   A    
C46   H11   S    
C60   C61   A    
C67   C69   S    
C2    C4    A    
C43   C44   A    
C1    O3    A    
C37   C38   A    
C11   C16   S    
C31   C32   A    
C12   O4    A    
C3    H40   S    
C15   C20   S    
C62   C63   A    
C50   C51   A    
C7    H34   S    
Cu1   O6    S    
C42   C48   A    
C3    N1    A    
C50   H15   S    
C13   O6    A    
C40   C41   A    
C37   H4    S    
C12   C28   S    
C6    H23   S    
C18   H1    S    
C57   H22   S    
C55   C57   A    
Cu2   O3    S    
C59   H25   S    
C48   H14   S    
C2    C5    A    
C42   C43   A    
C19   H12   S    
C56   H37   S    
C52   C53   A    
C8    N2    A    
C7    C9    A    
C46   C47   A    
C66   H31   S    
Cu1   O1    S    
C25   C55   S    
C32   H46   S    
C5    C70   A    
C51   H16   S    
C6    C10   A    
C20   C42   S    
C38   H5    S    
C62   C68   A    
C25   C27   A    
C29   C35   A    
C26   C28   A    
C13   C17   S    
C64   C65   A    
C26   C62   S    
C54   H19   S    
C24   H21   S    
C32   C33   A    
C57   C58   A    
C38   C39   A    
C43   H9    S    
C55   C61   A    
Cu2   N1    S    
C33   C35   A    
C14   C16   A    
C65   C66   A    
C1    O1    A    
C22   C67   A    
C63   C64   A    
C33   H2    S    
C5    C10   S    
C12   O2    A    
C20   C21   S    
C16   C18   A    
C56   C69   A    
C53   H18   S    
C1    C27   S    
C9    N2    A    
C22   H20   S    
C14   C15   A    
Cu1   O5    S    
Cu1   Cu2   S    
