data_mof_unit_27444.cif
_audit_creation_date              2012-12-10T17:47:42-0500
_audit_creation_method            fapswitch 2.2
_symmetry_space_group_name_H-M    P1
_symmetry_Int_Tables_number       1
_space_group_crystal_system       triclinic
_cell_length_a                    10.632604
_cell_length_b                    10.709795
_cell_length_c                    9.913725
_cell_angle_alpha                 89.694958
_cell_angle_beta                  89.573832
_cell_angle_gamma                 92.122269
_cell_volume                      1128.08243759

loop_
_atom_site_label
_atom_site_type_symbol
_atom_type_description
_atom_site_fract_x
_atom_site_fract_y
_atom_site_fract_z
_atom_type_partial_charge
C1    C     C_R   0.507585 0.260088 0.501025 0.855148
C2    C     C_3   0.878507 0.494454 0.498738 0.168821
C3    C     C_3   0.931574 0.619771 0.556952 -0.466429
C4    C     C_3   0.929257 0.481835 0.352212 -0.385022
C5    C     C_R   0.560638 0.112672 0.751669 -0.163989
C6    C     C_R   0.536034 0.052395 0.874570 -0.136931
C7    C     C_R   0.468214 0.939049 0.877131 -0.154106
C8    C     C_R   0.435997 0.880699 0.756228 -0.169885
C9    C     C_R   0.471797 0.935758 0.630483 0.100918
C10   C     C_R   0.516161 0.060069 0.628950 0.093918
C11   C     C_R   0.511957 0.126165 0.504611 -0.125880
C12   C     C_R   0.257802 0.498255 0.500075 0.820829
C13   C     C_R   0.488950 0.063388 0.383437 -0.219231
C14   C     C_R   0.470979 0.936331 0.383741 -0.229470
C15   C     C_R   0.468350 0.871238 0.505774 -0.135595
C16   C     C_R   0.340455 0.329995 0.142205 -0.227900
C17   C     C_R   0.264843 0.243299 0.073453 -0.221891
C18   C     C_R   0.264548 0.242392 0.933191 0.240637
C19   C     C_R   0.340053 0.330201 0.862248 -0.167864
C20   C     C_R   0.421628 0.415885 0.928958 0.094787
C21   C     C_R   0.421946 0.415655 0.073426 0.129654
C22   C     C_R   0.573399 0.583154 0.068439 0.224231
C23   C     C_R   0.486294 0.738720 0.500934 0.887150
C24   C     C_R   0.573573 0.581111 0.925511 -0.133063
C25   C     C_R   0.742062 0.498166 0.499472 0.848199
C26   C     C_3   0.069129 0.388179 0.590712 -0.417037
C27   C     C_3   0.923859 0.384205 0.588696 0.043715
C28   C     C_3   0.075926 0.622125 0.553686 -0.416948
C29   C     C_3   0.071628 0.475736 0.353735 -0.389524
C30   C     C_3   0.121329 0.496179 0.499564 0.161548
H1    H     H_    0.100976 0.402983 0.696324 0.162400
H2    H     H_    0.112002 0.700221 0.487796 0.166316
H3    H     H_    0.897576 0.700028 0.497241 0.172291
H4    H     H_    0.485252 0.112061 0.287510 0.174272
H5    H     H_    0.616577 0.198882 0.754617 0.167385
H6    H     H_    0.566835 0.095249 0.967921 0.137507
H7    H     H_    0.443315 0.894781 0.972573 0.136349
H8    H     H_    0.331353 0.327717 0.249116 0.215030
H9    H     H_    0.205080 0.177702 0.130439 0.146012
H10   H     H_    0.332276 0.328938 0.755272 0.212620
H11   H     H_    0.632011 0.647463 0.868133 0.157801
H12   H     H_    0.890125 0.398531 0.694007 0.161731
H13   H     H_    0.112442 0.639662 0.657119 0.177374
H14   H     H_    0.111951 0.548665 0.283658 0.187024
H15   H     H_    0.099560 0.383061 0.315603 0.168869
H16   H     H_    0.887813 0.397475 0.301972 0.184341
N1    N     N_R   0.498810 0.498800 0.142780 -0.117075
N2    N     N_R   0.498760 0.498720 0.857170 -0.137286
O1    O     O_R   0.500000 0.316780 0.614690 -0.645811
O2    O     O_R   0.499990 0.316750 0.385360 -0.633535
O3    O     O_R   0.314800 0.499990 0.614670 -0.646276
O4    O     O_R   0.314790 0.499970 0.385330 -0.643667
O5    O     O_R   0.500010 0.683250 0.614640 -0.624880
O6    O     O_R   0.500000 0.683220 0.385310 -0.614317
O7    O     O_R   0.685210 0.500030 0.614670 -0.628618
O8    O     O_R   0.685200 0.500010 0.385330 -0.626615
Zn1   Zn    Zn3+2 0.500010 0.500020 0.653130 0.912531
Zn2   Zn    Zn3+2 0.499990 0.499980 0.346870 0.922150
H17   H     H_    0.903412 0.564123 0.290712 0.169210
H18   H     H_    0.381090 0.793826 0.762650 0.162493
H19   H     H_    0.460326 0.889235 0.288025 0.158546
C31   C     C_3   0.651983 0.684761 0.134128 -0.850784
H20   H     H_    0.716584 0.733004 0.060453 0.192663
H21   H     H_    0.590444 0.756684 0.174370 0.242798
H22   H     H_    0.711865 0.647776 0.213580 0.262813
H23   H     H_    0.107735 0.298242 0.556522 0.167097
C32   C     C_3   0.183777 0.148487 0.858088 -0.949495
H24   H     H_    0.134958 0.080895 0.927886 0.241752
H25   H     H_    0.111509 0.196963 0.799655 0.234153
H26   H     H_    0.243055 0.095451 0.787563 0.257225
C33   C     C_3   0.871904 0.254316 0.545544 -0.952456
H27   H     H_    0.900706 0.182781 0.619585 0.246118
H28   H     H_    0.767766 0.251684 0.543173 0.234103
H29   H     H_    0.908379 0.228289 0.444782 0.253163
H30   H     H_    0.898571 0.631587 0.662832 0.177888

loop_
_geom_bond_atom_site_label_1
_geom_bond_atom_site_label_2
_ccdc_geom_bond_type
C16   C21   A    
N2    Zn1   S    
C19   C20   A    
C1    C11   S    
C25   O8    A    
C7    C8    A    
C4    H16   S    
C26   C27   S    
C31   H20   S    
C3    C28   S    
O6    Zn2   S    
C5    C6    A    
C3    H3    S    
O1    Zn1   S    
C18   C19   A    
C17   H9    S    
C31   H21   S    
C6    H6    S    
C8    C9    A    
C2    C27   S    
O3    Zn1   S    
C3    H30   S    
C1    O2    A    
C4    C29   S    
C15   C23   S    
C22   N1    A    
C26   H1    S    
C13   C14   A    
C24   H11   S    
C5    C10   A    
C12   O4    A    
C23   O5    A    
C32   H24   S    
C24   N2    A    
C28   H2    S    
C10   C11   A    
C33   H28   S    
O5    Zn1   S    
C16   C17   A    
C18   C32   S    
C14   H19   S    
C29   H15   S    
C32   H25   S    
C26   H23   S    
C2    C4    S    
C29   C30   S    
C22   C31   S    
C17   C18   A    
C7    H7    S    
O2    Zn2   S    
C20   N2    A    
O4    Zn2   S    
C26   C30   S    
O7    Zn1   S    
C29   H14   S    
C22   C24   A    
C12   O3    A    
C27   C33   S    
C23   O6    A    
C9    C10   A    
C31   H22   S    
C12   C30   S    
C25   O7    A    
C33   H29   S    
C6    C7    A    
C28   H13   S    
C32   H26   S    
C28   C30   S    
C2    C3    S    
C9    C15   A    
C13   H4    S    
C8    H18   S    
N1    Zn2   S    
C11   C13   A    
C27   H12   S    
C5    H5    S    
C4    H17   S    
O8    Zn2   S    
C2    C25   S    
C19   H10   S    
C33   H27   S    
C20   C21   A    
C14   C15   A    
C1    O1    A    
C16   H8    S    
C21   N1    A    
