data_mof_unit_25592.cif
_audit_creation_date              2012-12-11T15:40:27-0500
_audit_creation_method            fapswitch 2.2
_symmetry_space_group_name_H-M    P1
_symmetry_Int_Tables_number       1
_space_group_crystal_system       triclinic
_cell_length_a                    6.986359
_cell_length_b                    18.820069
_cell_length_c                    20.700277
_cell_angle_alpha                 107.185197
_cell_angle_beta                  89.634908
_cell_angle_gamma                 90.517965
_cell_volume                      2600.11118209

loop_
_atom_site_label
_atom_site_type_symbol
_atom_type_description
_atom_site_fract_x
_atom_site_fract_y
_atom_site_fract_z
_atom_type_partial_charge
O1    O     O_R   0.494330 0.423860 0.422200 -0.531217
O2    O     O_R   0.819690 0.434890 0.556180 -0.541690
O3    O     O_R   0.994310 0.576140 0.577800 -0.532288
C1    C     C_R   0.650967 0.420418 0.576021 0.722818
O4    O     O_R   0.823770 0.415220 0.421380 -0.536812
O5    O     O_R   0.998410 0.556340 0.442040 -0.534804
C2    C     C_R   0.654929 0.393805 0.395584 0.723343
O6    O     O_R   0.490230 0.443660 0.557960 -0.534794
O7    O     O_3   0.662220 0.546320 0.506940 -0.365341
V1    V     V_3+5 0.935390 0.491410 0.498710 1.414604
O8    O     O_R   0.328380 0.565110 0.443820 -0.533077
C3    C     C_R   0.160750 0.579358 0.423606 0.729258
O9    O     O_R   0.324310 0.584780 0.578620 -0.535505
C4    C     C_R   0.155408 0.606213 0.604409 0.718522
V2    V     V_3+5 0.435920 0.508590 0.501290 1.430174
O10   O     O_3   0.159220 0.453680 0.493060 -0.370375
C5    C     C_1   0.145212 0.668463 0.666680 -0.195820
C6    C     C_1   0.134494 0.720041 0.718917 0.005584
C7    C     C_1   0.120991 0.780548 0.780575 0.003240
C8    C     C_1   0.110234 0.831966 0.832923 -0.195130
C9    C     C_3   0.197482 0.793574 0.310403 -0.263107
C10   C     C_3   0.007357 0.811283 0.279176 -0.252746
H1    H     H_    0.918357 0.861189 0.301265 0.128430
H2    H     H_    0.260417 0.827469 0.358960 0.147285
C11   C     C_1   0.098780 0.875109 0.122204 -0.190985
C12   C     C_1   0.155334 0.625232 0.378210 -0.194514
C13   C     C_3   0.297381 0.776504 0.239980 -0.256792
C14   C     C_3   0.107135 0.792532 0.209021 0.018866
C15   C     C_3   0.234487 0.694114 0.224128 0.391501
C16   C     C_3   0.137095 0.710470 0.293871 -0.017714
C17   C     C_3   0.045991 0.710089 0.193745 0.379381
C18   C     C_3   0.948976 0.728177 0.263666 0.361430
C19   C     C_1   0.100762 0.837691 0.161113 0.027400
C20   C     C_1   0.149717 0.663528 0.340141 0.014922
H3    H     H_    0.440058 0.797513 0.229958 0.138633
C21   C     C_3   0.542491 0.181225 0.719198 0.191163
C22   C     C_3   0.729361 0.208967 0.694313 0.423457
C23   C     C_1   0.644758 0.373807 0.620411 -0.216696
C24   C     C_1   0.610622 0.125355 0.878947 -0.198242
C25   C     C_3   0.453033 0.258112 0.726627 0.298835
C26   C     C_3   0.642023 0.286809 0.702986 -0.169991
C27   C     C_3   0.525015 0.285408 0.800520 0.407144
C28   C     C_3   0.614485 0.208008 0.792753 -0.174075
C29   C     C_3   0.714975 0.314130 0.777181 -0.370767
C30   C     C_3   0.800391 0.235898 0.768036 0.431643
C31   C     C_1   0.644938 0.334640 0.657571 0.010811
C32   C     C_1   0.611006 0.163137 0.840637 0.047304
H4    H     H_    0.788688 0.367881 0.801117 0.150007
C33   C     C_1   0.644379 0.331686 0.333242 -0.193102
C34   C     C_1   0.633869 0.280200 0.280932 0.007441
C35   C     C_1   0.620841 0.219739 0.219227 0.006374
C36   C     C_1   0.610380 0.168276 0.166896 -0.194398
O11   O     O_R   0.764940 0.056420 0.942120 -0.535313
O12   O     O_R   0.431180 0.084790 0.078640 -0.535412
O13   O     O_R   0.256690 0.943640 0.057940 -0.534801
C37   C     C_R   0.599956 0.106197 0.104509 0.719756
O14   O     O_R   0.435470 0.065130 0.943840 -0.538400
O15   O     O_R   0.261010 0.923840 0.922180 -0.532323
C38   C     C_R   0.604226 0.079544 0.923987 0.722555
O16   O     O_R   0.760620 0.076220 0.077880 -0.533898
O17   O     O_3   0.592970 0.953720 0.993110 -0.366496
V3    V     V_3+5 0.319740 0.008590 0.001280 1.428249
O18   O     O_R   0.931020 0.915140 0.921290 -0.535359
C39   C     C_R   0.099944 0.893939 0.895389 0.723359
O19   O     O_R   0.926730 0.934800 0.056090 -0.535425
C40   C     C_R   0.094300 0.920529 0.076322 0.722999
V4    V     V_3+5 0.819230 0.991300 0.998610 1.431515
O20   O     O_3   0.095870 0.046270 0.006890 -0.368958
O21   O     O_3   0.418023 0.323960 0.857914 -0.550744
C41   C     C_3   0.378407 0.396219 0.854943 -0.229074
H5    H     H_    0.302831 0.395187 0.807533 0.172183
H6    H     H_    0.511225 0.430398 0.860674 0.132675
H7    H     H_    0.282726 0.423759 0.897822 0.141176
O22   O     O_3   0.268666 0.270488 0.704816 -0.544455
C42   C     C_3   0.256516 0.242780 0.633295 0.148466
H8    H     H_    0.175345 0.189893 0.619232 0.176018
H9    H     H_    0.395852 0.229502 0.606526 0.079776
C43   C     C_3   0.154491 0.299402 0.606309 -0.277509
H10   H     H_    0.008043 0.307290 0.627430 0.218355
H11   H     H_    0.230703 0.353766 0.623105 0.197146
C44   C     C_3   0.144513 0.273754 0.529232 -0.827204
H12   H     H_    0.290919 0.269723 0.507236 0.221797
H13   H     H_    0.062026 0.314441 0.511474 0.248917
H14   H     H_    0.072211 0.218699 0.511147 0.218105
O23   O     O_3   0.772605 0.695709 0.274024 -0.566837
C45   C     C_3   0.669355 0.742163 0.329117 0.113369
H15   H     H_    0.523468 0.718410 0.325952 0.184616
H16   H     H_    0.654310 0.799578 0.325516 0.093910
C46   C     C_3   0.749654 0.742453 0.397960 -0.337598
H17   H     H_    0.769343 0.684261 0.398916 0.218131
H18   H     H_    0.889520 0.772084 0.406726 0.193671
C47   C     C_3   0.613938 0.781575 0.455253 -0.834015
H19   H     H_    0.591332 0.840006 0.455493 0.228668
H20   H     H_    0.676636 0.781786 0.504467 0.237252
H21   H     H_    0.473720 0.752065 0.449356 0.231143
O24   O     O_3   0.963359 0.670878 0.131138 -0.560833
C48   C     C_3   0.939671 0.595282 0.127252 -0.250785
H22   H     H_    0.857426 0.587708 0.170886 0.186072
H23   H     H_    0.079393 0.566735 0.122638 0.174332
H24   H     H_    0.857899 0.567488 0.080785 0.144644
O25   O     O_3   0.351706 0.631469 0.197940 -0.548196
C49   C     C_3   0.447074 0.637655 0.139652 -0.203025
H25   H     H_    0.562362 0.680420 0.153518 0.191344
H26   H     H_    0.347690 0.650482 0.102866 0.140901
H27   H     H_    0.514050 0.583464 0.113848 0.152401
O26   O     O_3   0.847196 0.165931 0.642157 -0.547714
C50   C     C_3   0.754678 0.151962 0.579394 -0.272418
H28   H     H_    0.735830 0.203978 0.565347 0.134020
H29   H     H_    0.615459 0.122780 0.578629 0.174313
H30   H     H_    0.846758 0.114888 0.540041 0.154531
O27   O     O_3   0.463844 0.110098 0.687400 -0.573961
C51   C     C_3   0.288615 0.100296 0.718325 0.145763
H31   H     H_    0.169526 0.117462 0.691292 0.197829
H32   H     H_    0.279973 0.132702 0.772733 0.155679
C52   C     C_3   0.261782 0.018195 0.713168 -0.332903
H33   H     H_    0.261020 0.984613 0.659060 0.204617
H34   H     H_    0.383114 0.999691 0.738597 0.200898
C53   C     C_3   0.074362 0.005000 0.746433 -0.794531
H35   H     H_    0.074665 0.036344 0.801123 0.230583
H36   H     H_    0.057709 0.944836 0.741222 0.223544
H37   H     H_    0.950724 0.023037 0.721781 0.256390
O28   O     O_3   0.985116 0.220532 0.786967 -0.540281
C54   C     C_3   0.016136 0.259310 0.855606 -0.144210
H38   H     H_    0.900731 0.250051 0.889334 0.112052
H39   H     H_    0.032415 0.319794 0.862580 0.159120
H40   H     H_    0.149576 0.238539 0.872081 0.180253

loop_
_geom_bond_atom_site_label_1
_geom_bond_atom_site_label_2
_ccdc_geom_bond_type
O15   V3    S    
O25   C49   S    
C13   C15   S    
C7    C8    T    
C1    O6    A    
C44   H14   S    
C51   H32   S    
C48   H22   S    
O11   C38   A    
C54   H38   S    
O23   C45   S    
C10   C18   S    
C21   C22   S    
O5    C3    A    
C45   H16   S    
C54   H39   S    
O19   V4    S    
O26   C50   S    
V2    O10   S    
O13   V3    S    
C49   H27   S    
C6    C7    S    
C53   H35   S    
C44   H13   S    
O8    V2    S    
C12   C20   T    
O27   C51   S    
O16   V4    S    
C52   H34   S    
C50   H28   S    
C41   H5    S    
O1    V2    S    
C46   H18   S    
O7    V1    S    
O17   V3    S    
C25   C27   S    
C9    C13   S    
C10   C14   S    
O9    C4    A    
C50   H29   S    
C4    C5    S    
O21   C41   S    
C27   C29   S    
C21   O27   S    
C51   H31   S    
C48   H23   S    
C5    C6    T    
O18   V4    S    
O15   C39   A    
O12   C37   A    
O22   C42   S    
C16   C20   S    
V4    O20   S    
C21   C25   S    
C2    C33   S    
O4    C2    A    
C45   H15   S    
C54   H40   S    
O12   V3    S    
C13   H3    S    
C47   H21   S    
C44   H12   S    
C37   O16   A    
C3    C12   S    
C53   H37   S    
C8    C39   S    
O2    C1    A    
C42   H8    S    
C15   C16   S    
C28   C30   S    
O17   V4    S    
C17   C18   S    
C26   C31   S    
C52   C53   S    
C24   C38   S    
O24   C48   S    
C41   H7    S    
C47   H20   S    
C34   C35   S    
C15   O25   S    
C46   C47   S    
C49   H26   S    
C42   H9    S    
O3    C4    A    
C25   C26   S    
C1    C23   S    
C14   C19   S    
C33   C34   T    
O6    V2    S    
O9    V2    S    
C26   C29   S    
C27   C28   S    
O14   V3    S    
C22   C30   S    
O2    V1    S    
O13   C40   A    
C29   C30   S    
C24   C32   T    
C48   H24   S    
O1    C2    A    
C14   C17   S    
C11   C40   S    
C22   O26   S    
C45   C46   S    
O5    V1    S    
O8    C3    A    
C30   O28   S    
C9    C16   S    
V3    O20   S    
O7    V2    S    
C35   C36   T    
C15   C17   S    
O3    V1    S    
V1    O10   S    
C16   C18   S    
C43   H10   S    
C43   C44   S    
C52   H33   S    
C36   C37   S    
C18   O23   S    
C47   H19   S    
C50   H30   S    
C25   O22   S    
C43   H11   S    
C27   O21   S    
C22   C26   S    
C49   H25   S    
O11   V4    S    
C42   C43   S    
C53   H36   S    
C23   C31   T    
O14   C38   A    
O18   C39   A    
C29   H4    S    
O4    V1    S    
O19   C40   A    
C9    H2    S    
C13   C14   S    
O28   C54   S    
C10   H1    S    
C21   C28   S    
C41   H6    S    
C46   H17   S    
C9    C10   S    
C28   C32   S    
C51   C52   S    
C17   O24   S    
C11   C19   T    
