data_mof_unit_24840.cif
_audit_creation_date              2012-12-11T15:28:46-0500
_audit_creation_method            fapswitch 2.2
_symmetry_space_group_name_H-M    P1
_symmetry_Int_Tables_number       1
_space_group_crystal_system       triclinic
_cell_length_a                    6.95782
_cell_length_b                    19.601195
_cell_length_c                    23.377018
_cell_angle_alpha                 96.05753
_cell_angle_beta                  91.582018
_cell_angle_gamma                 88.253105
_cell_volume                      3167.96559058

loop_
_atom_site_label
_atom_site_type_symbol
_atom_type_description
_atom_site_fract_x
_atom_site_fract_y
_atom_site_fract_z
_atom_type_partial_charge
O1    O     O_R   0.617180 0.809390 0.808140 -0.521664
O2    O     O_R   0.382820 0.190610 0.191860 -0.521676
O3    O     O_R   0.293300 0.672410 0.795490 -0.534944
O4    O     O_R   0.706700 0.327590 0.204510 -0.534810
O5    O     O_R   0.117220 0.690610 0.691850 -0.521931
O6    O     O_R   0.882780 0.309390 0.308150 -0.521835
C1    C     C_R   0.465682 0.647787 0.805180 0.698413
C2    C     C_R   0.534315 0.352202 0.194807 0.698743
O7    O     O_R   0.287840 0.807750 0.814460 -0.524668
O8    O     O_R   0.712160 0.192250 0.185540 -0.524712
O9    O     O_R   0.111720 0.826910 0.710960 -0.533237
O10   O     O_R   0.888280 0.173090 0.289040 -0.533903
C3    C     C_R   0.456560 0.830750 0.833166 0.715742
C4    C     C_R   0.543440 0.169251 0.166833 0.715404
O11   O     O_R   0.622680 0.673080 0.789040 -0.532805
O12   O     O_R   0.377320 0.326920 0.210960 -0.532783
O13   O     O_3   0.448820 0.756130 0.716020 -0.359913
O14   O     O_3   0.551180 0.243870 0.283980 -0.360050
V1    V     V_3+5 0.176220 0.748860 0.756300 1.413723
V2    V     V_3+5 0.823780 0.251140 0.243700 1.413182
O15   O     O_R   0.781670 0.827580 0.704500 -0.535576
O16   O     O_R   0.218330 0.172420 0.295500 -0.535394
C5    C     C_R   0.946370 0.852207 0.694290 0.695093
C6    C     C_R   0.053688 0.147784 0.305708 0.695626
O17   O     O_R   0.787130 0.692240 0.685530 -0.525353
O18   O     O_R   0.212870 0.307760 0.314470 -0.525292
C7    C     C_R   0.956044 0.669225 0.666781 0.716751
C8    C     C_R   0.043956 0.330767 0.333224 0.717288
V3    V     V_3+5 0.675510 0.751130 0.743690 1.413750
V4    V     V_3+5 0.324490 0.248870 0.256310 1.413501
O19   O     O_3   0.952780 0.743870 0.783980 -0.357444
O20   O     O_3   0.047220 0.256130 0.216020 -0.357405
C9    C     C_1   0.966463 0.617158 0.614731 -0.219813
C10   C     C_1   0.033533 0.382816 0.385286 -0.219455
C11   C     C_1   0.978052 0.573640 0.571924 -0.002713
C12   C     C_1   0.021940 0.426321 0.428102 -0.002401
C13   C     C_1   0.993371 0.521834 0.521329 -0.004242
C14   C     C_1   0.006618 0.478116 0.478704 -0.004138
C15   C     C_R   0.936159 0.914826 0.663727 -0.052200
C16   C     C_R   0.064811 0.085628 0.336880 -0.052836
C17   C     C_R   0.771202 0.023754 0.654361 -0.147726
C18   C     C_R   0.238644 0.978889 0.348266 -0.152264
C19   C     C_R   0.817936 0.969395 0.686175 -0.182679
C20   C     C_R   0.185459 0.031403 0.315132 -0.181608
C21   C     C_R   0.012986 0.916450 0.608804 -0.199457
C22   C     C_R   0.989037 0.084740 0.392043 -0.205844
C23   C     C_R   0.968076 0.972056 0.575092 0.047471
C24   C     C_R   0.041343 0.031157 0.427269 0.047816
C25   C     C_R   0.841155 0.025376 0.598616 0.098703
C26   C     C_R   0.174573 0.979258 0.404853 0.099918
C27   C     C_R   0.039037 0.975245 0.518262 0.009793
C28   C     C_R   0.972776 0.028779 0.484547 0.006600
C29   C     C_R   0.840751 0.078473 0.509253 -0.249157
C30   C     C_R   0.178088 0.927450 0.494800 -0.243577
C31   C     C_R   0.779918 0.078427 0.565612 0.268633
C32   C     C_R   0.246686 0.929321 0.439530 0.258686
H1    H     H_    0.900368 0.128531 0.407233 0.103259
H2    H     H_    0.095628 0.871661 0.592255 0.101073
H3    H     H_    0.246197 0.031320 0.272920 0.114299
H4    H     H_    0.754777 0.968577 0.727961 0.114425
H5    H     H_    0.673926 0.063516 0.673223 0.159112
H6    H     H_    0.336001 0.938934 0.329718 0.159413
H7    H     H_    0.782703 0.119321 0.486081 0.127742
H8    H     H_    0.243485 0.889101 0.519438 0.129080
C33   C     C_R   0.488306 0.585700 0.835414 -0.047202
C34   C     C_R   0.511679 0.414279 0.164562 -0.047618
C35   C     C_R   0.605156 0.468202 0.834445 -0.162666
C36   C     C_R   0.394735 0.531763 0.165515 -0.161219
C37   C     C_R   0.564671 0.525835 0.805839 -0.166475
C38   C     C_R   0.435266 0.474140 0.194129 -0.165720
C39   C     C_R   0.453061 0.587710 0.894478 -0.215240
C40   C     C_R   0.546917 0.412262 0.105495 -0.215235
C41   C     C_R   0.498090 0.529969 0.925225 0.086326
C42   C     C_R   0.501836 0.469993 0.074741 0.086375
C43   C     C_R   0.574568 0.469874 0.893636 0.139703
C44   C     C_R   0.425325 0.530086 0.106325 0.138846
C45   C     C_R   0.473676 0.530010 0.986054 0.057229
C46   C     C_R   0.526232 0.469948 0.013910 0.057425
C47   C     C_R   0.600494 0.411801 0.979973 -0.186766
C48   C     C_R   0.399379 0.588153 0.019988 -0.186657
C49   C     C_R   0.623382 0.411922 0.921234 -0.200943
C50   C     C_R   0.376477 0.588032 0.078724 -0.199914
H9    H     H_    0.681874 0.366025 0.897125 0.123732
H10   H     H_    0.317952 0.633926 0.102830 0.124881
H11   H     H_    0.602743 0.364326 0.084818 0.096959
H12   H     H_    0.397279 0.635649 0.915159 0.097047
H13   H     H_    0.405165 0.475994 0.239511 0.108614
H14   H     H_    0.594768 0.523986 0.760456 0.107732
H15   H     H_    0.664423 0.422451 0.810356 0.113261
H16   H     H_    0.335432 0.577511 0.189599 0.115460
H17   H     H_    0.643559 0.364913 0.997479 0.124072
H18   H     H_    0.356279 0.635037 0.002481 0.124293
C51   C     C_1   0.467380 0.882818 0.885223 -0.218246
C52   C     C_1   0.532620 0.117184 0.114775 -0.218256
C53   C     C_1   0.478789 0.926335 0.928049 -0.001533
C54   C     C_1   0.521211 0.073668 0.071948 -0.001509
C55   C     C_1   0.493615 0.978141 0.978674 -0.003026
C56   C     C_1   0.506385 0.021862 0.021323 -0.003002
N1    N     N_2   0.650959 0.131661 0.588396 -0.527160
H19   H     H_    0.550603 0.146982 0.558678 0.260768
C57   C     C_3   0.745484 0.189426 0.619613 -0.568589
H20   H     H_    0.635622 0.226617 0.638785 0.200372
H21   H     H_    0.833876 0.215580 0.590057 0.197526
H22   H     H_    0.838993 0.172307 0.654963 0.205788
N2    N     N_2   0.396179 0.881934 0.419949 -0.534536
H23   H     H_    0.384958 0.834007 0.433854 0.257062
C58   C     C_3   0.587629 0.908314 0.430189 -0.541420
H24   H     H_    0.695272 0.870088 0.411236 0.200072
H25   H     H_    0.618743 0.918337 0.477170 0.200748
H26   H     H_    0.602108 0.956578 0.409873 0.210907

loop_
_geom_bond_atom_site_label_1
_geom_bond_atom_site_label_2
_ccdc_geom_bond_type
C2    C34   S    
C57   H20   S    
O6    C8    A    
O13   V3    S    
C17   H5    S    
O4    C2    A    
V1    O19   S    
C55   C56   T    
C23   C25   A    
C45   C46   A    
C7    C9    S    
C16   C22   A    
N2    C58   S    
O9    V1    S    
C42   C44   A    
C11   C13   S    
O3    C1    A    
C9    C11   T    
C5    C15   S    
C20   H3    S    
O12   V4    S    
C35   H15   S    
C21   C23   A    
O7    C3    A    
C6    C16   S    
O5    C7    A    
O7    V1    S    
C34   C40   A    
O8    V2    S    
C54   C56   S    
C36   H16   S    
C58   H24   S    
O3    V1    S    
O14   V4    S    
C18   H6    S    
C47   H17   S    
C15   C21   A    
C24   C26   A    
C8    C10   S    
C51   C53   T    
C58   H25   S    
C18   C20   A    
C38   H13   S    
C17   C25   A    
C49   H9    S    
O11   V3    S    
C22   C24   A    
C29   C31   A    
C40   H11   S    
O17   V3    S    
C30   C32   A    
C21   H2    S    
C27   C28   A    
C48   C50   A    
O8    C4    A    
C44   C50   A    
C39   C41   A    
C46   C47   A    
C43   C49   A    
C15   C19   A    
C1    O11   A    
C25   C31   A    
O15   V3    S    
C26   C32   A    
C3    C51   S    
C35   C37   A    
C48   H18   S    
C13   C14   T    
C1    C33   S    
C39   H12   S    
N1    H19   S    
C16   C20   A    
O10   V2    S    
O1    V3    S    
C36   C44   A    
C52   C54   T    
C37   H14   S    
C19   H4    S    
C18   C26   A    
C40   C42   A    
N1    C57   S    
O18   V4    S    
C57   H22   S    
C50   H10   S    
O15   C5    A    
C22   H1    S    
C58   H26   S    
O16   C6    A    
O1    C3    A    
C41   C43   A    
C28   C29   A    
C47   C49   A    
V2    O20   S    
C45   C48   A    
O16   V4    S    
C17   C19   A    
C23   C27   A    
C53   C55   S    
O5    V1    S    
O17   C7    A    
O6    V2    S    
N2    H23   S    
O10   C6    A    
O18   C8    A    
C57   H21   S    
O2    V4    S    
C27   C30   A    
C12   C14   S    
V3    O19   S    
C33   C39   A    
V4    O20   S    
C29   H7    S    
C34   C38   A    
C30   H8    S    
C33   C37   A    
O9    C5    A    
O13   V1    S    
C10   C12   T    
O14   V2    S    
O2    C4    A    
C32   N2    S    
O4    V2    S    
C24   C28   A    
C35   C43   A    
C2    O12   A    
C42   C46   A    
C31   N1    S    
C36   C38   A    
C41   C45   A    
C4    C52   S    
