data_mof_unit_50970.cif
_audit_creation_date              2012-12-11T14:39:19-0500
_audit_creation_method            fapswitch 2.2
_symmetry_space_group_name_H-M    P1
_symmetry_Int_Tables_number       1
_space_group_crystal_system       triclinic
_cell_length_a                    7.22047
_cell_length_b                    14.098156
_cell_length_c                    16.314624
_cell_angle_alpha                 90.000488
_cell_angle_beta                  97.424695
_cell_angle_gamma                 89.999474
_cell_volume                      1646.82776697

loop_
_atom_site_label
_atom_site_type_symbol
_atom_type_description
_atom_site_fract_x
_atom_site_fract_y
_atom_site_fract_z
_atom_type_partial_charge
O1    O     O_R   0.525340 0.338340 0.164530 -0.564592
O2    O     O_R   0.474660 0.661660 0.835470 -0.564592
O3    O     O_R   0.974660 0.838340 0.835470 -0.564591
O4    O     O_R   0.025340 0.161660 0.164530 -0.564591
O5    O     O_R   0.253520 0.352000 0.336710 -0.545257
O6    O     O_R   0.746480 0.648000 0.663290 -0.545257
O7    O     O_R   0.246480 0.852000 0.663290 -0.545253
O8    O     O_R   0.753520 0.148000 0.336710 -0.545253
O9    O     O_R   0.083330 0.168380 0.337300 -0.537862
O10   O     O_R   0.916670 0.831620 0.662700 -0.537862
O11   O     O_R   0.416670 0.668380 0.662700 -0.537856
O12   O     O_R   0.583330 0.331620 0.337300 -0.537856
C1    C     C_R   0.432375 0.368702 0.363674 0.673650
C2    C     C_R   0.567625 0.631298 0.636326 0.673650
C3    C     C_R   0.067623 0.868699 0.636323 0.673648
C4    C     C_R   0.932377 0.131301 0.363677 0.673648
O13   O     O_R   0.195840 0.349670 0.165140 -0.502615
O14   O     O_R   0.804160 0.650330 0.834860 -0.502615
O15   O     O_R   0.304160 0.849670 0.834860 -0.502616
O16   O     O_R   0.695840 0.150330 0.165140 -0.502616
C5    C     C_R   0.357086 0.372115 0.137789 0.623531
C6    C     C_R   0.642914 0.627885 0.862210 0.623531
C7    C     C_R   0.142913 0.872115 0.862210 0.623535
C8    C     C_R   0.857087 0.127885 0.137790 0.623536
O17   O     O_3   0.387830 0.193120 0.250910 -0.372871
O18   O     O_3   0.612170 0.806880 0.749090 -0.372871
O19   O     O_3   0.112170 0.693120 0.749090 -0.372870
O20   O     O_3   0.887830 0.306880 0.250910 -0.372870
V1    V     V_3+5 0.113010 0.264540 0.250910 1.472576
V2    V     V_3+5 0.886990 0.735460 0.749090 1.472576
V3    V     V_3+5 0.386990 0.764540 0.749090 1.472579
V4    V     V_3+5 0.613010 0.235460 0.250910 1.472579
H1    H     H_    0.765732 0.808874 0.267874 0.137177
H2    H     H_    0.234268 0.191126 0.732126 0.137177
H3    H     H_    0.734118 0.308856 0.732134 0.137178
H4    H     H_    0.265882 0.691144 0.267866 0.137178
C9    C     C_R   0.078901 0.195452 0.526956 -0.146100
C10   C     C_R   0.921099 0.804548 0.473044 -0.146100
C11   C     C_R   0.421212 0.695461 0.473039 -0.146104
C12   C     C_R   0.578788 0.304538 0.526961 -0.146104
C13   C     C_R   0.149028 0.228256 0.605396 -0.111561
C14   C     C_R   0.850972 0.771744 0.394604 -0.111561
C15   C     C_R   0.351125 0.728271 0.394597 -0.111561
C16   C     C_R   0.648874 0.271729 0.605403 -0.111561
C17   C     C_R   0.180693 0.165252 0.671183 -0.119940
C18   C     C_R   0.819307 0.834748 0.328817 -0.119940
C19   C     C_R   0.319433 0.665266 0.328810 -0.119944
C20   C     C_R   0.680567 0.334734 0.671190 -0.119944
C21   C     C_R   0.142415 0.069016 0.658970 -0.136189
C22   C     C_R   0.857585 0.930984 0.341030 -0.136189
C23   C     C_R   0.357650 0.569025 0.341025 -0.136201
C24   C     C_R   0.642350 0.430975 0.658975 -0.136201
C25   C     C_R   0.072782 0.033533 0.579742 0.058938
C26   C     C_R   0.927218 0.966467 0.420258 0.058938
C27   C     C_R   0.427256 0.533539 0.420255 0.058937
C28   C     C_R   0.572744 0.466461 0.579745 0.058936
C29   C     C_R   0.040440 0.097854 0.512513 0.055348
C30   C     C_R   0.959559 0.902146 0.487487 0.055348
C31   C     C_R   0.459614 0.597859 0.487484 0.055336
C32   C     C_R   0.540386 0.402141 0.512516 0.055335
C33   C     C_R   0.032220 0.935928 0.567005 -0.170722
C34   C     C_R   0.967780 0.064072 0.432995 -0.170722
C35   C     C_R   0.467770 0.435929 0.432993 -0.170709
C36   C     C_R   0.532230 0.564071 0.567007 -0.170709
H5    H     H_    0.054206 0.247655 0.478185 0.117427
H6    H     H_    0.945794 0.752345 0.521815 0.117427
H7    H     H_    0.445927 0.747662 0.521811 0.117421
H8    H     H_    0.554072 0.252338 0.478189 0.117421
H9    H     H_    0.178053 0.303038 0.615223 0.133839
H10   H     H_    0.821947 0.696962 0.384777 0.133839
H11   H     H_    0.322154 0.803058 0.384768 0.133828
H12   H     H_    0.677846 0.196942 0.615232 0.133828
H13   H     H_    0.166964 0.023093 0.712391 0.110561
H14   H     H_    0.833036 0.976907 0.287609 0.110561
H15   H     H_    0.333070 0.523102 0.287604 0.110555
H16   H     H_    0.666930 0.476898 0.712396 0.110555
H17   H     H_    0.134952 0.069362 0.054858 0.183899
H18   H     H_    0.865047 0.930638 0.945142 0.183899
H19   H     H_    0.365051 0.569364 0.945144 0.183896
H20   H     H_    0.634949 0.430636 0.054856 0.183896
C37   C     C_2   0.150661 0.942955 0.929899 0.448920
C38   C     C_2   0.849339 0.057045 0.070101 0.448921
C39   C     C_2   0.349336 0.442953 0.070099 0.448927
C40   C     C_2   0.650664 0.557047 0.929900 0.448927
C41   C     C_2   0.997444 0.965024 0.965908 -0.192768
C42   C     C_2   0.002555 0.034976 0.034092 -0.192768
C43   C     C_2   0.502553 0.465023 0.034091 -0.192770
C44   C     C_2   0.497446 0.534977 0.965909 -0.192770
F1    F     F_    0.682999 0.014604 0.043865 -0.615379
F2    F     F_    0.317000 0.985396 0.956135 -0.615379
F3    F     F_    0.817006 0.514608 0.956137 -0.615372
F4    F     F_    0.182994 0.485392 0.043863 -0.615372

loop_
_geom_bond_atom_site_label_1
_geom_bond_atom_site_label_2
_ccdc_geom_bond_type
C39   C43   D    
C43   C44   S    
O1    C5    A    
C12   C32   A    
C27   C31   A    
O13   V1    S    
O3    C7    A    
O15   V3    S    
C29   C34   A    
C41   C42   S    
C39   F4    S    
C31   C36   A    
C22   C26   A    
C38   F1    S    
C32   C35   A    
O20   V1    S    
O9    C4    A    
C23   H15   S    
C10   C14   A    
H20   C43   S    
O10   C3    A    
C22   H14   S    
C26   C30   A    
O4    C8    A    
O11   C2    A    
C14   H10   S    
H4    C19   S    
C14   C18   A    
C8    C38   S    
C10   C30   A    
C25   C33   A    
C10   H6    S    
C27   C35   A    
O2    C6    A    
C28   C36   A    
O14   V2    S    
C40   F3    S    
O5    C1    A    
O4    V1    S    
O9    V1    S    
C30   C33   A    
O7    C3    A    
O11   V3    S    
O18   V3    S    
O8    C4    A    
O12   V4    S    
O19   V2    S    
H1    C18   S    
C4    C34   S    
H3    C20   S    
H19   C44   S    
O5    V1    S    
O7    V3    S    
O8    V4    S    
C5    C39   S    
C25   C29   A    
C19   C23   A    
C26   C34   A    
C38   C42   D    
O1    V4    S    
O13   C5    A    
C28   C32   A    
C9    H5    S    
O2    V3    S    
C6    C40   S    
O3    V2    S    
O15   C7    A    
O6    C2    A    
O10   V2    S    
C1    C35   S    
C17   C21   A    
C11   C31   A    
C3    C33   S    
H2    C17   S    
C2    C36   S    
H18   C41   S    
O6    V2    S    
H17   C42   S    
C21   H13   S    
C37   F2    S    
C13   H9    S    
O16   V4    S    
C15   H11   S    
C7    C37   S    
O14   C6    A    
C11   H7    S    
C40   C44   D    
C24   H16   S    
C11   C15   A    
C18   C22   A    
O17   V4    S    
C21   C25   A    
C16   H12   S    
C23   C27   A    
C9    C13   A    
C37   C41   D    
C16   C20   A    
C12   C16   A    
O12   C1    A    
C12   H8    S    
C13   C17   A    
C20   C24   A    
C15   C19   A    
O16   C8    A    
C9    C29   A    
C24   C28   A    
