data_mof_unit_16191.cif
_audit_creation_date              2012-12-10T19:48:03-0500
_audit_creation_method            fapswitch 2.2
_symmetry_space_group_name_H-M    P1
_symmetry_Int_Tables_number       1
_space_group_crystal_system       triclinic
_cell_length_a                    15.007764
_cell_length_b                    14.142322
_cell_length_c                    10.664822
_cell_angle_alpha                 85.950398
_cell_angle_beta                  90.001262
_cell_angle_gamma                 90.011021
_cell_volume                      2257.89973035

loop_
_atom_site_label
_atom_site_type_symbol
_atom_type_description
_atom_site_fract_x
_atom_site_fract_y
_atom_site_fract_z
_atom_type_partial_charge
C1    C     C_R   0.327520 0.499994 0.500012 0.963817
C2    C     C_R   0.563527 0.798744 0.434142 -0.128264
C3    C     C_R   0.563427 0.200541 0.564885 -0.154211
C4    C     C_R   0.436557 0.792067 0.565603 -0.121449
C5    C     C_R   0.499436 0.053344 0.497493 0.070738
C6    C     C_R   0.499995 0.946580 0.499066 0.070396
C7    C     C_R   0.500168 0.503912 0.259540 1.062237
C8    C     C_R   0.500191 0.496089 0.740460 1.059129
C9    C     C_R   0.335090 0.535014 0.119737 0.441589
C10   C     C_R   0.665689 0.465641 0.879817 0.440088
C11   C     C_R   0.335093 0.464982 0.880225 0.442873
C12   C     C_R   0.672018 0.500008 0.499985 0.964183
C13   C     C_R   0.665683 0.534394 0.120222 0.439271
C14   C     C_R   0.254607 0.518577 0.058164 -0.277972
C15   C     C_R   0.746154 0.481830 0.941573 -0.282267
C16   C     C_R   0.254609 0.481422 0.941770 -0.278038
C17   C     C_R   0.746152 0.518202 0.058499 -0.282074
C18   C     C_R   0.417619 0.487534 0.937559 -0.055343
C19   C     C_R   0.583122 0.512306 0.062558 -0.051412
C20   C     C_R   0.417616 0.512472 0.062421 -0.054672
C21   C     C_R   0.583126 0.487714 0.937461 -0.050131
C22   C     C_R   0.500340 0.484547 0.874468 -0.114860
C23   C     C_R   0.047204 0.499998 0.500048 0.111247
C24   C     C_R   0.500331 0.515460 0.125533 -0.115902
C25   C     C_R   0.093282 0.586159 0.488219 -0.178585
C26   C     C_R   0.904800 0.435285 0.430520 -0.178950
C27   C     C_R   0.904816 0.564736 0.569510 -0.179417
C28   C     C_R   0.093247 0.413833 0.511873 -0.175569
C29   C     C_R   0.185221 0.586214 0.489403 -0.213050
C30   C     C_R   0.812844 0.434644 0.431626 -0.203699
C31   C     C_R   0.812859 0.565396 0.568354 -0.203784
C32   C     C_R   0.185187 0.413770 0.510666 -0.204744
C33   C     C_R   0.231388 0.499990 0.500025 -0.040772
C34   C     C_R   0.950900 0.500004 0.500031 0.110594
C35   C     C_R   0.767287 0.500022 0.499982 -0.040646
C36   C     C_R   0.434066 0.109462 0.430188 0.338354
C37   C     C_R   0.565323 0.899043 0.432205 0.350968
C38   C     C_R   0.564853 0.100297 0.565267 0.395904
C39   C     C_R   0.434858 0.892196 0.566789 0.301799
C40   C     C_R   0.436267 0.208744 0.434044 -0.015468
H1    H     H_    0.809428 0.533234 0.101742 0.157121
H2    H     H_    0.777308 0.384703 0.377441 0.163234
H3    H     H_    0.777336 0.615339 0.622525 0.163326
H4    H     H_    0.219890 0.346471 0.519608 0.173436
H5    H     H_    0.386749 0.251507 0.382700 0.167908
H6    H     H_    0.612903 0.761423 0.382599 0.164215
H7    H     H_    0.613068 0.237241 0.616778 0.168525
H8    H     H_    0.387037 0.749526 0.617272 0.143249
H9    H     H_    0.272180 0.597165 0.251005 0.326490
H10   H     H_    0.728800 0.405470 0.746703 0.326091
H11   H     H_    0.272185 0.402776 0.748983 0.327636
H12   H     H_    0.191337 0.466057 0.898745 0.158069
H13   H     H_    0.728789 0.594600 0.253334 0.325975
H14   H     H_    0.377403 0.002740 0.354860 0.345484
H15   H     H_    0.669477 0.907670 0.323823 0.336679
H16   H     H_    0.669013 0.090602 0.673711 0.333989
H17   H     H_    0.330599 0.889854 0.674931 0.337214
H18   H     H_    0.809432 0.466800 0.898351 0.157267
H19   H     H_    0.191336 0.533939 0.101171 0.157847
H20   H     H_    0.058222 0.653177 0.477065 0.141140
H21   H     H_    0.939836 0.386050 0.374770 0.141122
H22   H     H_    0.939865 0.613966 0.625278 0.139417
H23   H     H_    0.058158 0.346819 0.523029 0.143675
H24   H     H_    0.219948 0.653514 0.480455 0.166061
N1    N     N_R   0.500000 0.252470 0.500000 -0.141264
N2    N     N_R   0.500000 0.747530 0.500000 -0.115030
O1    O     O_R   0.369060 0.579480 0.500010 -0.616533
O2    O     O_3   0.666667 0.421892 0.768273 -0.791721
O3    O     O_3   0.334166 0.420524 0.769265 -0.777658
O4    O     O_3   0.666667 0.578166 0.231748 -0.793055
O5    O     O_3   0.367938 0.071638 0.358770 -0.736023
O6    O     O_3   0.629109 0.951539 0.364999 -0.733191
O7    O     O_3   0.628586 0.047205 0.631776 -0.725339
O8    O     O_3   0.370916 0.937925 0.633210 -0.735900
O9    O     O_R   0.630940 0.420520 0.499990 -0.612226
O10   O     O_R   0.630940 0.579480 0.499990 -0.612711
O11   O     O_R   0.369060 0.420520 0.500010 -0.617448
O12   O     O_R   0.499990 0.579480 0.316780 -0.532662
O13   O     O_R   0.500010 0.420520 0.683220 -0.528690
O14   O     O_R   0.500010 0.579480 0.683220 -0.647711
O15   O     O_R   0.499990 0.420520 0.316780 -0.650336
O16   O     O_3   0.334162 0.579453 0.230712 -0.781136
Zn1   Zn    Zn3+2 0.500000 0.606140 0.500000 1.009083
Zn2   Zn    Zn3+2 0.500000 0.393860 0.500000 1.012475

loop_
_geom_bond_atom_site_label_1
_geom_bond_atom_site_label_2
_ccdc_geom_bond_type
H17   O8    S    
C11   C18   A    
O1    Zn1   S    
C1    O11   A    
C1    C33   S    
C2    H6    S    
C14   H19   S    
C31   H3    S    
C30   C35   A    
C19   C21   A    
C26   H21   S    
C10   C15   A    
C5    C6    S    
O9    Zn2   S    
C13   O4    S    
C7    C24   S    
C5    C36   A    
C29   C33   A    
C39   O8    S    
N2    Zn1   S    
O12   Zn1   S    
C26   C34   A    
H14   O5    S    
C20   C24   A    
C3    C38   A    
C8    O13   A    
C8    C22   S    
C25   H20   S    
H15   O6    S    
C36   O5    S    
C9    O16   S    
C29   H24   S    
C27   C34   A    
C5    C38   A    
C3    N1    A    
O14   Zn1   S    
H13   O4    S    
O10   Zn1   S    
C10   C21   A    
C25   C29   A    
C40   H5    S    
C13   C19   A    
C27   C31   A    
C28   C32   A    
N1    Zn2   S    
O11   Zn2   S    
H9    O16   S    
C9    C14   A    
C27   H22   S    
C11   C16   A    
C9    C20   A    
C4    C39   A    
C36   C40   A    
C23   C34   S    
C32   H4    S    
C6    C37   A    
C23   C28   A    
C12   C35   S    
C7    O12   A    
C7    O15   A    
C26   C30   A    
C40   N1    A    
C12   O10   A    
C15   H18   S    
C31   C35   A    
C12   O9    A    
O15   Zn2   S    
C4    H8    S    
C15   C17   A    
H16   O7    S    
C14   C16   A    
C18   C22   A    
C16   H12   S    
C2    N2    A    
C11   O3    S    
C10   O2    S    
C13   C17   A    
C32   C33   A    
C19   C24   A    
C4    N2    A    
C2    C37   A    
O13   Zn2   S    
C3    H7    S    
C1    O1    A    
C18   C20   A    
C23   C25   A    
C17   H1    S    
C28   H23   S    
C37   O6    S    
C8    O14   A    
C6    C39   A    
C30   H2    S    
H11   O3    S    
C21   C22   A    
H10   O2    S    
C38   O7    S    
