data_mof_unit_5041.cif
_audit_creation_date              2012-10-26T19:00:09-0400
_audit_creation_method            fapswitch 2.2
_symmetry_space_group_name_H-M    P1
_symmetry_Int_Tables_number       1
_space_group_crystal_system       triclinic
_cell_length_a                    10.783612
_cell_length_b                    10.819602
_cell_length_c                    9.578903
_cell_angle_alpha                 88.607865
_cell_angle_beta                  88.919058
_cell_angle_gamma                 90.665667
_cell_volume                      1117.00241991

loop_
_atom_site_label
_atom_site_type_symbol
_atom_type_description
_atom_site_fract_x
_atom_site_fract_y
_atom_site_fract_z
_atom_type_partial_charge
C1    C     C_R   0.498334 0.262249 0.500935 0.547446
C2    C     C_R   0.826263 0.235184 0.911665 -0.113557
C3    C     C_R   0.761200 0.137147 0.853604 -0.108848
C4    C     C_R   0.262532 0.502978 0.500316 0.547516
C5    C     C_R   0.752243 0.129984 0.708652 -0.108832
C6    C     C_R   0.806670 0.221798 0.621463 -0.068837
C7    C     C_R   0.872459 0.320371 0.679144 0.048468
C8    C     C_R   0.421861 0.057858 0.593603 0.014009
C9    C     C_R   0.494181 0.128430 0.498232 0.004288
C10   C     C_R   0.551734 0.067897 0.385935 -0.178204
C11   C     C_R   0.551814 0.938858 0.383074 -0.173841
C12   C     C_R   0.257728 0.829667 0.119213 -0.102818
C13   C     C_R   0.495136 0.869901 0.493121 0.007907
C14   C     C_R   0.424695 0.931007 0.591987 0.006439
C15   C     C_3   0.416201 0.916069 0.746443 -0.274058
C16   C     C_R   0.501104 0.737237 0.498264 0.544448
C17   C     C_3   0.410271 0.055987 0.749197 -0.282937
C18   C     C_R   0.562252 0.590212 0.069680 0.152022
C19   C     C_R   0.428207 0.420222 0.079843 0.001872
C20   C     C_R   0.423838 0.422767 0.931399 0.235183
C21   C     C_R   0.562505 0.590043 0.922702 0.127958
C22   C     C_3   0.697569 0.620337 0.913194 -0.280042
C23   C     C_R   0.935529 0.574621 0.403313 -0.158895
C24   C     C_3   0.697651 0.619592 0.071843 -0.281298
C25   C     C_R   0.737386 0.497468 0.498929 0.541267
C26   C     C_R   0.248508 0.857177 0.260828 -0.099987
C27   C     C_R   0.185558 0.776186 0.354329 -0.078800
C28   C     C_R   0.129425 0.668164 0.305751 0.049821
C29   C     C_R   0.137398 0.641802 0.163040 -0.078460
C30   C     C_R   0.202340 0.721955 0.070323 -0.111056
C31   C     C_3   0.212833 0.358632 0.900616 -0.323675
C32   C     C_R   0.871188 0.494190 0.496320 0.000192
C33   C     C_R   0.935567 0.414518 0.587306 -0.034709
C34   C     C_R   0.064177 0.419767 0.585555 -0.162652
C35   C     C_R   0.128465 0.504660 0.499128 -0.001805
C36   C     C_R   0.064366 0.581183 0.404270 -0.032555
C37   C     C_R   0.882910 0.325821 0.824807 -0.104553
Cu1   Cu    Cu3+1 0.499990 0.499980 0.640670 0.973020
Cu2   Cu    Cu3+1 0.500010 0.500020 0.359330 0.935984
H1    H     H_    0.307543 0.892023 0.047503 0.100072
H2    H     H_    0.490982 0.099205 0.800322 0.143869
H3    H     H_    0.373583 0.352997 0.140481 0.120193
H4    H     H_    0.290434 0.941161 0.298162 0.117645
H5    H     H_    0.753285 0.544968 0.868426 0.161403
H6    H     H_    0.715691 0.713484 0.865078 0.120469
H7    H     H_    0.752957 0.543034 0.117414 0.149207
H8    H     H_    0.716615 0.712151 0.115172 0.115191
H9    H     H_    0.180312 0.797600 0.464151 0.095925
H10   H     H_    0.094899 0.558519 0.124230 0.090729
H11   H     H_    0.209653 0.700596 0.960670 0.101022
H12   H     H_    0.718241 0.066399 0.920837 0.093714
H13   H     H_    0.885180 0.634910 0.332803 0.114756
H14   H     H_    0.114922 0.352653 0.645592 0.126506
H15   H     H_    0.934225 0.400635 0.870953 0.085605
H16   H     H_    0.833585 0.240491 0.023911 0.102434
H17   H     H_    0.366080 0.250741 0.897679 0.214777
H18   H     H_    0.194285 0.354993 0.015062 0.105350
H19   H     H_    0.156276 0.283407 0.856355 0.130633
H20   H     H_    0.183256 0.449780 0.858020 0.164972
H21   H     H_    0.703389 0.052996 0.663953 0.113712
H22   H     H_    0.799182 0.215171 0.509277 0.092969
H23   H     H_    0.601552 0.119851 0.304154 0.127982
H24   H     H_    0.601317 0.893554 0.299582 0.123732
H25   H     H_    0.328470 0.869120 0.781648 0.130781
H26   H     H_    0.502279 0.878487 0.792540 0.141970
H27   H     H_    0.316914 0.086651 0.783653 0.132993
N1    N     N_R   0.500790 0.500930 0.147930 -0.247225
N2    N     N_R   0.500790 0.500890 0.852020 -0.209042
N3    N     N_2   0.342731 0.338876 0.867538 -0.458126
O1    O     O_R   0.500000 0.319640 0.618810 -0.466638
O2    O     O_R   0.500010 0.319680 0.381230 -0.520844
O3    O     O_R   0.319640 0.499990 0.618790 -0.481851
O4    O     O_R   0.319650 0.500030 0.381210 -0.495103
O5    O     O_R   0.499990 0.680320 0.618770 -0.509089
O6    O     O_R   0.500000 0.680360 0.381190 -0.495090
O7    O     O_R   0.680350 0.499970 0.618790 -0.498364
O8    O     O_R   0.680360 0.500010 0.381210 -0.514664

loop_
_geom_bond_atom_site_label_1
_geom_bond_atom_site_label_2
_ccdc_geom_bond_type
C27   H9    S    
Cu1   O1    S    
C18   C21   A    
C19   C20   A    
C29   H10   S    
C26   C27   A    
C1    O2    A    
C16   O5    A    
Cu2   O8    S    
C6    H22   S    
C28   C29   A    
C11   H24   S    
C2    H16   S    
C5    C6    A    
C16   O6    A    
C34   C35   A    
C31   H20   S    
C22   H5    S    
C35   C36   A    
C8    C9    A    
C15   H25   S    
C19   N1    A    
C18   C24   S    
Cu2   O6    S    
C9    C10   A    
C19   H3    S    
C25   C32   S    
C30   H11   S    
C4    C35   S    
C13   C14   A    
C7    C33   S    
C10   H23   S    
C26   H4    S    
Cu1   O3    S    
C1    C9    S    
C3    H12   S    
Cu1   O7    S    
C18   N1    A    
C12   C26   A    
C12   H1    S    
C29   C30   A    
C33   C34   A    
C7    C37   A    
C4    O4    A    
C37   H15   S    
Cu1   N2    S    
H17   N3    S    
C21   N2    A    
C25   O8    A    
C20   N3    S    
C4    O3    A    
C31   H19   S    
Cu1   O5    S    
C15   C17   S    
C8    C14   A    
C5    H21   S    
C12   C30   A    
C24   H8    S    
Cu2   N1    S    
C20   N2    A    
C1    O1    A    
C3    C5    A    
C6    C7    A    
C8    C17   S    
C25   O7    A    
C24   H7    S    
C32   C33   A    
C31   H18   S    
C2    C3    A    
C23   C32   A    
C11   C13   A    
C2    C37   A    
C23   H13   S    
Cu1   Cu2   S    
C22   C24   S    
Cu2   O4    S    
C17   H27   S    
C17   H2    S    
C10   C11   A    
C31   N3    S    
C22   H6    S    
C28   C36   S    
C34   H14   S    
C23   C36   A    
C13   C16   S    
C27   C28   A    
Cu2   O2    S    
C14   C15   S    
C21   C22   S    
C15   H26   S    
