data_mof_unit_27323.cif
_audit_creation_date              2013-03-05T16:12:09-0500
_audit_creation_method            fapswitch 2.2
_symmetry_space_group_name_H-M    P1
_symmetry_Int_Tables_number       1
_space_group_crystal_system       triclinic
_cell_length_a                    10.735453
_cell_length_b                    9.645785
_cell_length_c                    27.786065
_cell_angle_alpha                 90.087433
_cell_angle_beta                  89.588694
_cell_angle_gamma                 88.255573
_cell_volume                      2875.88708368

loop_
_atom_site_label
_atom_site_type_symbol
_atom_site_description
_atom_site_fract_x
_atom_site_fract_y
_atom_site_fract_z
_atom_type_partial_charge
O1    O     O_R   0.317570 0.620260 0.500030 -0.583607
O2    O     O_R   0.317570 0.379740 0.500030 -0.585164
C1    C     C_R   0.260356 0.501409 0.501276 0.748029
O3    O     O_R   0.499900 0.620250 0.430280 -0.597350
O4    O     O_R   0.499900 0.379750 0.430280 -0.605959
C2    C     C_R   0.500089 0.499958 0.407797 0.778176
Cu1   Cu    Cu3+1 0.499860 0.642410 0.500020 0.894429
Cu2   Cu    Cu3+1 0.499860 0.357590 0.500020 0.897274
O5    O     O_R   0.682190 0.620260 0.500010 -0.598486
O6    O     O_R   0.682190 0.379740 0.500010 -0.582492
O7    O     O_R   0.499860 0.620280 0.569750 -0.585647
O8    O     O_R   0.499860 0.379720 0.569750 -0.575914
C3    C     C_R   0.739308 0.498836 0.502021 0.748331
C4    C     C_R   0.501170 0.500098 0.592142 0.800595
C5    C     C_R   0.394384 0.492354 0.178354 0.529250
O9    O     O_2   0.287073 0.479639 0.203382 -0.540751
N1    N     N_R   0.504060 0.502567 0.202267 -0.469345
C6    C     C_R   0.614873 0.515705 0.178429 0.536587
C7    C     C_R   0.490926 0.376517 0.278758 -0.104185
C8    C     C_R   0.490218 0.375635 0.328964 -0.233360
C9    C     C_R   0.512166 0.625388 0.329463 -0.226663
C10   C     C_R   0.513358 0.625807 0.279311 -0.106717
C11   C     C_R   0.502689 0.501533 0.253853 0.371499
C12   C     C_R   0.505004 0.510290 0.102065 -0.081067
C13   C     C_R   0.392587 0.496043 0.128038 -0.006522
C14   C     C_R   0.280051 0.487269 0.103490 -0.148494
C15   C     C_R   0.619026 0.519517 0.127330 -0.038042
C16   C     C_R   0.500739 0.500211 0.354795 -0.035676
H1    H     H_    0.520676 0.722987 0.348298 0.145895
H2    H     H_    0.522391 0.722702 0.260146 0.132835
H3    H     H_    0.192508 0.478795 0.122773 0.184268
C17   C     C_R   0.501142 0.501995 0.645105 -0.045159
C18   C     C_R   0.387197 0.496575 0.975022 0.041581
C19   C     C_R   0.610579 0.548859 0.973816 0.052390
C20   C     C_R   0.498055 0.524361 0.949136 0.071881
C21   C     C_R   0.279370 0.464779 0.948616 -0.209465
C22   C     C_R   0.279722 0.464789 0.898607 -0.146651
C23   C     C_R   0.387338 0.496429 0.872865 -0.020807
C24   C     C_R   0.496585 0.527060 0.897986 -0.046430
C25   C     C_R   0.604590 0.559646 0.871845 -0.020746
C26   C     C_R   0.601866 0.559314 0.821349 0.535392
N2    N     N_R   0.495538 0.525880 0.797658 -0.462127
C27   C     C_R   0.388988 0.495587 0.822313 0.538352
C28   C     C_R   0.424358 0.611158 0.718874 -0.101455
C29   C     C_R   0.426594 0.603393 0.668822 -0.278011
C30   C     C_R   0.576360 0.408530 0.672473 0.137591
C31   C     C_R   0.572791 0.417529 0.722822 -0.098972
C32   C     C_R   0.497203 0.518143 0.746046 0.307950
O10   O     O_2   0.285537 0.462758 0.798000 -0.540994
C33   C     C_R   0.387965 0.500034 0.026176 0.055945
C34   C     C_R   0.502508 0.515238 0.050862 0.065127
C35   C     C_R   0.614221 0.535179 0.024760 -0.001228
C36   C     C_R   0.277491 0.489429 0.053666 -0.210140
H4    H     H_    0.369179 0.676377 0.648490 0.151214
H5    H     H_    0.366327 0.689864 0.736593 0.153637
H6    H     H_    0.193449 0.435515 0.965451 0.138377
H7    H     H_    0.186379 0.485753 0.037840 0.133307
O11   O     O_2   0.719566 0.524979 0.204547 -0.544449
C37   C     C_R   0.731611 0.530756 0.100538 0.167054
H8    H     H_    0.481180 0.277644 0.347452 0.148249
H9    H     H_    0.482763 0.280141 0.259155 0.133684
C38   C     C_R   0.715746 0.587543 0.946467 -0.210518
C39   C     C_R   0.712703 0.592153 0.896533 -0.146547
O12   O     O_2   0.704677 0.592100 0.796078 -0.540953
C40   C     C_R   0.727100 0.537765 0.050300 -0.195307
H10   H     H_    0.801607 0.618364 0.962569 0.138495
H11   H     H_    0.796153 0.621027 0.877317 0.187552
H12   H     H_    0.815092 0.540874 0.031569 0.137089
C41   C     C_3   0.066151 0.647031 0.515979 -0.394369
C42   C     C_3   0.075267 0.395944 0.540136 -0.359630
H13   H     H_    0.089884 0.722172 0.487611 0.175035
H14   H     H_    0.113446 0.289985 0.531917 0.163581
H15   H     H_    0.103977 0.683251 0.550850 0.160706
H16   H     H_    0.108385 0.424212 0.576627 0.157601
C43   C     C_3   0.923789 0.643648 0.518733 -0.371354
C44   C     C_3   0.931569 0.392877 0.540172 -0.384420
H17   H     H_    0.891631 0.668540 0.556027 0.162267
H18   H     H_    0.895927 0.419220 0.576805 0.153038
H19   H     H_    0.885433 0.726154 0.494929 0.173758
H20   H     H_    0.902415 0.286283 0.532116 0.161976
C45   C     C_3   0.073133 0.461810 0.452247 -0.385452
C46   C     C_3   0.121926 0.502147 0.502511 0.162680
C47   C     C_3   0.877792 0.498804 0.503253 0.164910
C48   C     C_3   0.929667 0.465143 0.452243 -0.375515
C49   C     C_3   0.630722 0.076796 0.496977 0.112169
C50   C     C_3   0.628293 0.910197 0.491348 0.117687
H21   H     H_    0.481770 0.128564 0.577603 0.157760
H22   H     H_    0.529773 0.894402 0.576004 0.142477
C51   C     C_3   0.441500 0.083382 0.544860 -0.263012
C52   C     C_3   0.459431 0.919823 0.547854 -0.276647
C53   C     C_3   0.433354 0.083803 0.457923 0.176623
C54   C     C_3   0.417758 0.919801 0.462187 0.183481
N3    N     N_3   0.500250 0.143650 0.501060 -0.138468
N4    N     N_3   0.500250 0.856350 0.501060 -0.143140
H23   H     H_    0.492965 0.098455 0.425494 0.112913
H24   H     H_    0.448178 0.876790 0.426822 0.127426
H25   H     H_    0.340426 0.111953 0.545929 0.166534
H26   H     H_    0.373091 0.872693 0.561362 0.164401
C55   C     C_3   0.858962 0.534548 0.123488 -0.739643
H27   H     H_    0.877031 0.438659 0.144688 0.258554
H28   H     H_    0.935399 0.540199 0.096457 0.186737
H29   H     H_    0.865064 0.627874 0.146672 0.261146
C56   C     C_3   0.664261 0.303394 0.649196 -0.857060
H30   H     H_    0.729189 0.255257 0.675736 0.230409
H31   H     H_    0.610880 0.219418 0.632819 0.231025
H32   H     H_    0.721038 0.353913 0.621178 0.219954
H33   H     H_    0.629165 0.346518 0.744347 0.145634
H34   H     H_    0.107893 0.534453 0.424466 0.154877
H35   H     H_    0.107839 0.355995 0.442233 0.167940
H36   H     H_    0.895080 0.545277 0.426378 0.160415
H37   H     H_    0.896580 0.363852 0.439359 0.161258
H38   H     H_    0.678252 0.096932 0.531773 0.115321
H39   H     H_    0.692134 0.867160 0.519336 0.135667
C57   C     C_3   0.716267 0.144525 0.457817 -0.796761
H40   H     H_    0.756684 0.083060 0.428179 0.195058
H41   H     H_    0.668002 0.227048 0.437558 0.274413
H42   H     H_    0.801199 0.181412 0.475132 0.207384
C58   C     C_3   0.684422 0.856530 0.442129 -0.826877
H43   H     H_    0.643868 0.912347 0.410815 0.189035
H44   H     H_    0.786966 0.867579 0.441773 0.196243
H45   H     H_    0.672619 0.747873 0.433470 0.280212
C59   C     C_3   0.311765 0.159618 0.441843 -0.801756
H46   H     H_    0.239321 0.158922 0.470500 0.230501
H47   H     H_    0.322866 0.264509 0.427974 0.263299
H48   H     H_    0.276651 0.109377 0.408835 0.176424
C60   C     C_3   0.280431 0.873812 0.464775 -0.804181
H49   H     H_    0.246029 0.865990 0.502141 0.229239
H50   H     H_    0.209746 0.938300 0.446240 0.187426
H51   H     H_    0.271664 0.777291 0.443609 0.239678
H52   H     H_    0.194857 0.439101 0.880167 0.186780

loop_
_geom_bond_atom_site_label_1
_geom_bond_atom_site_label_2
_geom_bond_distance
_ccdc_geom_bond_type
C60   H49   1.102946 S    
C37   C55   1.514135 S    
C26   N2    1.368535 A    
C20   C24   1.421725 A    
C7    C8    1.395028 A    
C12   C15   1.420520 A    
C54   H24   1.109185 S    
C49   H38   1.115976 S    
C45   C46   1.548432 S    
Cu1   Cu2   2.747312 S    
C49   C50   1.615355 S    
Cu1   O7    1.949569 S    
N1    C11   1.433403 S    
C25   C39   1.396036 A    
C50   H39   1.112729 S    
C21   C22   1.389540 A    
C44   H18   1.111196 S    
C23   C24   1.407913 A    
O7    C4    1.316247 A    
C5    C13   1.398828 A    
C5    O9    1.350274 S    
C19   C38   1.416196 A    
C18   C21   1.416160 A    
C22   H52   1.083515 S    
Cu1   O5    1.962543 S    
C19   C20   1.419204 A    
C17   C29   1.405070 A    
C41   H13   1.105279 S    
O5    C3    1.306852 A    
C58   H43   1.108632 S    
C41   C46   1.547853 S    
C50   N4    1.506879 S    
C49   N3    1.527455 S    
C6    O11   1.347418 S    
C2    C16   1.472701 S    
C38   C39   1.388836 A    
C47   C48   1.549438 S    
C53   C59   1.545810 S    
C42   H16   1.113156 S    
C41   H15   1.113122 S    
C8    H8    1.083088 S    
C12   C34   1.424014 A    
C45   H34   1.113348 S    
C14   H3    1.083781 S    
C9    C10   1.393498 A    
O3    Cu1   1.949225 S    
C44   C47   1.550927 S    
C52   N4    1.493491 S    
C39   H11   1.083518 S    
C33   C36   1.412472 A    
C38   H10   1.077219 S    
C34   C35   1.415382 A    
C48   H37   1.109421 S    
C12   C13   1.412130 A    
O3    C2    1.316888 A    
C4    C17   1.471723 S    
C53   C54   1.600306 S    
C36   H7    1.076861 S    
C27   O10   1.349669 S    
C8    C16   1.406643 A    
C60   H51   1.107248 S    
C33   C34   1.423680 A    
C18   C33   1.421815 A    
C9    H1    1.083028 S    
C48   H36   1.113505 S    
C51   H25   1.111542 S    
O1    C1    1.317347 A    
C58   H45   1.086359 S    
C7    C11   1.399822 A    
C22   C23   1.396322 A    
C21   H6    1.076739 S    
C53   N3    1.523530 S    
C31   C32   1.399781 A    
Cu2   O8    1.948922 S    
C40   H12   1.076494 S    
C1    C46   1.486063 S    
C54   N4    1.519295 S    
N1    C6    1.366796 A    
C50   C58   1.571130 S    
N2    C32   1.435876 S    
C43   H17   1.113433 S    
C25   C26   1.403586 A    
C55   H28   1.111048 S    
C9    C16   1.406676 A    
O8    C4    1.316988 A    
C29   H4    1.083741 S    
C31   H33   1.083675 S    
H21   C51   1.104736 S    
C42   C44   1.543837 S    
C56   H31   1.105663 S    
N2    C27   1.368513 A    
C59   H47   1.092813 S    
C14   C36   1.385047 A    
C24   C25   1.407691 A    
C45   C48   1.539529 S    
C28   C29   1.392622 A    
C5    N1    1.362215 A    
Cu1   N4    2.063910 S    
C30   C31   1.401747 A    
C49   C57   1.574333 S    
C60   H50   1.098115 S    
C10   H2    1.082966 S    
O1    Cu1   1.975048 S    
C17   C30   1.417639 A    
O2    Cu2   1.962117 S    
C6    C15   1.420787 A    
C44   H20   1.106853 S    
H22   C52   1.113543 S    
O6    C3    1.319847 A    
C54   C60   1.553649 S    
O4    Cu2   1.949876 S    
C57   H41   1.095176 S    
C57   H40   1.093466 S    
C30   C56   1.506056 S    
C3    C47   1.487323 S    
C19   C35   1.422561 A    
C55   H27   1.110184 S    
C59   H48   1.110353 S    
O2    C1    1.308230 A    
C13   C14   1.396387 A    
C23   C27   1.404648 A    
C15   C37   1.421999 A    
C45   H35   1.110180 S    
C28   H5    1.082838 S    
C43   C47   1.556939 S    
O4    C2    1.317968 A    
C7    H9    1.082903 S    
C18   C20   1.418897 A    
C41   C43   1.531025 S    
C56   H32   1.107924 S    
C51   N3    1.493448 S    
C42   C46   1.555713 S    
C58   H44   1.109203 S    
C57   H42   1.102236 S    
C53   H23   1.113136 S    
C55   H29   1.110002 S    
Cu2   O6    1.975474 S    
Cu2   N3    2.063743 S    
C56   H30   1.110841 S    
C59   H46   1.109210 S    
C10   C11   1.399063 A    
C42   H14   1.112287 S    
C26   O12   1.349841 S    
C51   C52   1.585915 S    
C43   H19   1.107229 S    
C52   H26   1.108093 S    
C37   C40   1.398756 A    
C35   C40   1.409572 A    
C28   C32   1.397989 A    
