data_mof_unit_52476.cif
_audit_creation_date              2013-03-05T15:51:32-0500
_audit_creation_method            fapswitch 2.2
_symmetry_space_group_name_H-M    P1
_symmetry_Int_Tables_number       1
_space_group_crystal_system       triclinic
_cell_length_a                    15.895058
_cell_length_b                    10.839959
_cell_length_c                    9.694073
_cell_angle_alpha                 89.580001
_cell_angle_beta                  90.174196
_cell_angle_gamma                 93.991187
_cell_volume                      1666.2049986

loop_
_atom_site_label
_atom_site_type_symbol
_atom_site_description
_atom_site_fract_x
_atom_site_fract_y
_atom_site_fract_z
_atom_type_partial_charge
O1    O     O_R   0.499990 0.319640 0.618810 -0.578666
O2    O     O_R   0.500000 0.319660 0.381240 -0.503075
C1    C     C_R   0.506490 0.263037 0.500606 0.827906
O3    O     O_R   0.379430 0.499990 0.618840 -0.519257
O4    O     O_R   0.379440 0.500020 0.381260 -0.532450
C2    C     C_R   0.340579 0.498611 0.499801 0.845494
Cu1   Cu    Cu3+1 0.499990 0.499990 0.640660 1.079994
Cu2   Cu    Cu3+1 0.500010 0.500010 0.359340 1.080709
O5    O     O_R   0.500000 0.680340 0.618760 -0.514436
O6    O     O_R   0.500010 0.680360 0.381190 -0.609408
O7    O     O_R   0.620560 0.499980 0.618740 -0.562258
O8    O     O_R   0.620570 0.500010 0.381160 -0.591564
C3    C     C_R   0.492850 0.736181 0.499737 0.871695
C4    C     C_R   0.659358 0.499668 0.499769 0.808654
C5    C     C_3   0.043249 0.413593 0.610813 0.041461
C6    C     C_3   0.047202 0.440842 0.353662 0.030724
C7    C     C_3   0.947462 0.430473 0.356089 0.590157
H1    H     H_    0.912509 0.337485 0.632731 0.249137
H2    H     H_    0.050483 0.315548 0.581761 0.189187
H3    H     H_    0.068123 0.344817 0.351528 0.168280
C8    C     C_1   0.748846 0.498770 0.497753 -0.025591
C9    C     C_3   0.083257 0.498383 0.492318 -0.197937
C10   C     C_3   0.947048 0.429642 0.619793 -0.507692
C11   C     C_3   0.916555 0.498275 0.488557 -0.116111
C12   C     C_3   0.957295 0.634044 0.496745 0.169238
C13   C     C_3   0.055017 0.632659 0.512477 0.222772
C14   C     C_1   0.824250 0.498312 0.493264 0.181066
C15   C     C_1   0.175509 0.496872 0.496105 0.146776
C16   C     C_1   0.250980 0.497259 0.498620 0.024878
H4    H     H_    0.070250 0.660275 0.619823 0.182033
H5    H     H_    0.933768 0.676837 0.591811 0.184670
H6    H     H_    0.932333 0.482620 0.713424 0.271219
C17   C     C_R   0.539324 0.107089 0.754361 -0.126229
H7    H     H_    0.578061 0.192905 0.760675 0.181173
C18   C     C_R   0.524955 0.038523 0.875326 -0.149111
H8    H     H_    0.553168 0.072129 0.970223 0.234230
C19   C     C_R   0.471697 0.930479 0.873423 0.418398
C20   C     C_R   0.443749 0.881645 0.747000 0.371000
C21   C     C_R   0.476840 0.935712 0.623629 -0.032658
C22   C     C_R   0.509364 0.059632 0.626966 0.019674
C23   C     C_R   0.513837 0.128002 0.501656 -0.189919
C24   C     C_R   0.512933 0.062522 0.376067 0.369551
H9    H     H_    0.511808 0.886340 0.282262 0.218653
C25   C     C_R   0.503184 0.934773 0.377498 -0.194800
C26   C     C_R   0.485083 0.869908 0.499740 -0.104308
C27   C     C_R   0.625617 0.638294 0.147663 -0.141238
H10   H     H_    0.618076 0.669740 0.250466 0.215204
C28   C     C_R   0.703827 0.665174 0.090051 -0.243981
H11   H     H_    0.754708 0.704353 0.154085 0.247504
C29   C     C_R   0.715119 0.646775 0.950435 0.313254
C30   C     C_R   0.642749 0.622597 0.867688 0.330375
C31   C     C_R   0.566422 0.564284 0.927288 0.013777
C32   C     C_R   0.562784 0.567452 0.075863 0.118652
N1    N     N_R   0.500800 0.501210 0.147910 -0.233957
C33   C     C_R   0.439477 0.435155 0.073250 0.444485
C34   C     C_R   0.438578 0.437035 0.926126 0.354784
N2    N     N_R   0.500820 0.501290 0.852040 -0.254020
N3    N     N_R   0.084640 0.432209 0.745758 0.182612
O9    O     O_R   0.077229 0.532335 0.816629 -0.243197
O10   O     O_R   0.121531 0.341240 0.802777 -0.200173
Cl1   Cl    Cl    0.923446 0.733931 0.361578 -0.359307
N4    N     N_R   0.523979 0.123167 0.245642 0.123927
O11   O     O_R   0.461371 0.120923 0.159046 -0.282193
O12   O     O_R   0.595837 0.180982 0.213617 -0.347916
Cl2   Cl    Cl    0.442549 0.854540 0.028290 -0.497779
Cl3   Cl    Cl    0.357617 0.768925 0.744073 -0.445521
Cl4   Cl    Cl    0.359523 0.343041 0.157751 -0.370883
N5    N     N_R   0.796991 0.674788 0.890054 0.186874
O13   O     O_R   0.858201 0.729162 0.961542 -0.216719
O14   O     O_R   0.812938 0.635891 0.767041 -0.369811
Cl5   Cl    Cl    0.645006 0.735361 0.736378 -0.558961
N6    N     N_R   0.371377 0.369614 0.855564 0.170131
O15   O     O_R   0.296241 0.409904 0.858836 -0.211715
O16   O     O_R   0.380006 0.255897 0.819675 -0.299709
N7    N     N_R   0.084155 0.502017 0.229443 0.205656
O17   O     O_R   0.136780 0.444374 0.155005 -0.201857
O18   O     O_R   0.062499 0.609473 0.187288 -0.134191
Cl6   Cl    Cl    0.911002 0.269244 0.362285 -0.496279
Cl7   Cl    Cl    0.899568 0.483352 0.199653 -0.378304
Cl8   Cl    Cl    0.115786 0.751637 0.418484 -0.342782

loop_
_geom_bond_atom_site_label_1
_geom_bond_atom_site_label_2
_geom_bond_distance
_ccdc_geom_bond_type
C12   H5    1.112135 S    
C33   C34   1.426265 A    
C6    N7    1.474172 S    
C23   C24   1.413299 A    
C18   H8    1.076925 S    
C11   C14   1.468061 S    
N7    O17   1.301494 A    
Cu1   Cu2   2.727135 S    
C32   N1    1.368382 A    
C31   C32   1.442390 A    
C5    H2    1.115202 S    
N4    O11   1.299030 A    
C30   Cl5   1.757032 S    
C4    C8    1.423317 S    
C15   C16   1.199504 T    
C18   C19   1.396728 A    
C20   C21   1.414607 A    
O7    C4    1.309630 A    
N3    O10   1.300889 A    
C7    Cl7   1.802465 S    
C34   N2    1.371428 A    
O5    C3    1.307350 A    
N4    O12   1.301314 A    
C27   H10   1.065425 S    
C5    C9    1.573633 S    
C1    C23   1.476454 S    
C20   Cl3   1.770757 S    
C6    C7    1.581756 S    
C34   N6    1.427308 S    
C19   Cl2   1.754761 S    
C10   C11   1.561896 S    
C24   N4    1.426421 S    
Cu2   O8    1.927308 S    
C21   C26   1.412407 A    
C28   C29   1.383559 A    
C8    C14   1.199844 T    
C9    C15   1.467914 S    
C24   C25   1.382651 A    
O3    Cu1   1.927306 S    
C29   C30   1.410995 A    
C27   C28   1.376107 A    
C17   C22   1.410045 A    
H1    C10   1.112351 S    
C7    C11   1.580668 S    
C11   C12   1.568557 S    
N6    O16   1.299801 A    
Cu2   N1    2.049635 S    
C21   C22   1.405918 A    
N5    O13   1.302435 A    
C12   C13   1.561411 S    
C13   Cl8   1.800367 S    
C30   C31   1.448250 A    
O1    C1    1.311503 A    
Cu1   O7    1.928863 S    
H9    C25   1.079192 S    
C19   C20   1.397500 A    
C6    H3    1.114919 S    
C17   H7    1.081250 S    
C12   Cl1   1.798561 S    
N7    O18   1.300108 A    
O3    C2    1.306856 A    
C22   C23   1.417730 A    
O8    C4    1.303121 A    
C13   H4    1.106385 S    
C5    N3    1.471405 S    
C25   C26   1.393974 A    
Cu1   O5    1.964921 S    
N1    C33   1.375785 A    
C28   H11   1.082956 S    
C6    C9    1.575458 S    
O1    Cu1   1.967971 S    
Cu2   O6    1.967970 S    
O2    Cu2   1.964921 S    
N6    O15   1.300435 A    
O6    C3    1.311611 A    
O4    Cu2   1.928861 S    
C33   Cl4   1.760931 S    
C10   H6    1.111760 S    
O2    C1    1.313031 A    
N3    O9    1.301190 A    
C3    C26   1.463381 S    
O4    C2    1.305781 A    
C27   C32   1.403016 A    
C5    C10   1.553731 S    
C7    Cl6   1.803234 S    
C17   C18   1.394596 A    
C31   N2    1.410424 A    
C2    C16   1.423252 S    
N5    O14   1.299292 A    
C9    C13   1.566513 S    
C29   N5    1.440616 S    
Cu1   N2    2.049282 S    
