data_mof_unit_34803.cif
_audit_creation_date              2012-12-10T18:23:11-0500
_audit_creation_method            fapswitch 2.2
_symmetry_space_group_name_H-M    P1
_symmetry_Int_Tables_number       1
_space_group_crystal_system       triclinic
_cell_length_a                    15.009528
_cell_length_b                    14.303172
_cell_length_c                    10.693474
_cell_angle_alpha                 90.123424
_cell_angle_beta                  91.220903
_cell_angle_gamma                 91.289648
_cell_volume                      2294.60574349

loop_
_atom_site_label
_atom_site_type_symbol
_atom_type_description
_atom_site_fract_x
_atom_site_fract_y
_atom_site_fract_z
_atom_type_partial_charge
C1    C     C_R   0.327530 0.498744 0.495160 0.927585
C2    C     C_R   0.943307 0.430053 0.290872 -0.285280
C3    C     C_R   0.562558 0.801307 0.435462 0.022983
C4    C     C_R   0.440441 0.199457 0.570872 0.027186
C5    C     C_R   0.435467 0.798197 0.562921 0.025587
C6    C     C_R   0.558901 0.201467 0.427505 0.026679
C7    C     C_R   0.434583 0.898458 0.564391 -0.016629
C8    C     C_R   0.557561 0.101248 0.422788 -0.017722
C9    C     C_R   0.558527 0.900806 0.425207 -0.015622
C10   C     C_R   0.436373 0.099235 0.567120 -0.011491
C11   C     C_R   0.495534 0.949712 0.492962 0.080512
C12   C     C_R   0.672741 0.501061 0.500533 0.936481
C13   C     C_R   0.495866 0.050182 0.493281 0.078862
C14   C     C_R   0.374520 0.949079 0.637096 -0.209928
C15   C     C_R   0.617549 0.050416 0.349949 -0.206192
C16   C     C_R   0.618695 0.953063 0.352336 -0.209422
C17   C     C_R   0.375334 0.046433 0.638282 -0.205206
C18   C     C_R   0.499961 0.499862 0.257378 0.900898
C19   C     C_R   0.499379 0.500303 0.742816 0.909971
C20   C     C_3   0.439773 0.561720 0.041200 -0.138996
C21   C     C_3   0.558966 0.439465 0.959819 -0.147595
C22   C     C_3   0.521583 0.587113 0.961745 -0.173841
C23   C     C_R   0.953789 0.499418 0.497501 0.044053
C24   C     C_3   0.477117 0.414349 0.039285 -0.115844
C25   C     C_3   0.417593 0.476432 0.956186 -0.152499
C26   C     C_3   0.581133 0.524826 0.044680 -0.201241
C27   C     C_3   0.499409 0.501501 0.878877 0.021421
C28   C     C_3   0.499414 0.499639 0.121742 0.037775
C29   C     C_R   0.810275 0.465500 0.400439 -0.268606
C30   C     C_R   0.189806 0.533247 0.590195 -0.269367
C31   C     C_R   0.768649 0.503222 0.502738 -0.122043
C32   C     C_R   0.232010 0.495805 0.489064 -0.139913
C33   C     C_R   0.818090 0.543403 0.602957 -0.105521
C34   C     C_R   0.047160 0.497841 0.491702 0.042917
C35   C     C_R   0.183623 0.453541 0.388792 -0.114045
C36   C     C_R   0.911970 0.534943 0.604988 -0.019214
C37   C     C_R   0.089449 0.461392 0.384948 -0.005718
C38   C     C_2   0.771970 0.599697 0.698076 0.907206
C39   C     C_2   0.230772 0.394335 0.297845 0.906114
C40   C     C_R   0.932026 0.559857 0.839041 0.164143
C41   C     C_R   0.955758 0.633463 0.920631 -0.088608
C42   C     C_R   0.923867 0.633680 0.041554 -0.133305
C43   C     C_R   0.866415 0.561733 0.080533 -0.149598
C44   C     C_R   0.842846 0.488027 0.000200 -0.147493
C45   C     C_R   0.902399 0.463810 0.396699 0.107208
C46   C     C_R   0.877710 0.485436 0.880903 -0.115870
C47   C     C_R   0.069891 0.431559 0.150306 0.164920
C48   C     C_R   0.126569 0.503593 0.106897 -0.123784
C49   C     C_R   0.159573 0.499951 0.986314 -0.143265
C50   C     C_R   0.131784 0.427885 0.905562 -0.120724
C51   C     C_R   0.071157 0.359208 0.944972 -0.165627
C52   C     C_R   0.041666 0.359726 0.067705 -0.107806
C53   C     C_R   0.644830 0.757796 0.397885 0.180636
C54   C     C_R   0.718796 0.765869 0.479974 -0.110676
C55   C     C_R   0.803459 0.744876 0.439116 -0.124360
C56   C     C_R   0.098174 0.533698 0.592979 0.109282
C57   C     C_R   0.814855 0.718007 0.315548 -0.133156
C58   C     C_R   0.741428 0.711435 0.232416 -0.195249
C59   C     C_R   0.656163 0.729968 0.273856 -0.153667
C60   C     C_R   0.384714 0.246307 0.662106 0.195703
C61   C     C_R   0.412608 0.243550 0.788315 -0.147228
C62   C     C_R   0.349993 0.246338 0.882648 -0.170260
C63   C     C_R   0.259990 0.255241 0.852140 -0.127237
C64   C     C_R   0.232191 0.264168 0.727173 -0.196435
C65   C     C_R   0.294259 0.259131 0.632136 -0.136564
C66   C     C_R   0.366492 0.749248 0.635594 0.201853
C67   C     C_R   0.965956 0.558839 0.710922 0.006892
C68   C     C_R   0.277726 0.751544 0.590765 -0.145967
C69   C     C_R   0.207301 0.744418 0.673915 -0.164957
C70   C     C_R   0.224704 0.730765 0.801353 -0.165298
C71   C     C_R   0.312414 0.724205 0.845704 -0.185441
C72   C     C_R   0.383077 0.734695 0.763564 -0.133953
C73   C     C_R   0.628656 0.250125 0.356024 0.201416
C74   C     C_R   0.613999 0.262659 0.227234 -0.141673
C75   C     C_R   0.685847 0.271808 0.146903 -0.185311
C76   C     C_R   0.772900 0.265742 0.194006 -0.163257
C77   C     C_R   0.788419 0.253997 0.322226 -0.164214
C78   C     C_R   0.035518 0.435634 0.279083 0.019954
C79   C     C_R   0.716758 0.248202 0.403430 -0.143910
C80   C     C_R   0.057592 0.565697 0.699447 -0.287891
H1    H     H_    0.350876 0.456749 0.916389 0.150392
H2    H     H_    0.902447 0.405859 0.212792 0.152557
H3    H     H_    0.326651 0.914678 0.696434 0.172050
H4    H     H_    0.665655 0.084710 0.290884 0.172549
H5    H     H_    0.667634 0.919416 0.295873 0.161898
H6    H     H_    0.327349 0.079245 0.697015 0.170457
H7    H     H_    0.675427 0.606490 0.824115 0.336568
H8    H     H_    0.235908 0.270462 0.208206 0.332685
H9    H     H_    0.998338 0.690832 0.890366 0.110724
H10   H     H_    0.943709 0.690322 0.103528 0.117842
H11   H     H_    0.840630 0.561897 0.173588 0.145274
H12   H     H_    0.647992 0.544202 0.084285 0.138371
H13   H     H_    0.798464 0.432484 0.030918 0.127509
H14   H     H_    0.860642 0.426821 0.820021 0.120421
H15   H     H_    0.146569 0.561573 0.167277 0.117221
H16   H     H_    0.205746 0.553649 0.954896 0.123222
H17   H     H_    0.156923 0.425704 0.811893 0.147773
H18   H     H_    0.048730 0.304275 0.881250 0.123693
H19   H     H_    0.996958 0.304278 0.098172 0.115468
H20   H     H_    0.710963 0.791881 0.574210 0.156942
H21   H     H_    0.860580 0.751595 0.502249 0.162793
H22   H     H_    0.881172 0.703842 0.285463 0.127153
H23   H     H_    0.391222 0.610531 0.080454 0.133941
H24   H     H_    0.750262 0.694810 0.134974 0.155171
H25   H     H_    0.600306 0.728405 0.207982 0.136690
H26   H     H_    0.481357 0.229343 0.813060 0.125321
H27   H     H_    0.370305 0.235996 0.979029 0.132045
H28   H     H_    0.211996 0.252385 0.925798 0.156063
H29   H     H_    0.162065 0.269840 0.703512 0.143241
H30   H     H_    0.270914 0.256794 0.535599 0.163726
H31   H     H_    0.263448 0.767402 0.493476 0.132312
H32   H     H_    0.139321 0.750655 0.639711 0.152750
H33   H     H_    0.170345 0.726589 0.866095 0.126452
H34   H     H_    0.607466 0.390366 0.921091 0.139982
H35   H     H_    0.325573 0.716780 0.944810 0.133014
H36   H     H_    0.450391 0.740509 0.800926 0.128766
H37   H     H_    0.547353 0.255390 0.188076 0.123493
H38   H     H_    0.674097 0.277468 0.047216 0.130431
H39   H     H_    0.828194 0.268492 0.130770 0.125501
H40   H     H_    0.855897 0.248050 0.358549 0.156083
H41   H     H_    0.729603 0.233575 0.501438 0.132519
H42   H     H_    0.541625 0.658098 0.930232 0.129831
H43   H     H_    0.457120 0.345166 0.075982 0.136346
H44   H     H_    0.770077 0.440973 0.321026 0.160953
H45   H     H_    0.229338 0.558017 0.670207 0.163807
H46   H     H_    0.098224 0.588698 0.778531 0.152675
N1    N     N_R   0.500000 0.750030 0.500000 -0.143117
N2    N     N_R   0.500000 0.249970 0.500000 -0.144325
O1    O     O_R   0.367850 0.580280 0.500030 -0.620897
O2    O     O_R   0.698346 0.561975 0.759166 -0.825045
O3    O     O_2   0.296899 0.424835 0.245422 -0.661603
O4    O     O_R   0.198963 0.303525 0.272343 -0.815391
O5    O     O_R   0.632150 0.419720 0.499970 -0.621924
O6    O     O_R   0.632150 0.580280 0.499970 -0.606749
O7    O     O_R   0.367850 0.419720 0.500030 -0.618437
O8    O     O_R   0.499970 0.580260 0.313950 -0.636878
O9    O     O_R   0.500030 0.419740 0.686050 -0.625173
O10   O     O_R   0.500030 0.580260 0.686050 -0.622290
O11   O     O_R   0.499970 0.419740 0.313950 -0.612989
O12   O     O_2   0.799869 0.678366 0.724843 -0.662504
Zn1   Zn    Zn3+2 0.500000 0.607200 0.500000 0.966487
Zn2   Zn    Zn3+2 0.500000 0.392800 0.500000 0.972645

loop_
_geom_bond_atom_site_label_1
_geom_bond_atom_site_label_2
_ccdc_geom_bond_type
C66   C68   A    
O9    Zn2   S    
C34   C56   A    
C8    C13   A    
C23   C45   A    
C48   H15   S    
C34   C37   A    
C3    C53   S    
C41   C42   A    
C41   H9    S    
C21   C26   S    
C77   H40   S    
C53   C59   A    
C36   C67   A    
C20   H23   S    
C53   C54   A    
C40   C46   A    
C57   H22   S    
C79   H41   S    
O5    Zn2   S    
C59   H25   S    
C80   H46   S    
C3    C9    A    
C38   O2    S    
H7    O2    S    
C35   C37   A    
C9    C16   A    
C1    O1    A    
C69   H32   S    
C3    N1    A    
O1    Zn1   S    
C20   C25   S    
C10   C17   A    
C26   H12   S    
C15   C16   A    
C29   H44   S    
C33   C36   A    
N1    Zn1   S    
C44   H13   S    
C7    C14   A    
C66   C72   A    
C68   C69   A    
C40   C67   S    
C31   C33   A    
C18   O8    A    
C70   C71   A    
C19   C27   S    
C61   C62   A    
C51   H18   S    
C21   C27   S    
C30   H45   S    
C2    C45   A    
C12   O6    A    
C25   H1    S    
C14   C17   A    
C54   H20   S    
C18   O11   A    
C75   H38   S    
C14   H3    S    
C44   C46   A    
C22   H42   S    
C77   C79   A    
C70   H33   S    
C76   H39   S    
C74   C75   A    
C4    N2    A    
C17   H6    S    
C32   C35   A    
C18   C28   S    
C76   C77   A    
C5    C7    A    
C5    C66   S    
C6    C8    A    
C62   H27   S    
C20   C28   S    
C58   C59   A    
C30   C56   A    
C10   C13   A    
C1    C32   S    
C43   H11   S    
C51   C52   A    
C29   C45   A    
C60   C61   A    
C42   H10   S    
C68   H31   S    
C35   C39   S    
C75   C76   A    
C62   C63   A    
C2    C78   A    
C7    C11   A    
C47   C48   A    
C46   H14   S    
C19   O9    A    
C23   C34   A    
C4    C60   S    
C50   C51   A    
C73   C79   A    
C71   H35   S    
C24   C25   S    
C61   H26   S    
C9    C11   A    
C47   C52   A    
C48   C49   A    
C20   C22   S    
C60   C65   A    
C23   C36   A    
C8    C15   A    
C64   H29   S    
C12   O5    A    
C55   C57   A    
C43   C44   A    
C22   C26   S    
C16   H5    S    
C2    H2    S    
C58   H24   S    
C42   C43   A    
H8    O4    S    
C4    C10   A    
C73   C74   A    
O7    Zn2   S    
C6    C73   S    
C74   H37   S    
C55   H21   S    
C54   C55   A    
C40   C41   A    
C50   H17   S    
C5    N1    A    
C67   C80   A    
C24   C28   S    
C21   H34   S    
O10   Zn1   S    
C15   H4    S    
C25   C27   S    
C37   C78   A    
C72   H36   S    
C52   H19   S    
C26   C28   S    
C33   C38   S    
C56   C80   A    
C22   C27   S    
C64   C65   A    
C6    N2    A    
C71   C72   A    
C12   C31   S    
O6    Zn1   S    
C30   C32   A    
C11   C13   A    
C57   C58   A    
C39   O3    D    
C19   O10   A    
O11   Zn2   S    
O8    Zn1   S    
C24   H43   S    
C49   H16   S    
C69   C70   A    
C65   H30   S    
C63   C64   A    
C29   C31   A    
C49   C50   A    
C39   O4    S    
C21   C24   S    
C38   O12   D    
C47   C78   S    
C63   H28   S    
C1    O7    A    
N2    Zn2   S    
