data_mof_unit_51605.cif
_audit_creation_date              2012-10-26T18:54:57-0400
_audit_creation_method            fapswitch 2.2
_symmetry_space_group_name_H-M    P1
_symmetry_Int_Tables_number       1
_space_group_crystal_system       triclinic
_cell_length_a                    10.803167
_cell_length_b                    9.552982
_cell_length_c                    10.877158
_cell_angle_alpha                 90.024188
_cell_angle_beta                  91.147427
_cell_angle_gamma                 90.214043
_cell_volume                      1122.31639711

loop_
_atom_site_label
_atom_site_type_symbol
_atom_type_description
_atom_site_fract_x
_atom_site_fract_y
_atom_site_fract_z
_atom_type_partial_charge
C1    C     C_R   0.262410 0.499849 0.502603 0.573587
C2    C     C_R   0.506021 0.622103 0.938216 0.036739
C3    C     C_R   0.497319 0.498784 0.130116 0.012936
C4    C     C_R   0.498570 0.499195 0.869920 0.025496
C5    C     C_R   0.488315 0.371778 0.064110 -0.124255
C6    C     C_R   0.488714 0.372001 0.935163 -0.119014
C7    C     C_3   0.523936 0.777535 0.930188 0.301930
C8    C     C_3   0.520747 0.776915 0.073839 0.305981
C9    C     C_R   0.062076 0.405021 0.434392 -0.146423
C10   C     C_R   0.934130 0.405243 0.434511 -0.142765
C11   C     C_R   0.871638 0.500604 0.508087 0.008874
C12   C     C_R   0.737685 0.500228 0.503129 0.586083
C13   C     C_R   0.128687 0.499893 0.508028 -0.014396
C14   C     C_R   0.937658 0.593568 0.585879 0.261010
C15   C     C_R   0.066935 0.593278 0.585844 0.256980
C16   C     C_R   0.421178 0.072465 0.423758 0.331172
C17   C     C_R   0.578746 0.073311 0.576364 0.332592
C18   C     C_R   0.420685 0.924394 0.425214 0.096522
C19   C     C_R   0.578879 0.925267 0.575168 0.101834
C20   C     C_R   0.499260 0.499927 0.262729 0.567193
C21   C     C_R   0.500256 0.500081 0.737310 0.593962
C22   C     C_R   0.505251 0.621698 0.062663 0.023343
Cl1   Cl    Cl    0.398888 0.863726 0.851047 -0.504524
Cl2   Cl    Cl    0.660642 0.824940 0.154878 -0.553235
Cl3   Cl    Cl    0.860350 0.704274 0.689174 -0.497291
Cl4   Cl    Cl    0.149975 0.704301 0.688671 -0.402228
Cl5   Cl    Cl    0.318152 0.154428 0.320354 -0.596843
Cl6   Cl    Cl    0.682526 0.156401 0.679225 -0.520854
Cu1   Cu    Cu3+1 0.500000 0.640660 0.500000 1.117813
Cu2   Cu    Cu3+1 0.500000 0.359340 0.500000 1.123813
H1    H     H_    0.481610 0.272367 0.111348 0.194174
H2    H     H_    0.330467 0.802694 0.087981 0.269146
H3    H     H_    0.481923 0.272728 0.887303 0.196741
H4    H     H_    0.109020 0.332792 0.374651 0.208299
H5    H     H_    0.883711 0.332776 0.375192 0.172316
H6    H     H_    0.356628 0.867200 0.366169 0.176776
H7    H     H_    0.641908 0.868874 0.635078 0.214915
H8    H     H_    0.662484 0.919462 0.900042 0.299154
H9    H     H_    0.714305 0.753799 0.917720 0.290574
H10   H     H_    0.415630 0.950428 0.106481 0.289529
N1    N     N_R   0.500000 0.852070 0.500000 -0.275555
N2    N     N_R   0.500000 0.147940 0.500000 -0.222089
N3    N     N_3   0.643678 0.814782 0.878433 -0.526735
N4    N     N_3   0.412260 0.843569 0.126920 -0.560173
O1    O     O_R   0.319640 0.618740 0.499990 -0.477253
O2    O     O_R   0.680360 0.618740 0.500010 -0.468786
O3    O     O_R   0.319620 0.381170 0.499990 -0.463224
O4    O     O_R   0.680380 0.381170 0.500010 -0.470039
O5    O     O_R   0.499990 0.618810 0.319660 -0.472865
O6    O     O_R   0.500010 0.618810 0.680340 -0.448801
O7    O     O_R   0.499960 0.381240 0.319650 -0.483399
O8    O     O_R   0.500040 0.381240 0.680350 -0.478736

loop_
_geom_bond_atom_site_label_1
_geom_bond_atom_site_label_2
_ccdc_geom_bond_type
C2    C22   A    
C2    C4    A    
Cu2   O7    S    
C15   Cl4   S    
C10   H5    S    
C8    Cl2   S    
C7    N3    S    
C20   O5    A    
C9    C10   A    
C8    C22   S    
C2    C7    S    
C6    H3    S    
H10   N4    S    
Cu1   O2    S    
C12   O4    A    
C3    C5    A    
C16   Cl5   S    
H2    N4    S    
C19   N1    A    
C7    C8    S    
Cu1   O5    S    
C4    C21   S    
C1    O1    A    
Cu1   Cu2   S    
C7    Cl1   S    
C5    C6    A    
Cu2   O4    S    
C21   O6    A    
C17   C19   A    
C20   O7    A    
Cu1   O6    S    
C13   C15   A    
C14   Cl3   S    
H9    N3    S    
C9    H4    S    
C11   C14   A    
H8    N3    S    
C4    C6    A    
C1    C13   S    
C10   C11   A    
C16   N2    A    
Cu2   O3    S    
C3    C20   S    
C16   C18   A    
C18   N1    A    
C9    C13   A    
C17   N2    A    
Cu2   N2    S    
C3    C22   A    
Cu2   O8    S    
C19   H7    S    
Cu1   N1    S    
C14   C15   A    
C17   Cl6   S    
C18   H6    S    
C21   O8    A    
C1    O3    A    
C8    N4    S    
C11   C12   S    
Cu1   O1    S    
C5    H1    S    
C12   O2    A    
