data_mof_unit_29811.cif
_audit_creation_date              2012-12-10T18:58:12-0500
_audit_creation_method            fapswitch 2.2
_symmetry_space_group_name_H-M    P1
_symmetry_Int_Tables_number       1
_space_group_crystal_system       triclinic
_cell_length_a                    10.664535
_cell_length_b                    10.079345
_cell_length_c                    15.730902
_cell_angle_alpha                 93.243685
_cell_angle_beta                  95.089866
_cell_angle_gamma                 89.971132
_cell_volume                      1681.55524192

loop_
_atom_site_label
_atom_site_type_symbol
_atom_type_description
_atom_site_fract_x
_atom_site_fract_y
_atom_site_fract_z
_atom_type_partial_charge
C1    C     C_R   0.876072 0.504883 0.505556 -0.322270
C2    C     C_R   0.408243 0.381963 0.939686 0.062156
C3    C     C_R   0.426486 0.506866 0.906853 0.030740
C4    C     C_R   0.436235 0.491546 0.082164 0.032099
C5    C     C_1   0.454247 0.511973 0.820098 -0.043991
C6    C     C_1   0.461656 0.485271 0.172746 -0.054699
C7    C     C_1   0.481446 0.487883 0.248745 -0.209309
C8    C     C_1   0.477707 0.510509 0.747553 -0.210800
C9    C     C_R   0.584953 0.074791 0.553953 0.119827
C10   C     C_R   0.414151 0.925095 0.447306 0.098406
C11   C     C_R   0.425876 0.065474 0.439705 0.119846
C12   C     C_R   0.134292 0.499510 0.532174 -0.321327
C13   C     C_R   0.575008 0.933218 0.559683 0.127164
C14   C     C_R   0.066651 0.380243 0.519630 0.295546
C15   C     C_R   0.942605 0.621795 0.537752 0.343339
C16   C     C_R   0.940526 0.386267 0.489882 0.276883
C17   C     C_R   0.072102 0.618467 0.552273 0.350944
C18   C     C_3   0.713635 0.134675 0.583422 -0.355116
C19   C     C_3   0.722548 0.226489 0.665538 -0.272291
C20   C     C_3   0.841918 0.201720 0.723463 -0.946274
C21   C     C_3   0.287095 0.863965 0.413461 -0.341853
C22   C     C_3   0.288628 0.772678 0.331916 -0.293072
C23   C     C_R   0.263524 0.500560 0.511673 0.911670
C24   C     C_3   0.176961 0.794219 0.266473 -0.984176
C25   C     C_3   0.374044 0.119415 0.354542 -0.411630
C26   C     C_3   0.254178 0.203236 0.359866 -0.256680
C27   C     C_3   0.146637 0.164804 0.292670 -1.004389
C28   C     C_3   0.635264 0.868903 0.638345 -0.319375
C29   C     C_3   0.544369 0.862959 0.708723 -0.322688
C30   C     C_3   0.535077 0.994044 0.760566 -0.949683
C31   C     C_3   0.437530 0.744024 0.105738 -0.418015
C32   C     C_3   0.571948 0.800182 0.118499 -0.326088
C33   C     C_3   0.580616 0.922577 0.180501 -0.902160
C34   C     C_R   0.740371 0.500955 0.499319 0.975839
C35   C     C_3   0.380877 0.262072 0.876359 -0.407076
C36   C     C_3   0.252655 0.276201 0.823505 -0.376707
C37   C     C_3   0.250401 0.204454 0.735455 -0.790845
C38   C     C_3   0.392273 0.754516 0.914500 -0.430097
C39   C     C_3   0.249748 0.762033 0.890254 -0.348144
C40   C     C_3   0.215668 0.876698 0.833697 -0.869562
C41   C     C_3   0.396805 0.241115 0.068710 -0.402883
C42   C     C_3   0.256225 0.205783 0.062835 -0.323825
C43   C     C_3   0.235957 0.058337 0.073331 -0.958655
C44   C     C_R   0.498473 0.496379 0.339031 0.876292
C45   C     C_R   0.498830 0.503372 0.660544 0.851846
C46   C     C_R   0.422177 0.625404 0.957820 0.060505
C47   C     C_R   0.415297 0.373478 0.029502 0.051082
C48   C     C_R   0.431086 0.618157 0.047293 0.057113
H1    H     H_    0.843043 0.098620 0.744815 0.268908
H2    H     H_    0.174349 0.713852 0.215025 0.258082
H3    H     H_    0.376578 0.789086 0.301571 0.226131
H4    H     H_    0.282808 0.667807 0.348522 0.248053
H5    H     H_    0.244473 0.815720 0.464678 0.250240
H6    H     H_    0.217609 0.943875 0.401752 0.202759
H7    H     H_    0.181386 0.153393 0.229057 0.290671
H8    H     H_    0.100553 0.071539 0.307606 0.273154
H9    H     H_    0.074364 0.244206 0.291663 0.268263
H10   H     H_    0.218054 0.190582 0.421868 0.292905
H11   H     H_    0.276467 0.309014 0.352393 0.239662
H12   H     H_    0.926224 0.218223 0.688727 0.272134
H13   H     H_    0.448808 0.173377 0.326552 0.213494
H14   H     H_    0.354950 0.036147 0.305938 0.201276
H15   H     H_    0.629495 0.028201 0.788573 0.271989
H16   H     H_    0.490259 0.069205 0.719290 0.276405
H17   H     H_    0.475456 0.981275 0.813743 0.252655
H18   H     H_    0.448163 0.833825 0.681057 0.247563
H19   H     H_    0.579929 0.786852 0.753089 0.210313
H20   H     H_    0.666335 0.768146 0.620144 0.248899
H21   H     H_    0.722850 0.917304 0.667221 0.198824
H22   H     H_    0.517060 0.001622 0.156113 0.259076
H23   H     H_    0.845843 0.271682 0.780773 0.251922
H24   H     H_    0.554890 0.896696 0.244408 0.260958
H25   H     H_    0.678576 0.961501 0.187437 0.257821
H26   H     H_    0.637018 0.723195 0.144519 0.231447
H27   H     H_    0.603210 0.827592 0.056282 0.216005
H28   H     H_    0.370003 0.818614 0.081184 0.202567
H29   H     H_    0.405276 0.724392 0.168479 0.214336
H30   H     H_    0.319199 0.250202 0.696794 0.290711
H31   H     H_    0.272408 0.097864 0.740961 0.259261
H32   H     H_    0.155015 0.212357 0.702085 0.270836
H33   H     H_    0.176529 0.234329 0.857721 0.211465
H34   H     H_    0.726354 0.331571 0.649030 0.232328
H35   H     H_    0.228918 0.382007 0.814139 0.232055
H36   H     H_    0.458539 0.253614 0.833741 0.215351
H37   H     H_    0.380234 0.166140 0.906801 0.193179
H38   H     H_    0.248535 0.972203 0.866441 0.257959
H39   H     H_    0.259024 0.861816 0.772275 0.271621
H40   H     H_    0.111896 0.880961 0.819731 0.267257
H41   H     H_    0.215768 0.668339 0.854918 0.230574
H42   H     H_    0.199890 0.774301 0.949309 0.219896
H43   H     H_    0.425051 0.844169 0.954048 0.193308
H44   H     H_    0.443019 0.758583 0.856461 0.213803
H45   H     H_    0.639996 0.215270 0.702144 0.229344
H46   H     H_    0.269782 0.000146 0.018188 0.270419
H47   H     H_    0.288079 0.027159 0.133014 0.264796
H48   H     H_    0.134131 0.037498 0.075592 0.263542
H49   H     H_    0.210855 0.266170 0.112645 0.220298
H50   H     H_    0.208012 0.230756 0.000674 0.227135
H51   H     H_    0.453026 0.162668 0.037640 0.192771
H52   H     H_    0.433492 0.242418 0.136980 0.202341
H53   H     H_    0.057627 0.193830 0.545156 0.336037
H54   H     H_    0.851732 0.772932 0.499792 0.339334
H55   H     H_    0.945289 0.218132 0.422373 0.340339
H56   H     H_    0.786754 0.056581 0.588206 0.182904
H57   H     H_    0.212990 0.704312 0.619991 0.333348
H58   H     H_    0.747715 0.183170 0.530117 0.261886
H59   H     H_    0.087078 0.792261 0.297095 0.277030
H60   H     H_    0.186947 0.889988 0.236538 0.275696
N1    N     N_R   0.500000 0.857200 0.500000 -0.130899
N2    N     N_R   0.500000 0.142800 0.500000 -0.115659
O1    O     O_R   0.316770 0.614620 0.499990 -0.643088
O2    O     O_3   0.883888 0.740121 0.555864 -0.735077
O3    O     O_3   0.881312 0.281773 0.441571 -0.780032
O4    O     O_3   0.133842 0.731454 0.587836 -0.731124
O5    O     O_R   0.683230 0.385380 0.500010 -0.584731
O6    O     O_R   0.683230 0.614620 0.500010 -0.626610
O7    O     O_R   0.316770 0.385380 0.499990 -0.567748
O8    O     O_R   0.499980 0.614630 0.378020 -0.622303
O9    O     O_R   0.500020 0.385370 0.621980 -0.625056
O10   O     O_R   0.500020 0.614630 0.621980 -0.646975
O11   O     O_R   0.499980 0.385370 0.378020 -0.621502
O12   O     O_3   0.123380 0.261966 0.540618 -0.783289
Zn1   Zn    Zn3+2 0.500000 0.653120 0.500000 0.911303
Zn2   Zn    Zn3+2 0.500000 0.346880 0.500000 0.951839

loop_
_geom_bond_atom_site_label_1
_geom_bond_atom_site_label_2
_ccdc_geom_bond_type
C2    C35   S    
C14   O12   S    
O6    Zn1   S    
C30   H16   S    
C41   C42   S    
H54   O2    S    
C19   C20   S    
C16   O3    S    
C32   H27   S    
O9    Zn2   S    
C37   H31   S    
C12   C23   S    
C26   C27   S    
C29   C30   S    
C40   H39   S    
C36   C37   S    
H55   O3    S    
O7    Zn2   S    
C42   H50   S    
C32   H26   S    
C38   C39   S    
C27   H7    S    
C11   C25   S    
C36   H35   S    
C34   O6    A    
C38   H44   S    
C44   O11   A    
C43   H46   S    
C10   N1    A    
C18   C19   S    
C40   H38   S    
C9    C13   A    
C8    C45   S    
O11   Zn2   S    
C13   N1    A    
C33   H24   S    
N2    Zn2   S    
C29   H19   S    
C28   H21   S    
C12   C17   A    
C17   O4    S    
C43   H47   S    
C41   H51   S    
C13   C28   S    
C1    C15   A    
C20   H12   S    
C19   H34   S    
C26   H11   S    
C39   H42   S    
C19   H45   S    
O10   Zn1   S    
C25   H14   S    
C45   O9    A    
C30   H15   S    
C11   N2    A    
C1    C34   S    
C31   H29   S    
C10   C21   S    
C24   H2    S    
C37   H32   S    
C46   C48   A    
O1    Zn1   S    
H57   O4    S    
C4    C6    S    
C27   H9    S    
C42   H49   S    
C39   C40   S    
C1    C16   A    
C27   H8    S    
N1    Zn1   S    
C25   H13   S    
C25   C26   S    
C38   H43   S    
C35   C36   S    
C18   H58   S    
C20   H1    S    
C31   C32   S    
C44   O8    A    
C36   H33   S    
C43   H48   S    
C41   C47   S    
C41   H52   S    
C20   H23   S    
C24   H59   S    
C18   H56   S    
C7    C44   S    
C26   H10   S    
C33   H22   S    
C24   H60   S    
C45   O10   A    
C33   H25   S    
C12   C14   A    
C31   C48   S    
C14   C16   A    
C42   C43   S    
C22   H4    S    
C4    C48   A    
C9    N2    A    
C15   C17   A    
C28   C29   S    
O5    Zn2   S    
C28   H20   S    
C15   O2    S    
C3    C5    S    
C23   O7    A    
C5    C8    T    
C35   H36   S    
C6    C7    T    
C2    C47   A    
C23   O1    A    
C37   H30   S    
C3    C46   A    
H53   O12   S    
C32   C33   S    
C40   H40   S    
C2    C3    A    
C34   O5    A    
C21   H5    S    
C35   H37   S    
C31   H28   S    
C21   H6    S    
C22   C24   S    
O8    Zn1   S    
C38   C46   S    
C30   H17   S    
C10   C11   A    
C29   H18   S    
C9    C18   S    
C21   C22   S    
C39   H41   S    
C22   H3    S    
C4    C47   A    
