data_mof_unit_51023.cif
_audit_creation_date              2013-03-05T16:11:02-0500
_audit_creation_method            fapswitch 2.2
_symmetry_space_group_name_H-M    P1
_symmetry_Int_Tables_number       1
_space_group_crystal_system       triclinic
_cell_length_a                    16.684483
_cell_length_b                    27.803163
_cell_length_c                    8.461678
_cell_angle_alpha                 89.999985
_cell_angle_beta                  104.578278
_cell_angle_gamma                 89.989332
_cell_volume                      3798.84135927

loop_
_atom_site_label
_atom_site_type_symbol
_atom_site_description
_atom_site_fract_x
_atom_site_fract_y
_atom_site_fract_z
_atom_type_partial_charge
P1    P     P_3+3 0.171820 0.553000 0.158080 0.502733
P2    P     P_3+3 0.171820 0.447000 0.658080 0.501469
P3    P     P_3+3 0.671820 0.053000 0.158080 0.502562
P4    P     P_3+3 0.671820 0.947000 0.658080 0.502695
O1    O     O_2   0.163830 0.569270 0.980510 -0.370520
O2    O     O_2   0.163830 0.430730 0.480510 -0.369892
O3    O     O_2   0.663830 0.069270 0.980510 -0.369547
O4    O     O_2   0.663830 0.930730 0.480510 -0.371868
O5    O     O_3   0.095420 0.524330 0.188510 -0.405709
O6    O     O_3   0.095420 0.475670 0.688510 -0.405607
O7    O     O_3   0.595420 0.024330 0.188510 -0.406300
O8    O     O_3   0.595420 0.975670 0.688510 -0.405280
O9    O     O_3   0.028940 0.612400 0.656050 -0.402401
O10   O     O_3   0.028940 0.387600 0.156050 -0.401743
O11   O     O_3   0.528940 0.112400 0.656050 -0.402197
O12   O     O_3   0.528940 0.887600 0.156050 -0.401918
O13   O     O_2   0.155157 0.656124 0.861232 -0.436588
O14   O     O_2   0.155298 0.344028 0.361780 -0.436338
O15   O     O_2   0.655333 0.156045 0.861264 -0.436680
O16   O     O_2   0.655287 0.844030 0.361788 -0.436667
O17   O     O_3   0.260282 0.516632 0.204666 -0.514985
O18   O     O_3   0.259987 0.483508 0.701879 -0.509709
O19   O     O_3   0.760373 0.016703 0.204237 -0.515636
O20   O     O_3   0.760004 0.983492 0.702031 -0.508220
O21   O     O_3   0.051208 0.713022 0.657939 -0.501932
O22   O     O_3   0.052264 0.287029 0.157660 -0.499850
O23   O     O_3   0.551753 0.213025 0.657836 -0.500305
O24   O     O_3   0.552245 0.787027 0.157669 -0.499894
H1    H     H_    0.955617 0.685766 0.744894 0.131631
H2    H     H_    0.955385 0.312715 0.243906 0.129681
H3    H     H_    0.455199 0.187050 0.744348 0.130180
H4    H     H_    0.455350 0.812696 0.243886 0.129650
C1    C     C_3   0.918646 0.752489 0.617010 -0.940084
C2    C     C_3   0.919911 0.247095 0.108195 -0.944987
C3    C     C_3   0.419276 0.252792 0.609489 -0.945498
C4    C     C_3   0.419880 0.747100 0.108034 -0.944397
H5    H     H_    0.852312 0.745582 0.610383 0.219478
H6    H     H_    0.853117 0.253631 0.097747 0.218638
H7    H     H_    0.352563 0.246174 0.599651 0.219121
H8    H     H_    0.353069 0.753643 0.097406 0.218582
H9    H     H_    0.943412 0.777029 0.720919 0.271685
H10   H     H_    0.943290 0.221936 0.210963 0.271332
H11   H     H_    0.442804 0.277903 0.712315 0.270254
H12   H     H_    0.443187 0.721941 0.210835 0.271256
P5    P     P_3+3 0.829210 0.554130 0.532500 0.474798
P6    P     P_3+3 0.829210 0.445870 0.032500 0.472981
P7    P     P_3+3 0.329210 0.054130 0.532500 0.474906
P8    P     P_3+3 0.329210 0.945870 0.032500 0.473030
P9    P     P_3+3 0.895719 0.657017 0.012650 0.444505
P10   P     P_3+3 0.895628 0.343027 0.512334 0.446208
P11   P     P_3+3 0.395618 0.156983 0.012464 0.445402
P12   P     P_3+3 0.395605 0.843040 0.512307 0.446575
O25   O     O_2   0.837400 0.570350 0.710350 -0.357354
O26   O     O_2   0.837400 0.429650 0.210350 -0.356974
O27   O     O_2   0.337400 0.070350 0.710350 -0.357243
O28   O     O_2   0.337400 0.929650 0.210350 -0.357044
O29   O     O_3   0.972820 0.612580 0.035550 -0.381431
O30   O     O_3   0.972820 0.387420 0.535550 -0.379683
O31   O     O_3   0.472820 0.112580 0.035550 -0.380488
O32   O     O_3   0.472820 0.887420 0.535550 -0.379898
O33   O     O_2   0.834032 0.649173 0.844769 -0.421481
O34   O     O_2   0.834315 0.350669 0.343899 -0.420801
O35   O     O_2   0.334175 0.149284 0.844215 -0.420851
O36   O     O_2   0.334336 0.850675 0.343819 -0.420944
O37   O     O_3   0.740957 0.517658 0.490453 -0.541102
O38   O     O_3   0.741075 0.482456 0.990835 -0.545184
O39   O     O_3   0.240968 0.017651 0.490469 -0.541327
O40   O     O_3   0.241044 0.982429 0.990727 -0.545166
O41   O     O_3   0.936439 0.715044 0.996411 -0.596440
O42   O     O_3   0.936247 0.284872 0.497773 -0.596778
O43   O     O_3   0.436133 0.215139 0.997479 -0.597466
O44   O     O_3   0.436202 0.784873 0.497843 -0.596158
C5    C     C_3   0.020495 0.718185 0.083507 0.822840
C6    C     C_3   0.020733 0.281917 0.582327 0.815979
C7    C     C_3   0.520513 0.218218 0.082629 0.818558
C8    C     C_3   0.520705 0.781924 0.582299 0.815967
C9    C     C_3   0.059649 0.763571 0.032097 -0.991015
C10   C     C_3   0.058908 0.236190 0.530709 -0.978234
C11   C     C_3   0.558741 0.263877 0.030734 -0.985046
C12   C     C_3   0.558853 0.736187 0.530681 -0.977954
H13   H     H_    0.067699 0.759933 0.907266 0.265952
H14   H     H_    0.063718 0.238864 0.403526 0.263799
H15   H     H_    0.563933 0.261027 0.903832 0.264934
H16   H     H_    0.563594 0.738838 0.403446 0.263757
H17   H     H_    0.020503 0.795582 0.037302 0.281372
H18   H     H_    0.020898 0.204211 0.542459 0.281921
H19   H     H_    0.520544 0.295865 0.041524 0.279150
H20   H     H_    0.520864 0.704211 0.542579 0.282059
C13   C     C_3   0.760601 0.527326 0.065339 0.394438
C14   C     C_3   0.760211 0.472807 0.565269 0.377640
C15   C     C_3   0.260459 0.027276 0.065434 0.394700
C16   C     C_3   0.260197 0.972809 0.565353 0.377658
H21   H     H_    0.789918 0.523055 0.197412 0.100783
H22   H     H_    0.789005 0.477137 0.697549 0.101410
H23   H     H_    0.289695 0.022966 0.197523 0.100972
H24   H     H_    0.288975 0.977150 0.697617 0.101611
C17   C     C_3   0.680507 0.555522 0.045226 -0.869771
C18   C     C_3   0.680017 0.444621 0.543949 -0.833209
C19   C     C_3   0.180300 0.055416 0.045216 -0.870252
C20   C     C_3   0.179988 0.944651 0.544024 -0.833845
H25   H     H_    0.637413 0.535593 0.102465 0.288454
H26   H     H_    0.636426 0.464677 0.599649 0.289521
H27   H     H_    0.137155 0.035403 0.102098 0.288493
H28   H     H_    0.136404 0.964730 0.599658 0.289426
H29   H     H_    0.693037 0.591102 0.104586 0.205679
H30   H     H_    0.692277 0.409138 0.604152 0.198654
H31   H     H_    0.192709 0.090958 0.104872 0.205825
H32   H     H_    0.192202 0.909173 0.604271 0.198813
H33   H     H_    0.650633 0.560911 0.913480 0.269427
H34   H     H_    0.650823 0.439022 0.411998 0.273518
H35   H     H_    0.150540 0.060879 0.913459 0.269304
H36   H     H_    0.150812 0.939044 0.412084 0.273500
Ba1   Ba    Ba6+2 0.000400 0.534870 0.845190 1.575532
Ba2   Ba    Ba6+2 0.000400 0.465130 0.345190 1.576385
Ba3   Ba    Ba6+2 0.500400 0.034870 0.845190 1.575840
Ba4   Ba    Ba6+2 0.500400 0.965130 0.345190 1.576358
C21   C     C_3   0.242555 0.471279 0.133900 0.233796
C22   C     C_3   0.241261 0.528805 0.631447 0.245809
C23   C     C_3   0.742417 0.971008 0.136387 0.228728
C24   C     C_3   0.741376 0.028777 0.631482 0.244807
H37   H     H_    0.226494 0.474712 0.999235 0.096634
H38   H     H_    0.216030 0.525242 0.497826 0.086671
H39   H     H_    0.726415 0.973725 0.001543 0.096309
H40   H     H_    0.716290 0.025198 0.497824 0.085899
H41   H     H_    0.190956 0.454038 0.174255 0.074094
H42   H     H_    0.195918 0.547427 0.686567 0.077657
H43   H     H_    0.690759 0.954186 0.177679 0.077376
H44   H     H_    0.695959 0.047421 0.686346 0.077673
C25   C     C_3   0.319368 0.439494 0.189764 -0.067984
C26   C     C_3   0.320838 0.558639 0.666012 -0.099661
C27   C     C_3   0.819131 0.939301 0.194577 -0.065985
C28   C     C_3   0.820990 0.058582 0.666371 -0.099324
H45   H     H_    0.308606 0.403932 0.128951 0.030616
H46   H     H_    0.305721 0.596538 0.630183 0.044295
H47   H     H_    0.807641 0.902982 0.139831 0.030721
H48   H     H_    0.805942 0.096485 0.630526 0.043888
H49   H     H_    0.331450 0.433472 0.323759 0.154300
H50   H     H_    0.351012 0.558359 0.799062 0.166088
H51   H     H_    0.832434 0.935183 0.329467 0.158444
H52   H     H_    0.851046 0.058280 0.799481 0.164362
O45   O     O_3   0.904940 0.476110 0.001150 -0.412771
O46   O     O_3   0.904940 0.523890 0.501150 -0.412523
O47   O     O_3   0.404940 0.976110 0.001150 -0.412697
O48   O     O_3   0.404940 0.023890 0.501150 -0.412498
P13   P     P_3+3 0.103761 0.342767 0.181938 0.474790
P14   P     P_3+3 0.103304 0.657445 0.681615 0.473061
P15   P     P_3+3 0.603747 0.842763 0.181948 0.474282
P16   P     P_3+3 0.603486 0.157355 0.681646 0.474814
C29   C     C_3   0.965832 0.705006 0.638399 0.558103
C30   C     C_3   0.966654 0.294682 0.136136 0.551943
C31   C     C_3   0.466211 0.205251 0.636692 0.553769
C32   C     C_3   0.466634 0.794682 0.136097 0.551598
H53   H     H_    0.938858 0.682734 0.530145 0.110437
H54   H     H_    0.940230 0.317825 0.029821 0.112209
H55   H     H_    0.439733 0.182173 0.530268 0.111672
H56   H     H_    0.440233 0.817841 0.029812 0.112365
H57   H     H_    0.923013 0.770336 0.502196 0.287660
H58   H     H_    0.926531 0.230178 0.993369 0.287755
H59   H     H_    0.425542 0.269805 0.494564 0.287789
H60   H     H_    0.426579 0.730182 0.993263 0.287947
C33   C     C_2   0.862584 0.382271 0.787134 -0.465019
C34   C     C_2   0.862902 0.617853 0.287737 -0.464449
C35   C     C_2   0.362582 0.882271 0.787150 -0.466007
C36   C     C_2   0.362647 0.117761 0.287318 -0.464984
C37   C     C_R   0.146271 0.613565 0.416979 -0.473654
C38   C     C_R   0.147198 0.386765 0.918082 -0.470398
C39   C     C_R   0.646417 0.113521 0.417034 -0.473285
C40   C     C_R   0.647209 0.886783 0.918148 -0.470423
C41   C     C_2   0.755024 0.356569 0.921958 -0.274621
C42   C     C_2   0.755434 0.643620 0.422754 -0.274627
C43   C     C_2   0.254906 0.856636 0.921764 -0.274304
C44   C     C_2   0.255168 0.143511 0.422298 -0.273583
C45   C     C_2   0.816079 0.390006 0.912076 0.263462
C46   C     C_2   0.816312 0.610082 0.412519 0.263466
C47   C     C_2   0.316063 0.890018 0.912056 0.263558
C48   C     C_2   0.316162 0.110034 0.412273 0.263563
C49   C     C_2   0.838592 0.347533 0.673409 0.267556
C50   C     C_2   0.839039 0.652690 0.174305 0.269839
C51   C     C_2   0.338521 0.847575 0.673296 0.268900
C52   C     C_2   0.338689 0.152534 0.173700 0.268950
C53   C     C_3   0.764147 0.319978 0.668975 -0.055461
C54   C     C_3   0.764693 0.680324 0.170088 -0.056516
C55   C     C_3   0.263963 0.820103 0.668633 -0.054301
C56   C     C_3   0.264341 0.180181 0.169429 -0.056558
C57   C     C_3   0.748144 0.313023 0.830255 0.037469
C58   C     C_3   0.748763 0.687234 0.331429 0.038175
C59   C     C_3   0.247870 0.813134 0.829817 0.037202
C60   C     C_3   0.248314 0.187079 0.330697 0.037552
C61   C     C_2   0.754090 0.274733 0.564909 -0.025539
C62   C     C_2   0.754765 0.725595 0.066194 -0.024233
C63   C     C_2   0.253794 0.774886 0.564426 -0.032545
C64   C     C_2   0.254486 0.225487 0.065672 -0.023649
C65   C     C_2   0.243557 0.730448 0.619655 -0.104408
C66   C     C_2   0.244665 0.269943 0.121275 -0.104432
C67   C     C_2   0.744072 0.230279 0.620235 -0.102803
C68   C     C_2   0.744861 0.770051 0.121634 -0.100887
C69   C     C_R   0.261653 0.683975 0.368545 0.051182
C70   C     C_R   0.262956 0.316456 0.870396 0.046447
C71   C     C_R   0.762048 0.183834 0.369001 0.051225
C72   C     C_R   0.763098 0.816525 0.870668 0.047002
C73   C     C_R   0.224800 0.688563 0.508959 -0.040545
C74   C     C_R   0.226015 0.311880 0.010714 -0.032276
C75   C     C_R   0.725239 0.188401 0.509480 -0.035070
C76   C     C_R   0.726094 0.811933 0.010888 -0.032426
C77   C     C_R   0.241870 0.641856 0.260011 -0.229822
C78   C     C_R   0.242896 0.358452 0.761325 -0.255406
C79   C     C_R   0.742091 0.141784 0.260198 -0.230198
C80   C     C_R   0.742982 0.858495 0.761506 -0.251348
C81   C     C_R   0.187223 0.608695 0.281640 0.295793
C82   C     C_R   0.187990 0.391516 0.782535 0.298268
C83   C     C_R   0.687330 0.108672 0.281666 0.296352
C84   C     C_R   0.688011 0.891531 0.782607 0.300136
C85   C     C_R   0.166253 0.650782 0.531811 0.293399
C86   C     C_R   0.167180 0.349588 0.033047 0.292321
C87   C     C_R   0.666499 0.150680 0.532020 0.294017
C88   C     C_R   0.667153 0.849593 0.033049 0.292128
H61   H     H_    0.715345 0.362367 0.003978 0.182696
H62   H     H_    0.715724 0.637833 0.504713 0.183985
H63   H     H_    0.215213 0.862457 0.003740 0.182906
H64   H     H_    0.215515 0.137726 0.504368 0.183786
H65   H     H_    0.273654 0.637624 0.164060 0.177520
H66   H     H_    0.274542 0.362630 0.665139 0.178089
H67   H     H_    0.773863 0.137546 0.164232 0.177358
H68   H     H_    0.774647 0.862680 0.665351 0.177621
H69   H     H_    0.914669 0.405511 0.785880 0.187858
H70   H     H_    0.914859 0.594529 0.286204 0.186821
H71   H     H_    0.414742 0.905465 0.786040 0.188049
H72   H     H_    0.414671 0.094477 0.285916 0.187156
H73   H     H_    0.099736 0.587434 0.426879 0.175790
H74   H     H_    0.100489 0.412841 0.927570 0.175489
H75   H     H_    0.599800 0.087428 0.426799 0.175715
H76   H     H_    0.600521 0.912867 0.927675 0.175342
H77   H     H_    0.749020 0.279517 0.435413 0.162688
H78   H     H_    0.749683 0.720836 0.936674 0.162748
H79   H     H_    0.248924 0.779672 0.434986 0.161535
H80   H     H_    0.249422 0.220759 0.936137 0.163205
H81   H     H_    0.243697 0.724932 0.746580 0.151411
H82   H     H_    0.244963 0.275430 0.248292 0.149919
H83   H     H_    0.744401 0.224751 0.747223 0.150064
H84   H     H_    0.745164 0.775569 0.248626 0.149595
N1    N     N_R   0.391447 0.461857 0.151702 0.294246
O49   O     O_R   0.456035 0.472769 0.268730 -0.304020
O50   O     O_R   0.393560 0.468329 0.000417 -0.343123
N2    N     N_R   0.378215 0.539766 0.576453 0.287921
O51   O     O_R   0.412303 0.497776 0.612793 -0.293270
O52   O     O_R   0.399791 0.566178 0.467137 -0.345971
N3    N     N_R   0.890553 0.960343 0.150116 0.292091
O53   O     O_R   0.955132 0.973556 0.263161 -0.303095
O54   O     O_R   0.892096 0.963300 0.997515 -0.343675
N4    N     N_R   0.878464 0.039691 0.577064 0.287180
O55   O     O_R   0.912655 0.997744 0.613780 -0.295400
O56   O     O_R   0.900050 0.066062 0.467658 -0.346417
H85   H     H_    0.122296 0.769406 0.114212 0.235341
H86   H     H_    0.122844 0.231032 0.608102 0.236070
H87   H     H_    0.622529 0.269152 0.108642 0.236721
H88   H     H_    0.622817 0.731043 0.607973 0.235869
H89   H     H_    0.056926 0.687198 0.056074 0.053990
H90   H     H_    0.056625 0.312708 0.551858 0.058022
H91   H     H_    0.556609 0.187384 0.053026 0.056060
H92   H     H_    0.556581 0.812708 0.551731 0.057649
N5    N     N_R   0.026512 0.719699 0.257993 0.208854
O57   O     O_R   0.038107 0.759920 0.340123 -0.399903
O58   O     O_R   0.013146 0.680543 0.329555 -0.495906
N6    N     N_R   0.028502 0.281171 0.757669 0.209284
O59   O     O_R   0.013685 0.320326 0.827628 -0.494020
O60   O     O_R   0.050467 0.242609 0.845279 -0.404299
N7    N     N_R   0.527857 0.219208 0.257800 0.208933
O61   O     O_R   0.549246 0.257935 0.344846 -0.403449
O62   O     O_R   0.512973 0.180142 0.328108 -0.494852
N8    N     N_R   0.528536 0.781202 0.757667 0.209221
O63   O     O_R   0.513672 0.820356 0.827577 -0.494167
O64   O     O_R   0.550610 0.742665 0.845345 -0.404318
H93   H     H_    0.802520 0.547576 0.005964 0.112722
H94   H     H_    0.802492 0.452521 0.506798 0.112749
H95   H     H_    0.302404 0.047578 0.006263 0.112190
H96   H     H_    0.302473 0.952505 0.506936 0.112633

loop_
_geom_bond_atom_site_label_1
_geom_bond_atom_site_label_2
_geom_bond_distance
_ccdc_geom_bond_type
C79   C83   1.341319 D    
C79   H67   1.082111 S    
C18   H34   1.111024 S    
C70   C78   1.473596 S    
N7    O62   1.292221 A    
C40   C84   1.479636 S    
C29   H53   1.103463 S    
C69   C77   1.473501 S    
C2    H10   1.107597 S    
C39   C87   1.400847 A    
P4    O4    1.542472 D    
O14   P13   1.548440 D    
C35   C47   1.476063 S    
C23   H39   1.107040 S    
C11   H19   1.111106 S    
C2    C30   1.523866 S    
C28   N4    1.459814 S    
C1    C29   1.524255 S    
C7    N7    1.456490 S    
N2    O51   1.301030 A    
P1    O17   1.750076 S    
C8    H92   1.111688 S    
O10   P13   1.738368 S    
C3    C31   1.523880 S    
O12   P15   1.738276 S    
P1    O1    1.542456 D    
O5    Ba2   2.835353 S    
Ba2   O46   2.829206 S    
C75   C87   1.480262 S    
C14   C18   1.521757 S    
C44   C60   1.427056 A    
C41   H61   1.084979 S    
P6    O38   1.749229 S    
P3    O3    1.542456 D    
C23   H43   1.111503 S    
C22   H38   1.107172 S    
N5    O57   1.305119 A    
P4    O20   1.748585 S    
C5    H89   1.111954 S    
H2    C30   1.097543 S    
C67   C75   1.478046 S    
C63   H79   1.085889 S    
Ba3   Ba4   4.653999 S    
C37   H73   1.081943 S    
C16   H24   1.107778 S    
O40   C15   1.398700 S    
C65   C73   1.477848 S    
Ba1   O46   2.961556 S    
C74   C86   1.480355 S    
O21   C29   1.409831 S    
N1    O49   1.302620 A    
C54   C58   1.467661 A    
O3    Ba3   2.844333 S    
C25   N1    1.460078 S    
C10   H14   1.101649 S    
O2    Ba2   2.843991 S    
O17   C21   1.395368 S    
C39   H75   1.081963 S    
P12   O32   1.758954 S    
Ba4   O48   2.829206 S    
P5    O37   1.749229 S    
P3    O19   1.750080 S    
P8    C47   1.840054 S    
C20   H28   1.110959 S    
O9    Ba1   2.796194 S    
C32   H56   1.103603 S    
C5    N5    1.455038 S    
O23   P16   1.758765 S    
C11   H15   1.101665 S    
C39   C83   1.479779 S    
C8    N8    1.456662 S    
P2    O18   1.748628 S    
C23   C27   1.529746 S    
C30   H54   1.103613 S    
C56   C64   1.520468 S    
O41   C5    1.413266 S    
O21   P14   1.759303 S    
C62   H78   1.085835 S    
C31   H55   1.103472 S    
P4    O8    1.578414 S    
C3    H11   1.107585 S    
C34   C46   1.476152 S    
C26   N2    1.459826 S    
P7    C48   1.840283 S    
C44   H64   1.084965 S    
C80   C84   1.341220 D    
P8    Ba4   3.411985 S    
O8    Ba3   2.835012 S    
C17   H29   1.105344 S    
C21   C25   1.530183 S    
C10   H18   1.111088 S    
C6    H90   1.111689 S    
P7    O27   1.543795 D    
C9    H17   1.111267 S    
C72   C80   1.473527 S    
P9    O41   1.769374 S    
C13   H93   1.111573 S    
C42   C58   1.427093 A    
P2    O2    1.542472 D    
P11   O43   1.769462 S    
O9    P14   1.737869 S    
C71   C75   1.474361 S    
C35   H71   1.085178 S    
O12   Ba4   2.796054 S    
C6    N6    1.456626 S    
P7    O39   1.749202 S    
C34   H70   1.085191 S    
C1    H57   1.109518 S    
C54   C62   1.520256 S    
C14   H22   1.107915 S    
P6    O45   1.594633 S    
C33   H69   1.085178 S    
N3    O54   1.300578 A    
P11   O31   1.759016 S    
P3    C83   1.849411 S    
O37   C14   1.398744 S    
C64   H80   1.085915 S    
Ba3   O47   2.829547 S    
P2    C82   1.848883 S    
P9    O33   1.545606 D    
P6    Ba2   3.411985 S    
O20   C24   1.394518 S    
P1    C81   1.849840 S    
C12   H16   1.101675 S    
P10   O30   1.758952 S    
Ba2   O45   2.961495 S    
C4    H8    1.110488 S    
P10   C49   1.852512 S    
P1    O5    1.578656 S    
C36   H72   1.085195 S    
C19   H27   1.110862 S    
P12   O36   1.545600 D    
C53   C61   1.520410 S    
C27   H51   1.112479 S    
C53   C57   1.467833 A    
C80   H68   1.082162 S    
N6    O59   1.292369 A    
O29   Ba1   2.801282 S    
N4    O55   1.301015 A    
O10   Ba2   2.796054 S    
C15   H23   1.107733 S    
P7    O48   1.594385 S    
C1    H5    1.110741 S    
C56   C60   1.467669 A    
P8    O47   1.594633 S    
C13   C17   1.521325 S    
N1    O50   1.301947 A    
C51   C55   1.451901 A    
C10   H86   1.111582 S    
O22   P13   1.758857 S    
P7    Ba3   3.411817 S    
C63   C65   1.346950 D    
O42   C6    1.413476 S    
C22   C26   1.530131 S    
C55   C59   1.467710 A    
C72   C76   1.474461 S    
C40   H76   1.081962 S    
Ba4   O47   2.961495 S    
C17   H33   1.110808 S    
C68   C76   1.477954 S    
C78   C82   1.341235 D    
O25   Ba1   2.847442 S    
Ba1   O45   2.829547 S    
H4    C32   1.097530 S    
C77   C81   1.341336 D    
C28   H48   1.107787 S    
O22   C30   1.409810 S    
C19   H35   1.110802 S    
P12   O44   1.769324 S    
P6    O26   1.543778 D    
C71   C79   1.473483 S    
H3    C31   1.097252 S    
O28   Ba4   2.847795 S    
P6    C45   1.840244 S    
P11   O35   1.545621 D    
O44   C8    1.413489 S    
C14   H94   1.111801 S    
C66   H82   1.084321 S    
C69   C73   1.474359 S    
O7    Ba4   2.835353 S    
C73   C85   1.480026 S    
H1    C29   1.097528 S    
C50   C54   1.451754 A    
O6    Ba1   2.835012 S    
C27   N3    1.459362 S    
C38   C86   1.400897 A    
C25   H45   1.108231 S    
C70   C74   1.474521 S    
C2    H58   1.109723 S    
N6    O60   1.302469 A    
C7    H91   1.111798 S    
P15   C88   1.847618 S    
N4    O56   1.300877 A    
C2    H6    1.110459 S    
C49   C53   1.451898 A    
C9    H85   1.111787 S    
C35   C51   1.351044 D    
P5    O46   1.594385 S    
O16   P15   1.548447 D    
O11   Ba3   2.796194 S    
C4    H12   1.107618 S    
O38   C13   1.398802 S    
C16   H96   1.111697 S    
C33   C49   1.351053 D    
P11   C52   1.852361 S    
C26   H50   1.111610 S    
P16   C87   1.847358 S    
C52   C56   1.451897 A    
C61   H77   1.085748 S    
C16   C20   1.521577 S    
N5    O58   1.292154 A    
Ba1   Ba2   4.653999 S    
C68   H84   1.084219 S    
C37   C85   1.401092 A    
O18   C22   1.394626 S    
Ba3   O48   2.961556 S    
O24   P15   1.758850 S    
C41   C45   1.397220 A    
C12   H88   1.111627 S    
C18   H30   1.105493 S    
O1    Ba1   2.844333 S    
C24   C28   1.530114 S    
P9    C50   1.852325 S    
C17   H25   1.110864 S    
P4    Ba4   3.410458 S    
C4    C32   1.523869 S    
C8    C12   1.533816 S    
C33   C45   1.476102 S    
O23   C31   1.409708 S    
P8    O40   1.749189 S    
C36   C52   1.350986 D    
O31   Ba3   2.801282 S    
P9    O29   1.758611 S    
N3    O53   1.300848 A    
C24   H44   1.111476 S    
C20   H36   1.110907 S    
C55   C63   1.520391 S    
C42   C46   1.397343 A    
P8    O28   1.543778 D    
C28   H52   1.111683 S    
C19   H31   1.105296 S    
C76   C88   1.480199 S    
O4    Ba4   2.843991 S    
C27   H47   1.107404 S    
O15   P16   1.548472 D    
P4    C84   1.848844 S    
C43   C59   1.426890 A    
N7    O61   1.302718 A    
C1    H9    1.107503 S    
C40   C88   1.400783 A    
O24   C32   1.409786 S    
C15   H95   1.111582 S    
O13   P14   1.548505 D    
P10   O42   1.769316 S    
C67   H83   1.084114 S    
C41   C57   1.427000 A    
C12   H20   1.111114 S    
O32   Ba4   2.801414 S    
C18   H26   1.111049 S    
P5    C46   1.840377 S    
C38   C82   1.479587 S    
O43   C7    1.413454 S    
C62   C68   1.346851 D    
P2    Ba2   3.410458 S    
C37   C81   1.480042 S    
O11   P16   1.738122 S    
O27   Ba3   2.847442 S    
C78   H66   1.082154 S    
P10   O34   1.545610 D    
C3    H7    1.110470 S    
O26   Ba2   2.847795 S    
C61   C67   1.346921 D    
C77   H65   1.082111 S    
O39   C16   1.398689 S    
N2    O52   1.300840 A    
C36   C48   1.475966 S    
N8    O64   1.302442 A    
P1    Ba1   3.410617 S    
C13   H21   1.107747 S    
C26   H46   1.107802 S    
C3    H59   1.109750 S    
P12   C51   1.852514 S    
P14   C85   1.847781 S    
P3    O7    1.578656 S    
C24   H40   1.107202 S    
C4    H60   1.109737 S    
P5    O25   1.543795 D    
P13   C86   1.847699 S    
C20   H32   1.105439 S    
P5    Ba1   3.411817 S    
C25   H49   1.113172 S    
C34   C50   1.351057 D    
C66   C74   1.478144 S    
C38   H74   1.081955 S    
C9    H13   1.102459 S    
C6    C10   1.533806 S    
O30   Ba2   2.801414 S    
C5    C9    1.533511 S    
N8    O63   1.292375 A    
O19   C23   1.395368 S    
P3    Ba3   3.410617 S    
C21   H37   1.107088 S    
C22   H42   1.111479 S    
C15   C19   1.521342 S    
C21   H41   1.111605 S    
C7    C11   1.533782 S    
C65   H81   1.084315 S    
C43   H63   1.084963 S    
C44   C48   1.397221 A    
C11   H87   1.111600 S    
C64   C66   1.347086 D    
C42   H62   1.084967 S    
C43   C47   1.397090 A    
P2    O6    1.578414 S    
