data_mof_unit_33776.cif
_audit_creation_date              2012-12-11T17:07:36-0500
_audit_creation_method            fapswitch 2.2
_symmetry_space_group_name_H-M    P1
_symmetry_Int_Tables_number       1
_space_group_crystal_system       triclinic
_cell_length_a                    6.960317
_cell_length_b                    14.521213
_cell_length_c                    16.084268
_cell_angle_alpha                 89.967042
_cell_angle_beta                  90.002134
_cell_angle_gamma                 90.0193
_cell_volume                      1625.67272497

loop_
_atom_site_label
_atom_site_type_symbol
_atom_type_description
_atom_site_fract_x
_atom_site_fract_y
_atom_site_fract_z
_atom_type_partial_charge
O1    O     O_R   0.505720 0.583900 0.413310 -0.533441
O2    O     O_R   0.175940 0.594920 0.586080 -0.547364
O3    O     O_R   0.005640 0.416100 0.586690 -0.538336
C1    C     C_R   0.344848 0.616993 0.614797 0.679147
O4    O     O_R   0.176000 0.594930 0.413930 -0.525919
O5    O     O_R   0.005700 0.416110 0.413310 -0.540312
C2    C     C_R   0.344797 0.616934 0.385177 0.715297
O6    O     O_R   0.505660 0.583890 0.586690 -0.543831
O7    O     O_3   0.339200 0.441330 0.500000 -0.372536
V1    V     V_3+5 0.064350 0.510880 0.500000 1.440212
O8    O     O_R   0.675980 0.405080 0.413920 -0.536775
C3    C     C_R   0.845026 0.383177 0.385058 0.747588
O9    O     O_R   0.675920 0.405070 0.586070 -0.541299
C4    C     C_R   0.844630 0.383183 0.614626 0.683287
V2    V     V_3+5 0.564340 0.489120 0.500000 1.437861
O10   O     O_3   0.839360 0.558670 0.500000 -0.371198
H1    H     H_    0.161278 0.100492 0.518456 0.107317
C5    C     C_R   0.686733 0.422238 0.777637 -0.148367
C6    C     C_R   0.613215 0.444154 0.855688 -0.120749
C7    C     C_R   0.627974 0.381594 0.920731 -0.112511
C8    C     C_R   0.715798 0.296543 0.908130 -0.132800
C9    C     C_R   0.789768 0.271756 0.829216 0.069120
C10   C     C_R   0.775922 0.336200 0.762630 0.070460
C11   C     C_R   0.880017 0.185278 0.816536 -0.186842
C12   C     C_R   0.957240 0.163546 0.737247 0.070898
C13   C     C_R   0.944383 0.228191 0.670779 0.070092
C14   C     C_R   0.854235 0.314705 0.683463 -0.183579
C15   C     C_R   0.044084 0.077014 0.721994 -0.143817
C16   C     C_R   0.117873 0.055125 0.643983 -0.130620
C17   C     C_R   0.105169 0.118101 0.579177 -0.124681
C18   C     C_R   0.018633 0.203436 0.591910 -0.132002
H2    H     H_    0.673419 0.473820 0.729593 0.110658
H3    H     H_    0.545645 0.510352 0.865850 0.120069
H4    H     H_    0.572064 0.399228 0.981480 0.122193
H5    H     H_    0.726463 0.251135 0.961245 0.106070
H6    H     H_    0.054740 0.024941 0.769765 0.103127
H7    H     H_    0.183907 0.988602 0.633646 0.113522
H8    H     H_    0.008999 0.249045 0.538902 0.100359
C19   C     C_R   0.727398 0.182904 0.241220 0.099800
C20   C     C_R   0.881944 0.182612 0.185365 -0.111715
C21   C     C_R   0.033560 0.244458 0.201094 -0.179065
H9    H     H_    0.156088 0.246723 0.159926 0.136093
C22   C     C_R   0.022383 0.308555 0.266681 -0.146726
H10   H     H_    0.137252 0.357996 0.274209 0.138132
C23   C     C_R   0.858904 0.313009 0.318330 -0.109090
C24   C     C_R   0.715905 0.246577 0.305905 0.085560
C25   C     C_3   0.505319 0.259125 0.293886 -0.404412
C26   C     C_3   0.517736 0.189427 0.223696 -0.396097
H11   H     H_    0.469603 0.329770 0.272245 0.179737
H12   H     H_    0.420868 0.234127 0.348049 0.168336
H13   H     H_    0.488552 0.219423 0.161355 0.172651
H14   H     H_    0.441118 0.123970 0.237402 0.163198
C27   C     C_R   0.509831 0.684145 0.740223 0.094075
C28   C     C_R   0.353341 0.682602 0.685368 -0.105156
C29   C     C_R   0.200665 0.743496 0.701795 -0.183056
H15   H     H_    0.077433 0.745161 0.661048 0.132796
C30   C     C_R   0.211447 0.807406 0.767481 -0.181359
H16   H     H_    0.095194 0.855806 0.775702 0.124203
C31   C     C_R   0.375924 0.812933 0.818381 -0.108436
C32   C     C_R   0.520999 0.747873 0.804962 0.106742
C33   C     C_3   0.730033 0.763260 0.791196 -0.406635
C34   C     C_3   0.718181 0.693853 0.720883 -0.407515
H17   H     H_    0.818152 0.739060 0.844542 0.180448
H18   H     H_    0.760966 0.834461 0.769556 0.165576
H19   H     H_    0.800288 0.629805 0.733647 0.169279
H20   H     H_    0.742565 0.724620 0.658452 0.168283
C35   C     C_R   0.506291 0.682096 0.258150 0.088235
C36   C     C_R   0.352785 0.682412 0.314522 -0.168566
C37   C     C_R   0.201841 0.744742 0.299239 -0.111998
H21   H     H_    0.079889 0.747320 0.340715 0.124244
C38   C     C_R   0.213027 0.808901 0.233669 -0.184572
H22   H     H_    0.098671 0.858655 0.226431 0.121019
C39   C     C_R   0.375977 0.813001 0.181687 -0.100377
C40   C     C_R   0.518119 0.746058 0.193629 0.019138
C41   C     C_3   0.729310 0.757681 0.204726 -0.453648
C42   C     C_3   0.716408 0.687743 0.274797 0.505400
H23   H     H_    0.766702 0.828024 0.226559 0.114649
H24   H     H_    0.811887 0.732949 0.149957 0.209920
H25   H     H_    0.750591 0.715368 0.337491 0.019244
O11   O     O_R   0.229140 0.916090 0.913340 -0.541968
O12   O     O_R   0.558860 0.905090 0.086080 -0.538129
O13   O     O_R   0.729100 0.083920 0.086690 -0.539676
C43   C     C_R   0.389834 0.883194 0.114973 0.707397
O14   O     O_R   0.558860 0.905090 0.913930 -0.539081
O15   O     O_R   0.729100 0.083920 0.913310 -0.536149
C44   C     C_R   0.389766 0.883198 0.885048 0.700213
O16   O     O_R   0.229140 0.916080 0.086720 -0.540055
O17   O     O_3   0.395570 0.058660 0.000020 -0.369168
V3    V     V_3+5 0.670450 0.989140 0.000000 1.405677
O18   O     O_R   0.058810 0.094980 0.913910 -0.537771
C45   C     C_R   0.890017 0.116892 0.885414 0.695540
O19   O     O_R   0.058810 0.094980 0.086060 -0.544306
C46   C     C_R   0.890010 0.117075 0.114749 0.684325
V4    V     V_3+5 0.170450 0.010950 0.999970 1.404551
O20   O     O_3   0.895460 0.941370 0.999990 -0.369302
F1    F     F_    0.808306 0.605878 0.255835 -0.670727

loop_
_geom_bond_atom_site_label_1
_geom_bond_atom_site_label_2
_ccdc_geom_bond_type
C43   O16   A    
C29   H15   S    
C39   C40   A    
C6    C7    A    
C42   H25   S    
C20   C46   S    
C41   C42   S    
O15   C45   A    
C25   H11   S    
C27   C28   A    
C12   C15   A    
C13   C14   A    
O13   V3    S    
C15   C16   A    
O14   C44   A    
O5    C3    A    
C17   C18   A    
C30   C31   A    
V2    O10   S    
O16   V4    S    
C37   C38   A    
C5    C6    A    
C21   H9    S    
C33   H17   S    
O11   C44   A    
C2    C36   S    
C24   C25   S    
O8    V2    S    
C26   H13   S    
C36   C37   A    
O1    V2    S    
C10   C14   A    
C4    C14   S    
O7    V1    S    
O18   C45   A    
C1    O6    A    
O12   V3    S    
C13   C18   A    
O13   C46   A    
C8    C9    A    
H1    C17   S    
C21   C22   A    
C37   H21   S    
O12   C43   A    
C27   C32   A    
O18   V4    S    
C25   H12   S    
O17   V4    S    
C40   C41   S    
C34   H20   S    
C5    C10   A    
C11   C12   A    
C6    H3    S    
C19   C20   A    
O4    C2    A    
O15   V3    S    
C12   C13   A    
C23   C24   A    
C35   C36   A    
C32   C33   S    
V3    O20   S    
C33   H18   S    
O2    C1    A    
C22   H10   S    
C31   C32   A    
C16   C17   A    
C41   H23   S    
C27   C34   S    
C25   C26   S    
O19   V4    S    
V4    O20   S    
C35   C40   A    
O17   V3    S    
C22   C23   A    
O3    C4    A    
C19   C24   A    
C20   C21   A    
O6    V2    S    
O9    V2    S    
C9    C11   A    
C5    H2    S    
O14   V3    S    
O11   V4    S    
O2    V1    S    
C11   C45   S    
C38   C39   A    
C28   C29   A    
C34   H19   S    
C1    C28   S    
O1    C2    A    
C3    C23   S    
O5    V1    S    
O8    C3    A    
C8    H5    S    
C18   H8    S    
C29   C30   A    
O7    V2    S    
C31   C44   S    
C7    H4    S    
O4    V1    S    
O3    V1    S    
V1    O10   S    
C42   F1    S    
C30   H16   S    
O19   C46   A    
C33   C34   S    
C41   H24   S    
C26   H14   S    
C38   H22   S    
C7    C8    A    
C15   H6    S    
C16   H7    S    
C9    C10   A    
C35   C42   S    
O9    C4    A    
C39   C43   S    
C19   C26   S    
