data_mof_unit_30540.cif
_audit_creation_date              2012-12-10T19:46:35-0500
_audit_creation_method            fapswitch 2.2
_symmetry_space_group_name_H-M    P1
_symmetry_Int_Tables_number       1
_space_group_crystal_system       triclinic
_cell_length_a                    12.903705
_cell_length_b                    14.95838
_cell_length_c                    14.13168
_cell_angle_alpha                 90.358943
_cell_angle_beta                  96.862504
_cell_angle_gamma                 89.980183
_cell_volume                      2708.08088082

loop_
_atom_site_label
_atom_site_type_symbol
_atom_type_description
_atom_site_fract_x
_atom_site_fract_y
_atom_site_fract_z
_atom_type_partial_charge
C1    C     C_R   0.501053 0.327677 0.499790 0.877609
C2    C     C_R   0.500829 0.672261 0.500415 0.877232
C3    C     C_R   0.507938 0.231944 0.499645 -0.045790
C4    C     C_R   0.507498 0.767882 0.502060 -0.043328
C5    C     C_R   0.561315 0.189017 0.431814 -0.232335
C6    C     C_R   0.564264 0.810584 0.579893 -0.232839
C7    C     C_R   0.570845 0.096330 0.431689 0.110911
C8    C     C_R   0.574135 0.903220 0.581817 0.110417
C9    C     C_R   0.524794 0.048079 0.501845 0.087623
C10   C     C_R   0.524521 0.951652 0.503261 0.086969
C11   C     C_R   0.414798 0.540951 0.096666 0.019797
C12   C     C_R   0.577546 0.550891 0.903103 0.019786
C13   C     C_R   0.419120 0.539308 0.197205 -0.031637
C14   C     C_R   0.573783 0.548550 0.802591 -0.031567
C15   C     C_R   0.578780 0.460356 0.211684 0.005076
C16   C     C_R   0.428184 0.451555 0.788380 0.007518
C17   C     C_R   0.579098 0.460556 0.112414 -0.318278
C18   C     C_R   0.427894 0.451554 0.887650 -0.318106
C19   C     C_R   0.498067 0.502025 0.053050 0.109663
C20   C     C_R   0.501428 0.502268 0.946862 0.108636
C21   C     C_R   0.298012 0.500157 0.481638 0.889151
C22   C     C_R   0.701987 0.500152 0.518363 0.887546
C23   C     C_R   0.813931 0.500707 0.529130 -0.051493
C24   C     C_R   0.186062 0.500623 0.470869 -0.052293
C25   C     C_R   0.021011 0.499480 0.371897 -0.226659
C26   C     C_R   0.978973 0.502942 0.628098 -0.227041
C27   C     C_R   0.128889 0.499583 0.380150 -0.208808
C28   C     C_R   0.871097 0.502360 0.619844 -0.208639
C29   C     C_R   0.136088 0.502009 0.553203 -0.286391
C30   C     C_R   0.863906 0.499843 0.446796 -0.286143
C31   C     C_R   0.028950 0.501876 0.545665 0.189071
C32   C     C_R   0.971038 0.500443 0.454332 0.189674
C33   C     C_R   0.469273 0.091755 0.567655 -0.206597
C34   C     C_R   0.465328 0.908149 0.427226 -0.205478
C35   C     C_R   0.462400 0.183584 0.567728 -0.201984
C36   C     C_R   0.458478 0.816315 0.425646 -0.202377
H1    H     H_    0.819764 0.498613 0.376455 0.155808
H2    H     H_    0.180239 0.503008 0.623545 0.158455
H3    H     H_    0.641741 0.428153 0.256236 0.124802
H4    H     H_    0.370874 0.412447 0.743802 0.125417
H5    H     H_    0.642340 0.427814 0.081918 0.141081
H6    H     H_    0.370558 0.411544 0.918252 0.141540
H7    H     H_    0.832684 0.503218 0.683947 0.157468
H8    H     H_    0.167295 0.498666 0.316043 0.155515
H9    H     H_    0.976892 0.498489 0.301624 0.134366
H10   H     H_    0.023089 0.504133 0.698371 0.135009
H11   H     H_    0.430095 0.054335 0.618397 0.137412
H12   H     H_    0.423481 0.945684 0.369394 0.137438
H13   H     H_    0.419766 0.216710 0.619485 0.149058
H14   H     H_    0.413235 0.783215 0.365960 0.148567
H15   H     H_    0.596420 0.228136 0.379676 0.145476
H16   H     H_    0.602034 0.771285 0.638393 0.142719
H17   H     H_    0.357290 0.569576 0.231816 0.123155
H18   H     H_    0.630222 0.585752 0.767766 0.120628
N1    N     N_R   0.500000 0.499980 0.252470 -0.097133
N2    N     N_R   0.500000 0.500020 0.747530 -0.097665
O1    O     O_R   0.500010 0.369070 0.579480 -0.620653
O2    O     O_R   0.499990 0.630930 0.420520 -0.618304
O3    O     O_R   0.500010 0.369060 0.420520 -0.620717
O4    O     O_R   0.499990 0.630940 0.579480 -0.622704
O5    O     O_R   0.346360 0.499990 0.566340 -0.629707
O6    O     O_R   0.653640 0.500010 0.433660 -0.632374
O7    O     O_R   0.346360 0.499980 0.407390 -0.633993
O8    O     O_R   0.653640 0.500020 0.592610 -0.632115
Zn1   Zn    Zn3+2 0.500000 0.500010 0.606140 0.939640
Zn2   Zn    Zn3+2 0.500000 0.499990 0.393860 0.939909
C37   C     C_3   0.626657 0.052247 0.354678 -0.433560
C38   C     C_3   0.730279 0.009079 0.394827 -0.346967
C39   C     C_3   0.788133 0.971838 0.315117 -0.875092
H19   H     H_    0.739834 0.920420 0.273381 0.263448
H20   H     H_    0.806740 0.026320 0.266817 0.257885
H21   H     H_    0.862284 0.940380 0.346338 0.249479
H22   H     H_    0.780617 0.059569 0.436022 0.219222
H23   H     H_    0.715826 0.953117 0.442574 0.230848
H24   H     H_    0.575404 0.001858 0.314891 0.201969
H25   H     H_    0.643348 0.102726 0.301018 0.198893
C40   C     C_3   0.634951 0.947017 0.668744 -0.433484
C41   C     C_3   0.737804 0.988299 0.646159 -0.346108
C42   C     C_3   0.801747 0.024099 0.736228 -0.877228
H26   H     H_    0.757059 0.076227 0.770337 0.264070
H27   H     H_    0.821971 0.969070 0.787565 0.258053
H28   H     H_    0.875174 0.054275 0.717521 0.248187
H29   H     H_    0.784603 0.936996 0.613011 0.219545
H30   H     H_    0.721795 0.044660 0.595979 0.230113
H31   H     H_    0.586643 0.998450 0.699371 0.202175
H32   H     H_    0.653407 0.896653 0.725898 0.199350
C43   C     C_3   0.320087 0.582624 0.039626 -0.439202
C44   C     C_3   0.345589 0.672388 0.996034 -0.337991
C45   C     C_3   0.247518 0.716141 0.945548 -0.883447
H33   H     H_    0.210940 0.672014 0.887399 0.262279
H34   H     H_    0.190466 0.729602 0.996861 0.257899
H35   H     H_    0.268489 0.780554 0.914124 0.248033
H36   H     H_    0.381315 0.718213 0.053046 0.215090
H37   H     H_    0.401379 0.662385 0.943060 0.230898
H38   H     H_    0.286460 0.535805 0.983017 0.205610
H39   H     H_    0.257779 0.593957 0.086415 0.192530
C46   C     C_3   0.664052 0.604063 0.959973 -0.439111
C47   C     C_3   0.623433 0.689955 0.002447 -0.338227
C48   C     C_3   0.712851 0.745895 0.052425 -0.884351
H40   H     H_    0.756623 0.707153 0.111010 0.264043
H41   H     H_    0.766958 0.766235 0.000926 0.257572
H42   H     H_    0.680996 0.807076 0.083216 0.246527
H43   H     H_    0.580355 0.730466 0.944868 0.214444
H44   H     H_    0.569845 0.673353 0.055508 0.231114
H45   H     H_    0.704894 0.562154 0.017203 0.206006
H46   H     H_    0.724064 0.622751 0.913277 0.192495

loop_
_geom_bond_atom_site_label_1
_geom_bond_atom_site_label_2
_ccdc_geom_bond_type
C14   N2    A    
C43   C44   S    
C4    C36   A    
C19   C20   S    
C24   C27   A    
C46   C47   S    
C40   C41   S    
C11   C19   A    
C18   H6    S    
O3    Zn2   S    
C2    O4    A    
C38   H23   S    
N2    Zn1   S    
C18   C20   A    
C7    C9    A    
C39   H20   S    
C24   C29   A    
C33   C35   A    
C27   H8    S    
O2    Zn2   S    
C31   C32   A    
C11   C43   S    
C38   C39   S    
C43   H38   S    
C29   H2    S    
C35   H13   S    
C45   H34   S    
C9    C10   S    
C21   O5    A    
C46   H45   S    
C25   C32   A    
O7    Zn2   S    
C40   H31   S    
C26   C31   A    
C9    C33   A    
C41   H29   S    
C13   H17   S    
C44   H37   S    
O6    Zn2   S    
C37   C38   S    
C23   C30   A    
C4    C6    A    
C5    C7    A    
C41   C42   S    
C6    C8    A    
C38   H22   S    
C7    C37   S    
C41   H30   S    
C30   H1    S    
C1    C3    S    
C15   N1    A    
C39   H21   S    
C2    C4    S    
C16   N2    A    
C1    O1    A    
C22   O6    A    
C48   H40   S    
C3    C35   A    
C43   H39   S    
C12   C20   A    
C10   C34   A    
C23   C28   A    
C45   H35   S    
C15   H3    S    
C12   C46   S    
C16   H4    S    
C46   H46   S    
C16   C18   A    
C48   H41   S    
C12   C14   A    
O4    Zn1   S    
C8    C40   S    
C33   H11   S    
C37   H24   S    
C25   H9    S    
N1    Zn2   S    
C36   H14   S    
C42   H27   S    
C15   C17   A    
C44   H36   S    
C14   H18   S    
O1    Zn1   S    
C3    C5    A    
C40   H32   S    
C42   H28   S    
C2    O2    A    
C25   C27   A    
C28   H7    S    
C26   C28   A    
O8    Zn1   S    
C1    O3    A    
C29   C31   A    
C30   C32   A    
C11   C13   A    
C47   H44   S    
C17   C19   A    
C34   C36   A    
C39   H19   S    
C17   H5    S    
C21   O7    A    
C26   H10   S    
C22   O8    A    
C42   H26   S    
O5    Zn1   S    
C48   H42   S    
C34   H12   S    
C44   C45   S    
C8    C10   A    
C47   C48   S    
C21   C24   S    
C22   C23   S    
C5    H15   S    
C37   H25   S    
C6    H16   S    
C45   H33   S    
C47   H43   S    
C13   N1    A    
