data_mof_unit_44627.cif
_audit_creation_date              2012-12-11T14:07:46-0500
_audit_creation_method            fapswitch 2.2
_symmetry_space_group_name_H-M    P1
_symmetry_Int_Tables_number       1
_space_group_crystal_system       triclinic
_cell_length_a                    19.864723
_cell_length_b                    17.171592
_cell_length_c                    15.312603
_cell_angle_alpha                 89.458311
_cell_angle_beta                  53.294388
_cell_angle_gamma                 89.533684
_cell_volume                      4187.37393922

loop_
_atom_site_label
_atom_site_type_symbol
_atom_type_description
_atom_site_fract_x
_atom_site_fract_y
_atom_site_fract_z
_atom_type_partial_charge
C1    C     C_R   0.380734 0.198480 0.988186 0.733159
C2    C     C_R   0.706828 0.849357 0.987569 -0.115844
C3    C     C_R   0.151979 0.681927 0.068706 -0.110444
C4    C     C_R   0.206828 0.349357 0.987569 -0.115846
C5    C     C_R   0.596280 0.815005 0.703502 -0.013737
C6    C     C_R   0.687146 0.143057 0.675361 -0.052588
C7    C     C_R   0.096280 0.315005 0.703502 -0.013737
C8    C     C_R   0.187146 0.643057 0.675361 -0.052589
C9    C     C_3   0.185135 0.128815 0.533454 0.486213
C10   C     C_3   0.371400 0.780987 0.480885 0.469458
C11   C     C_3   0.685135 0.628815 0.533454 0.486215
C12   C     C_R   0.351527 0.815160 0.030098 0.662830
C13   C     C_3   0.871399 0.280988 0.480886 0.469466
C14   C     C_3   0.119751 0.179739 0.632227 -0.531948
C15   C     C_3   0.304079 0.739728 0.589442 -0.548104
C16   C     C_3   0.619752 0.679739 0.632227 -0.531950
C17   C     C_3   0.804078 0.239729 0.589443 -0.548106
C18   C     C_3   0.295986 0.238792 0.449600 0.624747
C19   C     C_3   0.364846 0.675256 0.370715 0.674838
C20   C     C_3   0.795986 0.738792 0.449600 0.624748
C21   C     C_3   0.864846 0.175256 0.370715 0.674848
C22   C     C_3   0.684365 0.733295 0.417460 -0.053474
C23   C     C_R   0.880734 0.698480 0.988186 0.733159
C24   C     C_3   0.762608 0.288301 0.443248 -0.044048
C25   C     C_3   0.184365 0.233296 0.417459 -0.053472
C26   C     C_3   0.262609 0.788301 0.443248 -0.044049
C27   C     C_3   0.245191 0.182772 0.429908 -0.159977
C28   C     C_3   0.355303 0.764294 0.394154 -0.202481
C29   C     C_3   0.745191 0.682772 0.429908 -0.159979
C30   C     C_3   0.855302 0.264294 0.394154 -0.202510
C31   C     C_3   0.644595 0.766983 0.604404 -0.138574
C32   C     C_3   0.749546 0.185761 0.573570 -0.083097
C33   C     C_3   0.144595 0.266983 0.604404 -0.138574
C34   C     C_R   0.851527 0.315161 0.030099 0.662831
C35   C     C_3   0.249547 0.685761 0.573570 -0.083087
C36   C     C_3   0.737800 0.777376 0.559764 -0.683471
C37   C     C_3   0.811660 0.129412 0.478544 -0.706325
C38   C     C_3   0.237800 0.277376 0.559764 -0.683469
C39   C     C_3   0.311660 0.629412 0.478544 -0.706326
C40   C     C_R   0.409723 0.799502 0.203257 0.688910
C41   C     C_R   0.351940 0.173104 0.221428 0.609516
C42   C     C_R   0.909723 0.299502 0.203258 0.688909
C43   C     C_R   0.851940 0.673104 0.221428 0.609517
C44   C     C_3   0.632662 0.790397 0.514932 1.197024
C45   C     C_R   0.666596 0.913466 0.054861 0.759582
C46   C     C_3   0.700181 0.237686 0.544463 1.154258
C47   C     C_3   0.132663 0.290398 0.514932 1.197023
C48   C     C_3   0.200182 0.737687 0.544463 1.154239
C49   C     C_2   0.204017 0.735579 0.073150 -0.130070
C50   C     C_2   0.274461 0.307284 0.976148 -0.111422
C51   C     C_2   0.704016 0.235580 0.073150 -0.130067
C52   C     C_2   0.774461 0.807284 0.976148 -0.111423
C53   C     C_2   0.759724 0.276307 0.982397 0.605696
C54   C     C_2   0.819529 0.753852 0.898286 0.592920
C55   C     C_2   0.259724 0.776307 0.982397 0.605697
C56   C     C_R   0.633477 0.105332 0.104462 0.850972
C57   C     C_2   0.319529 0.253852 0.898286 0.592920
C58   C     C_R   0.342914 0.899723 0.928446 0.452410
C59   C     C_R   0.371454 0.114318 0.889924 0.487382
C60   C     C_R   0.842913 0.399724 0.928446 0.452409
C61   C     C_R   0.871454 0.614318 0.889924 0.487385
C62   C     C_R   0.361421 0.081044 0.316568 0.537899
C63   C     C_R   0.423470 0.888890 0.293136 0.479634
C64   C     C_R   0.861421 0.581044 0.316568 0.537890
C65   C     C_R   0.923470 0.388890 0.293136 0.479585
C66   C     C_R   0.354477 0.190483 0.924314 -0.384630
C67   C     C_R   0.166596 0.413466 0.054861 0.759584
C68   C     C_R   0.308456 0.832715 0.989186 -0.385222
C69   C     C_R   0.854477 0.690483 0.924314 -0.384631
C70   C     C_R   0.808455 0.332715 0.989187 -0.385222
C71   C     C_R   0.410513 0.810212 0.291896 -0.154892
C72   C     C_R   0.309033 0.140543 0.326672 -0.226794
C73   C     C_R   0.910513 0.310212 0.291897 -0.154886
C74   C     C_R   0.809033 0.640543 0.326672 -0.226790
C75   C     C_R   0.620957 0.199249 0.012359 -0.101643
C76   C     C_R   0.658097 0.819863 0.958519 -0.090541
C77   C     C_R   0.120957 0.699249 0.012358 -0.101642
C78   C     C_R   0.133477 0.605332 0.104462 0.850972
C79   C     C_R   0.158097 0.319863 0.958519 -0.090541
C80   C     C_R   0.595038 0.801127 0.793807 -0.217459
C81   C     C_R   0.647329 0.173741 0.779409 -0.088046
C82   C     C_R   0.095037 0.301127 0.793807 -0.217459
C83   C     C_R   0.147329 0.673741 0.779409 -0.088045
C84   C     C_R   0.638453 0.081737 0.683443 0.752575
C85   C     C_R   0.582706 0.893298 0.702402 0.821712
C86   C     C_R   0.138453 0.581737 0.683443 0.752575
C87   C     C_R   0.082706 0.393298 0.702402 0.821710
C88   C     C_R   0.651979 0.181927 0.068707 -0.110444
F1    F     F_    0.408887 0.266944 0.998623 -0.610068
F2    F     F_    0.645433 0.286037 0.632057 -0.607137
F3    F     F_    0.048074 0.285162 0.559312 -0.583061
F4    F     F_    0.145435 0.786039 0.632057 -0.607144
F5    F     F_    0.429387 0.730524 0.150973 -0.597924
F6    F     F_    0.338618 0.243315 0.194118 -0.666237
F7    F     F_    0.929386 0.230524 0.150974 -0.597924
F8    F     F_    0.838618 0.743315 0.194118 -0.666237
F9    F     F_    0.646651 0.042550 0.601375 -0.656118
F10   F     F_    0.547091 0.925193 0.657680 -0.609382
F11   F     F_    0.146650 0.542550 0.601375 -0.656118
F12   F     F_    0.353031 0.744925 0.069669 -0.628906
F13   F     F_    0.047091 0.425193 0.657680 -0.609382
F14   F     F_    0.688433 0.947779 0.113622 -0.604793
F15   F     F_    0.629139 0.077650 0.190805 -0.589880
F16   F     F_    0.188433 0.447779 0.113622 -0.604793
F17   F     F_    0.129139 0.577650 0.190804 -0.589880
F18   F     F_    0.908887 0.766944 0.998623 -0.610069
F19   F     F_    0.853030 0.244925 0.069669 -0.628906
F20   F     F_    0.360285 0.201483 0.444812 -0.636175
F21   F     F_    0.448137 0.651797 0.310406 -0.611344
F22   F     F_    0.860285 0.701483 0.444812 -0.636175
F23   F     F_    0.948137 0.151798 0.310407 -0.611345
F24   F     F_    0.548074 0.785162 0.559312 -0.583061
H1    H     H_    0.150999 0.089066 0.515455 0.157614
H2    H     H_    0.333225 0.705738 0.621255 0.227272
H3    H     H_    0.614943 0.660522 0.705149 0.219664
H4    H     H_    0.833224 0.205739 0.621256 0.227273
H5    H     H_    0.748055 0.751223 0.617803 0.274253
H6    H     H_    0.852976 0.100575 0.495782 0.257028
H7    H     H_    0.248055 0.251223 0.617803 0.274253
H8    H     H_    0.352975 0.600574 0.495781 0.257029
H9    H     H_    0.718041 0.770756 0.344452 0.205454
H10   H     H_    0.751338 0.278017 0.380878 0.068310
H11   H     H_    0.218041 0.270756 0.344452 0.205454
H12   H     H_    0.364138 0.844332 0.498634 0.206523
H13   H     H_    0.251340 0.778018 0.380878 0.068300
H14   H     H_    0.326060 0.284381 0.384805 0.076584
H15   H     H_    0.341453 0.660972 0.322522 0.113737
H16   H     H_    0.826059 0.784381 0.384805 0.076583
H17   H     H_    0.841453 0.160972 0.322522 0.113735
H18   H     H_    0.754808 0.840013 0.552013 0.188918
H19   H     H_    0.780105 0.081838 0.467860 0.255275
H20   H     H_    0.254808 0.340013 0.552013 0.188918
H21   H     H_    0.280104 0.581838 0.467859 0.255276
H22   H     H_    0.196428 0.742955 0.149043 0.169921
H23   H     H_    0.650999 0.589065 0.515455 0.157618
H24   H     H_    0.275281 0.310565 0.046283 0.197800
H25   H     H_    0.696428 0.242956 0.149044 0.169922
H26   H     H_    0.775281 0.810565 0.046283 0.197800
H27   H     H_    0.615316 0.255857 0.985492 0.195870
H28   H     H_    0.667252 0.767193 0.914501 0.195841
H29   H     H_    0.115317 0.755857 0.985492 0.195869
H30   H     H_    0.167252 0.267193 0.914501 0.195841
H31   H     H_    0.600144 0.745634 0.823243 0.180171
H32   H     H_    0.664724 0.224115 0.803288 0.180011
H33   H     H_    0.100144 0.245635 0.823243 0.180171
H34   H     H_    0.864137 0.344333 0.498635 0.206520
H35   H     H_    0.164724 0.724116 0.803288 0.180012
H36   H     H_    0.664065 0.662617 0.336965 0.347097
H37   H     H_    0.740980 0.395867 0.422160 0.338515
H38   H     H_    0.164065 0.162617 0.336964 0.347097
H39   H     H_    0.240949 0.895864 0.422187 0.338532
H40   H     H_    0.719156 0.872524 0.437792 0.271612
H41   H     H_    0.687925 0.161743 0.459312 0.307014
H42   H     H_    0.219156 0.372524 0.437792 0.271612
H43   H     H_    0.187924 0.661744 0.459313 0.307015
H44   H     H_    0.828693 0.284462 0.823655 0.368197
H45   H     H_    0.556318 0.670274 0.653048 0.231130
H46   H     H_    0.868706 0.719549 0.751504 0.391202
H47   H     H_    0.328694 0.784461 0.823654 0.368197
H48   H     H_    0.368706 0.219549 0.751504 0.391202
H49   H     H_    0.387150 0.943228 0.789690 0.373242
H50   H     H_    0.436743 0.058631 0.756658 0.356141
H51   H     H_    0.887150 0.443226 0.789690 0.373241
H52   H     H_    0.936742 0.558630 0.756659 0.356141
H53   H     H_    0.421392 0.049564 0.371670 0.399007
H54   H     H_    0.499189 0.877215 0.332252 0.385588
H55   H     H_    0.921392 0.549564 0.371670 0.399009
H56   H     H_    0.764608 0.285446 0.650725 0.231399
H57   H     H_    0.999190 0.377215 0.332251 0.385592
H58   H     H_    0.250922 0.114126 0.589661 0.387462
H59   H     H_    0.456018 0.703013 0.451182 0.390462
H60   H     H_    0.750923 0.614127 0.589661 0.387462
H61   H     H_    0.956017 0.203015 0.451183 0.390461
H62   H     H_    0.056318 0.170274 0.653048 0.231130
H63   H     H_    0.264610 0.785446 0.650725 0.231400
H64   H     H_    0.114943 0.160522 0.705149 0.219663
N1    N     N_R   0.408680 0.130160 0.995800 -0.147968
N2    N     N_R   0.403730 0.078230 0.935950 -0.163408
N3    N     N_R   0.903730 0.421770 0.935950 -0.157076
N4    N     N_R   0.903730 0.578230 0.935950 -0.163408
N5    N     N_R   0.426630 0.075970 0.212960 -0.164873
N6    N     N_R   0.426630 0.924030 0.212960 -0.150280
N7    N     N_R   0.926630 0.575970 0.212960 -0.164871
N8    N     N_R   0.926630 0.424030 0.212960 -0.150282
N9    N     N_R   0.591320 0.134600 0.004200 -0.106997
N10   N     N_R   0.591320 0.865400 0.004200 -0.096419
N11   N     N_R   0.091320 0.634600 0.004200 -0.106997
N12   N     N_R   0.408680 0.869840 0.995800 -0.132483
N13   N     N_R   0.091320 0.365400 0.004200 -0.096418
N14   N     N_R   0.578320 0.867660 0.846880 -0.089041
N15   N     N_R   0.578320 0.132340 0.846880 -0.086860
N16   N     N_R   0.078320 0.367660 0.846880 -0.089041
N17   N     N_R   0.078320 0.632340 0.846880 -0.086860
N18   N     N_R   0.573370 0.074390 0.787040 -0.138453
N19   N     N_R   0.573370 0.925610 0.787040 -0.152349
N20   N     N_R   0.073370 0.574390 0.787040 -0.138453
N21   N     N_R   0.073370 0.425610 0.787040 -0.152349
N22   N     N_R   0.596270 0.927870 0.064040 -0.137351
N23   N     N_R   0.908680 0.630160 0.995800 -0.147968
N24   N     N_R   0.596270 0.072130 0.064040 -0.154045
N25   N     N_R   0.096270 0.427870 0.064040 -0.137348
N26   N     N_R   0.096270 0.572130 0.064040 -0.154044
N27   N     N_R   0.908680 0.369840 0.995800 -0.132483
N28   N     N_R   0.421680 0.867580 0.153120 -0.160167
N29   N     N_R   0.421680 0.132420 0.153120 -0.126160
N30   N     N_R   0.921680 0.367580 0.153120 -0.160167
N31   N     N_R   0.921680 0.632420 0.153120 -0.126160
N32   N     N_R   0.403730 0.921770 0.935950 -0.157076
Ni1   Ni    Ni4+2 0.500000 0.131190 0.000000 0.281117
Ni2   Ni    Ni4+2 0.500000 0.868810 0.000000 0.270876
Ni3   Ni    Ni4+2 0.000000 0.631190 0.000000 0.281117
Ni4   Ni    Ni4+2 0.000000 0.368810 0.000000 0.270877
Ni5   Ni    Ni4+2 0.488650 0.000000 0.862740 0.249014
Ni6   Ni    Ni4+2 0.988650 0.500000 0.862740 0.249014
Ni7   Ni    Ni4+2 0.511350 0.000000 0.137260 0.282842
Ni8   Ni    Ni4+2 0.011350 0.500000 0.137260 0.282842
O1    O     O_3   0.630286 0.685277 0.411164 -0.660550
O2    O     O_3   0.822729 0.754517 0.805588 -0.720225
O3    O     O_3   0.275741 0.759033 0.883115 -0.744434
O4    O     O_3   0.322729 0.254517 0.805588 -0.720224
O5    O     O_3   0.331388 0.926455 0.853627 -0.667855
O6    O     O_3   0.384597 0.090202 0.795766 -0.679177
O7    O     O_3   0.831387 0.426456 0.853628 -0.667856
O8    O     O_3   0.884597 0.590202 0.795767 -0.679176
O9    O     O_3   0.362082 0.049377 0.398227 -0.596132
O10   O     O_3   0.466548 0.919534 0.329218 -0.686634
O11   O     O_3   0.862082 0.549377 0.398227 -0.596137
O12   O     O_3   0.748858 0.367729 0.472424 -0.625917
O13   O     O_3   0.966548 0.419533 0.329217 -0.686627
O14   O     O_3   0.225978 0.080869 0.563295 -0.616694
O15   O     O_3   0.453450 0.760097 0.443338 -0.642600
O16   O     O_3   0.725978 0.580869 0.563295 -0.616693
O17   O     O_3   0.953449 0.260099 0.443339 -0.642599
O18   O     O_3   0.130287 0.185277 0.411164 -0.660552
O19   O     O_3   0.248861 0.867730 0.472423 -0.625934
O20   O     O_3   0.657675 0.867820 0.477685 -0.639255
O21   O     O_3   0.650450 0.192572 0.526585 -0.694605
O22   O     O_3   0.157675 0.367820 0.477685 -0.639255
O23   O     O_3   0.150450 0.692574 0.526586 -0.694607
O24   O     O_3   0.775741 0.259033 0.883116 -0.744435

loop_
_geom_bond_atom_site_label_1
_geom_bond_atom_site_label_2
_ccdc_geom_bond_type
C26   O19   S    
C6    C32   S    
C49   H22   S    
C16   H3    S    
C11   O16   S    
C34   F19   S    
C22   C29   S    
C8    C83   A    
N7    N31   A    
C23   C69   A    
N5    N29   A    
C40   F5    S    
C82   H33   S    
N18   Ni5   S    
C55   C68   S    
C3    C49   S    
C65   C73   A    
N12   Ni2   S    
H44   O24   S    
C16   C31   S    
C47   F3    S    
C12   C68   A    
N11   N26   A    
N32   Ni5   S    
H40   O20   S    
C22   C44   S    
C78   F17   S    
N6    N28   A    
C84   F9    S    
C40   C71   A    
C20   H16   S    
C10   H12   S    
C10   C15   S    
C44   O20   S    
C59   C66   A    
H47   O3    S    
N17   Ni3   S    
C79   H30   S    
N22   Ni7   S    
C61   C69   A    
C39   H8    S    
C12   N12   A    
C23   N23   A    
N24   Ni7   S    
N8    N30   A    
C21   C37   S    
N16   N21   A    
C46   O21   S    
N1    Ni1   S    
N16   Ni4   S    
C81   N15   A    
C14   H64   S    
C85   F10   S    
C86   N20   A    
C87   F13   S    
C64   N7    A    
C1    N1    A    
C81   H32   S    
C7    C87   A    
C37   H6    S    
H50   O6    S    
C84   N18   A    
H49   O5    S    
C52   H26   S    
C60   C70   A    
N15   N18   A    
H36   O1    S    
C57   C66   S    
C8    C86   A    
C65   O13   S    
C26   C48   S    
C79   N13   A    
N9    Ni1   S    
C5    C85   A    
N17   N20   A    
C43   C74   A    
C19   F21   S    
H43   O23   S    
N9    N24   A    
C63   N6    A    
N26   Ni8   S    
N31   Ni3   S    
C7    C33   S    
N29   Ni1   S    
C75   N9    A    
C80   N14   A    
C13   H34   S    
C14   C33   S    
C53   C70   S    
C53   O24   S    
C15   C35   S    
C21   F23   S    
C58   O5    S    
C52   C54   D    
C67   F16   S    
C54   O2    S    
C63   O10   S    
C24   C30   S    
C20   C29   S    
C76   H28   S    
C2    C45   A    
H60   O16   S    
H59   O15   S    
H46   O2    S    
C6    C84   A    
C31   C44   S    
C18   C27   S    
C43   N31   A    
C42   F7    S    
C41   N29   A    
C40   N28   A    
C13   C30   S    
C4    C79   A    
C30   C73   S    
C85   N19   A    
C76   N10   A    
C55   O3    S    
C29   C74   S    
N13   N25   A    
C45   N22   A    
H38   O18   S    
C23   F18   S    
C17   H56   S    
C37   H19   S    
C12   F12   S    
C4    C50   S    
C9    O14   S    
C60   N3    A    
C26   H13   S    
C38   H20   S    
C83   N17   A    
C35   C39   S    
C9    C14   S    
N25   Ni8   S    
C67   N25   A    
C59   O6    S    
C36   H18   S    
C47   O22   S    
N20   Ni6   S    
C11   C16   S    
H52   O8    S    
H55   O11   S    
C41   F6    S    
C24   H10   S    
C58   N32   A    
C34   N27   A    
H54   O10   S    
C80   H31   S    
H39   O19   S    
C36   H5    S    
H53   O9    S    
C1    C66   A    
C15   H2    S    
C62   C72   A    
N5    Ni7   S    
C32   C37   S    
C5    C80   A    
C86   F11   S    
C25   H11   S    
C21   H17   S    
C35   C48   S    
C63   C71   A    
C19   C39   S    
N14   N19   A    
N15   Ni1   S    
C41   C72   A    
C20   F22   S    
C38   H7    S    
C51   H25   S    
C58   C68   A    
C22   O1    S    
N11   Ni3   S    
C25   O18   S    
C43   F8    S    
N10   Ni2   S    
C19   C28   S    
N6    Ni7   S    
C77   N11   A    
C83   H35   S    
N27   Ni4   S    
C28   C71   S    
C87   N21   A    
C3    C77   A    
C60   O7    S    
C44   F24   S    
C48   O23   S    
C2    C76   A    
C9    C27   S    
C22   H9    S    
C13   O17   S    
C39   H21   S    
C10   C28   S    
N7    Ni8   S    
C17   C32   S    
C34   C70   A    
C25   C47   S    
N12   N32   A    
C42   C73   A    
C1    F1    S    
N2    Ni5   S    
C82   N16   A    
C16   H45   S    
C50   C57   D    
C32   C46   S    
C15   H63   S    
C59   N2    A    
C11   H23   S    
C78   N26   A    
C56   F15   S    
N3    N27   A    
N13   Ni4   S    
C51   C88   S    
C4    C67   A    
C46   F2    S    
C57   O4    S    
H51   O7    S    
C25   C27   S    
C62   O9    S    
C21   C30   S    
H42   O22   S    
C26   C28   S    
C33   C38   S    
C2    C52   S    
H41   O21   S    
C9    H1    S    
N4    Ni6   S    
N14   Ni2   S    
C61   O8    S    
C24   C46   S    
C14   H62   S    
N4    N23   A    
C75   H27   S    
C18   H14   S    
C62   N5    A    
H48   O4    S    
C54   C69   S    
C5    C31   S    
C33   C47   S    
H58   O14   S    
N3    Ni6   S    
C19   H15   S    
C10   O15   S    
H57   O13   S    
C42   N30   A    
N23   Ni3   S    
C49   C55   D    
C18   C38   S    
C18   F20   S    
N19   Ni5   S    
N8    Ni8   S    
C45   F14   S    
N21   Ni6   S    
C13   C17   S    
C20   C36   S    
N30   Ni4   S    
C75   C88   A    
C7    C82   A    
C56   C88   A    
C11   C29   S    
C61   N4    A    
N1    N2    A    
C48   F4    S    
N28   Ni2   S    
C6    C81   A    
H37   O12   S    
C64   C74   A    
C31   C36   S    
N10   N22   A    
C50   H24   S    
H61   O17   S    
C51   C53   D    
C24   O12   S    
C3    C78   A    
C77   H29   S    
C8    C35   S    
C64   O11   S    
C27   C72   S    
C17   H4    S    
C56   N24   A    
C65   N8    A    
