data_mof_unit_7462.cif
_audit_creation_date              2012-12-10T18:52:10-0500
_audit_creation_method            fapswitch 2.2
_symmetry_space_group_name_H-M    P1
_symmetry_Int_Tables_number       1
_space_group_crystal_system       triclinic
_cell_length_a                    15.716832
_cell_length_b                    10.696248
_cell_length_c                    9.842881
_cell_angle_alpha                 90.0706
_cell_angle_beta                  89.940251
_cell_angle_gamma                 90.128833
_cell_volume                      1654.69154117

loop_
_atom_site_label
_atom_site_type_symbol
_atom_type_description
_atom_site_fract_x
_atom_site_fract_y
_atom_site_fract_z
_atom_type_partial_charge
C1    C     C_R   0.500128 0.259916 0.499922 0.859994
C2    C     C_R   0.500298 0.740081 0.500133 0.860555
C3    C     C_R   0.527179 0.935875 0.383608 -0.190632
C4    C     C_R   0.474764 0.064110 0.617101 -0.194800
C5    C     C_R   0.500854 0.872502 0.500349 -0.006757
C6    C     C_R   0.500669 0.127498 0.500120 -0.005821
C7    C     C_R   0.553840 0.576226 0.072161 -0.309877
C8    C     C_R   0.445496 0.424808 0.927789 -0.307747
C9    C     C_R   0.555654 0.574499 0.927310 0.554151
C10   C     C_R   0.446439 0.422121 0.072773 0.563171
C11   C     C_R   0.337847 0.500325 0.500064 0.902361
C12   C     C_R   0.662137 0.499639 0.499970 0.902786
C13   C     C_3   0.972733 0.408077 0.585855 -0.328477
C14   C     C_3   0.027129 0.591546 0.415684 -0.319682
C15   C     C_3   0.029002 0.391060 0.458959 0.585347
C16   C     C_3   0.970865 0.608530 0.542580 0.577620
C17   C     C_1   0.248932 0.502045 0.500436 -0.167398
C18   C     C_1   0.751016 0.497767 0.499858 -0.201669
C19   C     C_3   0.027383 0.522475 0.629310 -0.324954
C20   C     C_3   0.972515 0.477127 0.372219 -0.317000
C21   C     C_3   0.082766 0.503312 0.501585 0.075426
C22   C     C_3   0.917133 0.496286 0.499906 0.077849
C23   C     C_1   0.173635 0.503280 0.501056 0.008051
C24   C     C_1   0.826294 0.496407 0.499848 -0.005316
C25   C     C_R   0.527311 0.063982 0.383647 -0.220929
C26   C     C_R   0.474988 0.936034 0.617278 -0.175524
H1    H     H_    0.948431 0.332882 0.653262 0.152530
H2    H     H_    0.051383 0.666830 0.348349 0.154260
H3    H     H_    0.948025 0.457017 0.268711 0.152121
H4    H     H_    0.051866 0.542552 0.732827 0.155383
H5    H     H_    0.548629 0.113031 0.293500 0.146033
H6    H     H_    0.454064 0.887046 0.707704 0.163269
H7    H     H_    0.548232 0.886730 0.293304 0.154222
H8    H     H_    0.453616 0.113198 0.707399 0.151286
H9    H     H_    0.595138 0.638807 0.127973 0.173982
H10   H     H_    0.401005 0.367566 0.871621 0.174855
N1    N     N_R   0.499980 0.499970 0.857200 -0.135079
N2    N     N_R   0.500020 0.500030 0.142800 -0.135860
O1    O     O_R   0.499990 0.316750 0.614620 -0.632983
O2    O     O_R   0.500010 0.683250 0.385380 -0.632726
O3    O     O_R   0.500000 0.316780 0.385290 -0.606971
O4    O     O_R   0.500000 0.683220 0.614710 -0.579780
O5    O     O_R   0.376780 0.499970 0.614640 -0.625867
O6    O     O_R   0.623220 0.500030 0.385360 -0.622578
O7    O     O_R   0.376780 0.500000 0.385310 -0.556742
O8    O     O_R   0.623220 0.500000 0.614690 -0.593777
Zn1   Zn    Zn3+2 0.500000 0.499980 0.653120 0.981202
Zn2   Zn    Zn3+2 0.500000 0.500020 0.346880 0.984964
O9    O     O_3   0.067458 0.278826 0.415642 -0.603892
C27   C     C_3   0.003835 0.190586 0.383471 0.098042
H11   H     H_    0.963466 0.224285 0.298238 0.135894
H12   H     H_    0.963050 0.170533 0.473354 0.133807
C28   C     C_3   0.045918 0.069147 0.339628 -0.823864
H13   H     H_    0.087398 0.033727 0.422279 0.254495
H14   H     H_    0.996507 0.997809 0.316706 0.208518
H15   H     H_    0.085104 0.085058 0.247247 0.256229
O10   O     O_3   0.932249 0.720635 0.585905 -0.608471
C29   C     C_3   0.995732 0.808751 0.619085 0.097324
H16   H     H_    0.036817 0.829179 0.529649 0.135069
H17   H     H_    0.035810 0.774726 0.704510 0.136820
C30   C     C_3   0.953439 0.929937 0.663226 -0.827143
H18   H     H_    0.913920 0.913523 0.755149 0.255722
H19   H     H_    0.002732 0.001210 0.687010 0.209428
H20   H     H_    0.912241 0.965717 0.580400 0.254978
O11   O     O_3   0.607341 0.655641 0.854782 -0.584099
C31   C     C_3   0.694204 0.641712 0.890252 0.111074
H21   H     H_    0.730133 0.616396 0.797023 0.190386
H22   H     H_    0.707596 0.566751 0.966040 0.101204
C32   C     C_3   0.729028 0.765715 0.942403 -0.851562
H23   H     H_    0.694918 0.794229 0.036214 0.239426
H24   H     H_    0.797840 0.756193 0.965629 0.218947
H25   H     H_    0.720878 0.839323 0.864003 0.268412
O12   O     O_3   0.388311 0.351321 0.145895 -0.573217
C33   C     C_3   0.388491 0.224107 0.105542 0.091841
H26   H     H_    0.399876 0.166385 0.197315 0.180678
H27   H     H_    0.439229 0.198341 0.031258 0.097145
C34   C     C_3   0.301552 0.188409 0.049084 -0.849807
H28   H     H_    0.286876 0.244404 0.957279 0.245648
H29   H     H_    0.301018 0.087748 0.021344 0.211404
H30   H     H_    0.251607 0.205388 0.126858 0.277096

loop_
_geom_bond_atom_site_label_1
_geom_bond_atom_site_label_2
_ccdc_geom_bond_type
C25   H5    S    
C31   H22   S    
C26   H6    S    
C30   H20   S    
O12   C33   S    
C28   H13   S    
C17   C23   T    
C33   H27   S    
C18   C24   T    
C14   C21   S    
C19   C21   S    
C10   O12   S    
C28   H15   S    
C31   C32   S    
C3    H7    S    
C29   H17   S    
O2    Zn2   S    
C8    H10   S    
C30   H19   S    
O3    Zn2   S    
C33   C34   S    
C27   H12   S    
C11   O5    A    
N1    Zn1   S    
N2    Zn2   S    
O4    Zn1   S    
C29   C30   S    
C34   H29   S    
C31   H21   S    
C32   H23   S    
C20   H3    S    
C28   H14   S    
C15   C20   S    
C4    H8    S    
C27   C28   S    
C32   H24   S    
C33   H26   S    
C13   C19   S    
C1    C6    S    
C14   C20   S    
C3    C25   A    
C4    C6    A    
O7    Zn2   S    
C29   H16   S    
C34   H28   S    
C12   O8    A    
C32   H25   S    
C9    N1    A    
C27   H11   S    
C1    O3    A    
C20   C22   S    
O11   C31   S    
C13   C15   S    
C22   C24   S    
C11   O7    A    
C2    C5    S    
C8    N1    A    
O1    Zn1   S    
C34   H30   S    
C7    C9    A    
O8    Zn1   S    
C11   C17   S    
C16   C22   S    
C7    H9    S    
C3    C5    A    
C4    C26   A    
C10   N2    A    
C21   C23   S    
C12   O6    A    
O10   C29   S    
C2    O4    A    
C16   C19   S    
C7    N2    A    
C13   C22   S    
C14   C16   S    
C16   O10   S    
C15   O9    S    
C30   H18   S    
C9    O11   S    
C1    O1    A    
C5    C26   A    
C6    C25   A    
C2    O2    A    
C15   C21   S    
C8    C10   A    
O9    C27   S    
C12   C18   S    
C13   H1    S    
C14   H2    S    
C19   H4    S    
O5    Zn1   S    
O6    Zn2   S    
