data_mof_unit_13686.cif
_audit_creation_date              2012-12-10T16:58:29-0500
_audit_creation_method            fapswitch 2.2
_symmetry_space_group_name_H-M    P1
_symmetry_Int_Tables_number       1
_space_group_crystal_system       triclinic
_cell_length_a                    7.717476
_cell_length_b                    8.560696
_cell_length_c                    23.343919
_cell_angle_alpha                 90.900688
_cell_angle_beta                  85.950379
_cell_angle_gamma                 93.91792
_cell_volume                      1534.72398256

loop_
_atom_site_label
_atom_site_type_symbol
_atom_type_description
_atom_site_fract_x
_atom_site_fract_y
_atom_site_fract_z
_atom_type_partial_charge
C1    C     C_R   0.544663 0.793338 0.491197 0.987228
C2    C     C_R   0.532028 0.359787 0.296791 0.327776
C3    C     C_R   0.449365 0.589431 0.767087 -0.167176
C4    C     C_R   0.527872 0.355960 0.237630 -0.153442
C5    C     C_R   0.505668 0.454119 0.790365 0.194582
C6    C     C_R   0.483444 0.486718 0.208545 0.188044
C7    C     C_2   0.568211 0.953873 0.474437 0.029282
C8    C     C_2   0.427931 0.043901 0.478989 0.021173
C9    C     C_R   0.502179 0.498300 0.610417 1.036696
C10   C     C_R   0.497513 0.499873 0.389478 0.984591
C11   C     C_R   0.340771 0.423260 0.122169 0.526204
C12   C     C_R   0.453974 0.206006 0.494199 0.992886
C13   C     C_R   0.654811 0.495549 0.876639 0.525912
C14   C     C_R   0.639118 0.522388 0.116570 0.525379
C15   C     C_R   0.356456 0.396506 0.882128 0.524046
C16   C     C_R   0.647197 0.513926 0.056700 -0.030210
C17   C     C_R   0.350593 0.398172 0.942051 -0.030592
C18   C     C_R   0.497068 0.458937 0.029507 -0.015805
C19   C     C_R   0.501210 0.451632 0.969279 -0.015353
C20   C     C_R   0.342405 0.412487 0.062385 -0.030104
C21   C     C_R   0.655399 0.499520 0.936418 -0.028597
C22   C     C_R   0.800608 0.559706 0.023601 -0.175912
C23   C     C_R   0.562206 0.330423 0.754792 0.133163
C24   C     C_R   0.197931 0.350222 0.975176 -0.175054
C25   C     C_R   0.804714 0.552485 0.963923 -0.162247
C26   C     C_R   0.193840 0.357371 0.034875 -0.162910
C27   C     C_3   0.620829 0.182623 0.779756 -0.658988
C28   C     C_3   0.391927 0.766907 0.207249 -0.673068
C29   C     C_3   0.754775 0.012575 0.456172 -0.769206
C30   C     C_3   0.239855 0.984375 0.471739 -0.768378
C31   C     C_R   0.440253 0.624559 0.238494 0.137534
C32   C     C_R   0.562303 0.346031 0.695006 0.322040
C33   C     C_R   0.444106 0.628493 0.298572 0.318224
C34   C     C_R   0.505507 0.483627 0.672025 -0.266742
C35   C     C_R   0.490983 0.496185 0.327483 -0.247364
C36   C     C_R   0.448351 0.604912 0.708175 0.327464
Cl1   Cl    Cl    0.626908 0.190429 0.649041 -0.552642
Cl2   Cl    Cl    0.396722 0.801088 0.337274 -0.588245
Cl3   Cl    Cl    0.380188 0.780066 0.681064 -0.536967
Cl4   Cl    Cl    0.584560 0.189582 0.331017 -0.575142
H1    H     H_    0.917471 0.602029 0.043647 0.197122
H2    H     H_    0.537182 0.080237 0.765897 0.272018
H3    H     H_    0.758016 0.166852 0.764392 0.269867
H4    H     H_    0.485912 0.867483 0.215436 0.264518
H5    H     H_    0.392423 0.748904 0.160124 0.207053
H6    H     H_    0.259020 0.797151 0.222876 0.268360
H7    H     H_    0.824823 0.919875 0.432360 0.247300
H8    H     H_    0.759956 0.111017 0.425764 0.289717
H9    H     H_    0.826443 0.047043 0.494518 0.245652
H10   H     H_    0.169087 0.074591 0.451063 0.230966
H11   H     H_    0.230486 0.881216 0.442625 0.292325
H12   H     H_    0.080954 0.308279 0.955121 0.196738
H13   H     H_    0.171788 0.956796 0.514261 0.247905
H14   H     H_    0.924643 0.589451 0.939484 0.201021
H15   H     H_    0.073814 0.320724 0.059319 0.200228
H16   H     H_    0.407131 0.683318 0.795276 0.184029
H17   H     H_    0.559980 0.250996 0.213767 0.186313
H18   H     H_    0.014050 0.382013 0.457166 0.198293
H19   H     H_    0.985939 0.617994 0.542821 0.212995
H20   H     H_    0.613446 0.183966 0.827351 0.207948
N1    N     N_R   0.487349 0.478304 0.147595 -0.346595
N2    N     N_R   0.506497 0.445846 0.851136 -0.347171
N3    N     N_2   0.950330 0.457950 0.484560 -0.163955
N4    N     N_2   0.049670 0.542050 0.515440 -0.160420
O1    O     O_R   0.389250 0.738570 0.503790 -0.618214
O2    O     O_2   0.800139 0.542224 0.844086 -0.509985
O3    O     O_2   0.780977 0.574528 0.143773 -0.517859
O4    O     O_2   0.213672 0.347419 0.854867 -0.516283
O5    O     O_R   0.610750 0.261430 0.496210 -0.611283
O6    O     O_R   0.678390 0.711620 0.493890 -0.636634
O7    O     O_R   0.321610 0.288380 0.506110 -0.630782
O8    O     O_R   0.355400 0.513520 0.588790 -0.573926
O9    O     O_R   0.644600 0.486480 0.411210 -0.600295
O10   O     O_R   0.644550 0.486570 0.578900 -0.592940
O11   O     O_R   0.355450 0.513430 0.421100 -0.621053
O12   O     O_2   0.194463 0.379803 0.154775 -0.510632
Zn1   Zn    Zn3+2 0.306930 0.518000 0.506610 1.011637
Zn2   Zn    Zn3+2 0.693070 0.482000 0.493390 1.007940

loop_
_geom_bond_atom_site_label_1
_geom_bond_atom_site_label_2
_ccdc_geom_bond_type
C2    C35   A    
C24   H12   S    
C30   H11   S    
C7    C29   S    
O6    Zn2   S    
N4    Zn1   S    
C9    O8    A    
C12   O5    A    
C26   H15   S    
C7    C8    D    
C29   H9    S    
C28   H6    S    
H19   N4    S    
C29   H7    S    
C6    N1    S    
C19   C21   A    
C24   C26   A    
C11   O12   S    
C10   O9    A    
C22   H1    S    
C18   C19   A    
C3    H16   S    
C17   C19   A    
C13   N2    A    
C22   C25   A    
C4    H17   S    
C1    O1    A    
C14   O3    S    
C31   C33   A    
C10   C35   S    
C23   C27   S    
C18   C20   A    
C6    C31   A    
C30   H10   S    
O5    Zn2   S    
O9    Zn2   S    
C13   O2    S    
C36   Cl3   S    
C11   C20   A    
C30   H13   S    
C28   H5    S    
C17   C24   A    
O1    Zn1   S    
C29   H8    S    
C25   H14   S    
C4    C6    A    
C3    C5    A    
C14   N1    A    
C28   H4    S    
C32   C34   A    
C2    C4    A    
O8    Zn1   S    
C27   H3    S    
C10   O11   A    
C5    C23   A    
C8    C12   S    
C13   C21   A    
C32   Cl1   S    
O11   Zn1   S    
C12   O7    A    
C9    C34   S    
C14   C16   A    
C9    O10   A    
O7    Zn1   S    
H18   N3    S    
C15   C17   A    
C21   C25   A    
C16   C22   A    
C1    C7    S    
C28   C31   S    
C1    O6    A    
C11   N1    A    
C33   Cl2   S    
C27   H20   S    
C8    C30   S    
C23   C32   A    
C27   H2    S    
C20   C26   A    
C3    C36   A    
C15   O4    S    
C33   C35   A    
C15   N2    A    
C5    N2    S    
C34   C36   A    
N3    N4    D    
C2    Cl4   S    
C16   C18   A    
O10   Zn2   S    
N3    Zn2   S    
