data_mof_unit_42174.cif
_audit_creation_date              2012-10-26T20:59:34-0400
_audit_creation_method            fapswitch 2.2
_symmetry_space_group_name_H-M    P1
_symmetry_Int_Tables_number       1
_space_group_crystal_system       triclinic
_cell_length_a                    15.978051
_cell_length_b                    14.752703
_cell_length_c                    15.049159
_cell_angle_alpha                 89.822734
_cell_angle_beta                  90.491218
_cell_angle_gamma                 90.748349
_cell_volume                      3546.93063761

loop_
_atom_site_label
_atom_site_type_symbol
_atom_type_description
_atom_site_fract_x
_atom_site_fract_y
_atom_site_fract_z
_atom_type_partial_charge
C1    C     C_R   0.340968 0.499420 0.499863 0.559959
C2    C     C_R   0.087359 0.498540 0.501212 -0.009116
C3    C     C_R   0.653011 0.911649 0.673269 -0.078240
C4    C     C_1   0.822624 0.503225 0.496913 -0.042443
C5    C     C_1   0.177250 0.497433 0.500465 -0.048258
C6    C     C_1   0.252161 0.497994 0.500076 -0.006302
C7    C     C_1   0.747769 0.502244 0.498834 0.012574
C8    C     C_R   0.531382 0.951569 0.574730 -0.029921
C9    C     C_R   0.471075 0.048441 0.425099 -0.029409
C10   C     C_R   0.469714 0.951685 0.425484 -0.031008
C11   C     C_R   0.532588 0.048466 0.574318 -0.030402
C12   C     C_R   0.499370 0.902857 0.500410 -0.041351
C13   C     C_R   0.659017 0.500614 0.500370 0.580450
C14   C     C_R   0.502296 0.097190 0.499534 -0.040868
C15   C     C_1   0.499897 0.802526 0.499785 0.140302
C16   C     C_1   0.500794 0.197492 0.500043 0.138450
C17   C     C_R   0.502479 0.500069 0.328633 0.584161
C18   C     C_R   0.497194 0.499986 0.671264 0.568344
C19   C     C_R   0.560885 0.461476 0.812581 -0.156419
C20   C     C_R   0.445522 0.547831 0.186940 -0.156924
C21   C     C_R   0.494509 0.500765 0.767435 -0.004868
C22   C     C_R   0.507005 0.500427 0.232363 0.001858
C23   C     C_R   0.427497 0.540118 0.813369 -0.011804
C24   C     C_R   0.376389 0.589857 0.051680 -0.135555
C25   C     C_R   0.569118 0.452392 0.186401 -0.013309
C26   C     C_R   0.431467 0.545655 0.907774 -0.022790
C27   C     C_R   0.571595 0.458181 0.091911 -0.025270
C28   C     C_R   0.499611 0.503050 0.952970 0.031760
C29   C     C_R   0.504342 0.502200 0.046657 0.033469
C30   C     C_R   0.563545 0.461374 0.904568 -0.003228
C31   C     C_R   0.441766 0.546099 0.095048 -0.003046
C32   C     C_R   0.371172 0.592394 0.959342 -0.028437
C33   C     C_R   0.638338 0.423044 0.040339 -0.029780
C34   C     C_2   0.350088 0.562753 0.763048 0.211576
C35   C     C_R   0.631907 0.423081 0.947938 -0.135000
C36   C     C_2   0.626449 0.392444 0.237193 0.231641
C37   C     C_R   0.306323 0.652360 0.921622 0.028446
C38   C     C_R   0.329050 0.736816 0.885252 -0.060092
C39   C     C_R   0.267798 0.793712 0.849983 -0.105176
C40   C     C_R   0.183545 0.767037 0.851606 -0.109265
C41   C     C_R   0.160354 0.683798 0.889292 -0.117780
C42   C     C_R   0.221420 0.626827 0.924943 -0.116042
C43   C     C_R   0.720152 0.395250 0.077863 0.022575
C44   C     C_R   0.772365 0.459085 0.120859 -0.058531
C45   C     C_R   0.849430 0.432757 0.156528 -0.104609
C46   C     C_R   0.958126 0.584318 0.505094 -0.022203
C47   C     C_R   0.875241 0.342990 0.148667 -0.111440
C48   C     C_R   0.824275 0.279520 0.104607 -0.119292
C49   C     C_R   0.747179 0.305541 0.068736 -0.120564
C50   C     C_R   0.096101 0.667927 0.517320 0.033925
C51   C     C_R   0.145687 0.683954 0.593418 -0.078393
C52   C     C_R   0.193575 0.763645 0.600568 -0.088200
C53   C     C_R   0.191793 0.828114 0.532390 -0.116847
C54   C     C_R   0.142629 0.812695 0.456540 -0.118211
C55   C     C_R   0.095043 0.732828 0.448807 -0.083394
C56   C     C_R   0.903573 0.333820 0.473991 0.031328
C57   C     C_R   0.041633 0.416849 0.489788 -0.021348
C58   C     C_R   0.855060 0.320637 0.396671 -0.076029
C59   C     C_R   0.806705 0.241687 0.386147 -0.087113
C60   C     C_R   0.806519 0.175333 0.452645 -0.114322
C61   C     C_R   0.854615 0.187925 0.529783 -0.118407
C62   C     C_R   0.902975 0.266913 0.540601 -0.083823
C63   C     C_R   0.913511 0.671751 0.513564 0.038305
C64   C     C_R   0.865540 0.705080 0.442219 -0.093461
C65   C     C_R   0.824517 0.787811 0.449656 -0.103837
C66   C     C_R   0.831362 0.837949 0.528062 -0.094075
C67   C     C_R   0.878779 0.805144 0.599416 -0.106956
C68   C     C_R   0.046331 0.582288 0.508650 -0.022945
C69   C     C_R   0.919583 0.722219 0.592431 -0.082007
C70   C     C_R   0.086075 0.329426 0.480818 0.040756
C71   C     C_R   0.081398 0.280454 0.400966 -0.081081
C72   C     C_R   0.121607 0.197213 0.393641 -0.107046
C73   C     C_R   0.166914 0.162573 0.465697 -0.094559
C74   C     C_R   0.172478 0.211310 0.545040 -0.104970
C75   C     C_R   0.132141 0.294409 0.552763 -0.094351
C76   C     C_R   0.563514 0.099366 0.653442 0.033507
C77   C     C_R   0.634356 0.156459 0.647261 -0.091431
C78   C     C_R   0.662664 0.205235 0.721393 -0.108595
C79   C     C_R   0.953476 0.418972 0.485766 -0.024216
C80   C     C_R   0.620690 0.197151 0.802189 -0.102544
C81   C     C_R   0.550304 0.140368 0.808935 -0.106578
C82   C     C_R   0.521665 0.091627 0.734882 -0.081846
C83   C     C_R   0.439438 0.901421 0.345770 0.034269
C84   C     C_R   0.366849 0.846879 0.350008 -0.091021
C85   C     C_R   0.337225 0.801718 0.274256 -0.111847
C86   C     C_R   0.379785 0.810827 0.193891 -0.102873
C87   C     C_R   0.452512 0.864199 0.189368 -0.103710
C88   C     C_R   0.482418 0.909307 0.265008 -0.080163
C89   C     C_R   0.437018 0.099154 0.347506 0.037046
C90   C     C_R   0.912458 0.502534 0.494332 -0.010258
C91   C     C_R   0.351688 0.091769 0.325113 -0.076487
C92   C     C_R   0.319354 0.140345 0.252976 -0.105265
C93   C     C_R   0.371911 0.196493 0.202672 -0.098676
C94   C     C_R   0.456956 0.203908 0.224223 -0.101283
C95   C     C_R   0.489581 0.155463 0.296358 -0.088921
C96   C     C_R   0.567881 0.900569 0.651065 0.029803
C97   C     C_R   0.518808 0.837974 0.699251 -0.084617
C98   C     C_R   0.554948 0.786030 0.766965 -0.096027
C99   C     C_R   0.639622 0.797540 0.788496 -0.104983
C100  C     C_R   0.688491 0.860650 0.742020 -0.106776
Cu1   Cu    Cu3+1 0.500000 0.589220 0.500000 1.040431
Cu2   Cu    Cu3+1 0.500000 0.410780 0.500000 1.020468
H1    H     H_    0.611184 0.431110 0.775302 0.110899
H2    H     H_    0.095063 0.663436 0.890874 0.100919
H3    H     H_    0.202863 0.562439 0.953945 0.098315
H4    H     H_    0.752874 0.528767 0.127491 0.113528
H5    H     H_    0.889012 0.481853 0.190556 0.098363
H6    H     H_    0.934733 0.322636 0.176720 0.097370
H7    H     H_    0.844466 0.210107 0.098363 0.101686
H8    H     H_    0.708048 0.255739 0.035004 0.094323
H9    H     H_    0.147404 0.634648 0.646873 0.119289
H10   H     H_    0.232234 0.775389 0.658833 0.140596
H11   H     H_    0.228824 0.889827 0.538135 0.095561
H12   H     H_    0.398030 0.583322 0.223984 0.114681
H13   H     H_    0.141723 0.862466 0.403555 0.099813
H14   H     H_    0.057694 0.721305 0.389419 0.102629
H15   H     H_    0.854490 0.371784 0.344964 0.132881
H16   H     H_    0.769256 0.232090 0.326538 0.121051
H17   H     H_    0.768905 0.114301 0.444569 0.096246
H18   H     H_    0.854094 0.136637 0.581373 0.098751
H19   H     H_    0.939453 0.276274 0.600937 0.103349
H20   H     H_    0.860417 0.667216 0.380816 0.105501
H21   H     H_    0.787752 0.813279 0.394470 0.105924
H22   H     H_    0.800154 0.902327 0.533350 0.096132
H23   H     H_    0.329498 0.624380 0.090289 0.103624
H24   H     H_    0.884104 0.844080 0.660067 0.092974
H25   H     H_    0.956068 0.697442 0.648199 0.100122
H26   H     H_    0.046348 0.306576 0.344751 0.096763
H27   H     H_    0.117388 0.159409 0.332221 0.093445
H28   H     H_    0.197430 0.097829 0.460252 0.094845
H29   H     H_    0.207652 0.184432 0.600739 0.103668
H30   H     H_    0.136172 0.331156 0.614882 0.099898
H31   H     H_    0.667450 0.163108 0.585072 0.109952
H32   H     H_    0.717150 0.249251 0.716194 0.104532
H33   H     H_    0.642726 0.234746 0.859592 0.099819
H34   H     H_    0.682721 0.395869 0.909158 0.105748
H35   H     H_    0.517839 0.134247 0.871538 0.102265
H36   H     H_    0.466779 0.048227 0.740791 0.099796
H37   H     H_    0.333030 0.840080 0.411691 0.111365
H38   H     H_    0.281004 0.760164 0.277732 0.105336
H39   H     H_    0.356286 0.776980 0.134984 0.106760
H40   H     H_    0.485492 0.870951 0.127128 0.103846
H41   H     H_    0.538691 0.950758 0.260643 0.100600
H42   H     H_    0.310396 0.048472 0.363579 0.094393
H43   H     H_    0.253549 0.134463 0.236065 0.096573
H44   H     H_    0.346788 0.234114 0.146873 0.105196
H45   H     H_    0.290891 0.532007 0.782200 0.096745
H46   H     H_    0.497507 0.247105 0.184865 0.095348
H47   H     H_    0.555633 0.161689 0.312359 0.097378
H48   H     H_    0.453015 0.828445 0.683428 0.120981
H49   H     H_    0.517606 0.736293 0.802329 0.124863
H50   H     H_    0.667408 0.757356 0.841030 0.106918
H51   H     H_    0.754078 0.869483 0.758763 0.096328
H52   H     H_    0.691985 0.959139 0.636792 0.095814
H53   H     H_    0.636048 0.323382 0.215437 0.092040
H54   H     H_    0.393954 0.758475 0.884454 0.097223
H55   H     H_    0.285653 0.858425 0.821300 0.092324
H56   H     H_    0.136230 0.810967 0.823874 0.099866
N1    N     N_1   0.500000 0.276710 0.500000 -0.188889
N2    N     N_1   0.500000 0.723290 0.500000 -0.183566
O1    O     O_R   0.380310 0.575320 0.500020 -0.467742
O2    O     O_2   0.664988 0.420444 0.302110 -0.514921
O3    O     O_R   0.619690 0.424680 0.499980 -0.470731
O4    O     O_R   0.619690 0.575320 0.499980 -0.498790
O5    O     O_R   0.380310 0.424680 0.500020 -0.501212
O6    O     O_R   0.499980 0.575350 0.370250 -0.501827
O7    O     O_R   0.500020 0.424650 0.629750 -0.510570
O8    O     O_R   0.500020 0.575350 0.629750 -0.453630
O9    O     O_R   0.499980 0.424650 0.370250 -0.476176
O10   O     O_2   0.351356 0.617254 0.701892 -0.504265

loop_
_geom_bond_atom_site_label_1
_geom_bond_atom_site_label_2
_ccdc_geom_bond_type
C100  H51   S    
C87   C88   A    
C26   C32   A    
C93   C94   A    
C15   N2    T    
C27   C29   A    
C18   C21   S    
C41   C42   A    
C57   C79   A    
C8    C96   S    
C38   H54   S    
C43   C44   A    
C97   C98   A    
C2    C57   A    
C72   H27   S    
C77   C78   A    
C27   C33   A    
C81   H35   S    
Cu2   O7    S    
C80   H33   S    
C30   C35   A    
C40   H56   S    
C28   C29   A    
C19   C21   A    
C2    C68   A    
C17   O6    A    
C5    C6    T    
C80   C81   A    
C11   C14   A    
C78   C80   A    
C55   H14   S    
C52   H10   S    
C10   C83   S    
Cu2   O5    S    
C60   H17   S    
C73   C74   A    
C23   C26   A    
C37   C42   A    
C75   H30   S    
C79   C90   A    
C54   C55   A    
C19   H1    S    
C3    C100  A    
C63   C69   A    
C84   H37   S    
C48   H7    S    
Cu2   O3    S    
C22   C25   A    
C47   C48   A    
C97   H48   S    
C3    C96   A    
C95   H47   S    
C57   C70   S    
C89   C91   A    
C9    C10   A    
C88   H41   S    
C61   C62   A    
C34   O10   D    
C56   C62   A    
Cu2   O9    S    
C65   H21   S    
C83   C88   A    
C1    O1    A    
C59   C60   A    
C74   H29   S    
C96   C97   A    
C16   N1    T    
C36   O2    D    
C94   C95   A    
C77   H31   S    
C4    C7    T    
C53   H11   S    
C13   O3    A    
C4    C90   S    
C98   H49   S    
C45   C47   A    
C94   H46   S    
C74   C75   A    
C1    C6    S    
C33   C43   S    
Cu1   Cu2   S    
C76   C77   A    
Cu1   N2    S    
C67   H24   S    
C76   C82   A    
C91   C92   A    
C18   O8    A    
C86   C87   A    
C43   C49   A    
C58   C59   A    
C85   C86   A    
Cu2   N1    S    
C58   H15   S    
C81   C82   A    
C51   C52   A    
C60   C61   A    
C67   C69   A    
C89   C95   A    
Cu1   O8    S    
C9    C14   A    
C24   C32   A    
C46   C68   A    
C37   C38   A    
C34   H45   S    
C83   C84   A    
C12   C15   S    
C1    O5    A    
C8    C12   A    
C23   C34   S    
C54   H13   S    
C50   C51   A    
C93   H44   S    
C32   C37   S    
C84   C85   A    
C78   H32   S    
C85   H38   S    
C70   C71   A    
C10   C12   A    
C48   C49   A    
C20   C22   A    
C47   H6    S    
C59   H16   S    
C21   C23   A    
C24   H23   S    
C66   H22   S    
C14   C16   S    
C71   H26   S    
C2    C5    S    
C65   C66   A    
C9    C89   S    
C39   C40   A    
C52   C53   A    
C13   O4    A    
C91   H42   S    
C73   H28   S    
C40   C41   A    
C51   H9    S    
C92   H43   S    
Cu1   O4    S    
C44   C45   A    
C17   C22   S    
C72   C73   A    
C35   H34   S    
C18   O7    A    
C41   H2    S    
C53   C54   A    
C46   C90   A    
C44   H4    S    
C25   C27   A    
C99   H50   S    
C26   C28   A    
C50   C55   A    
C99   C100  A    
C46   C63   S    
C11   C76   S    
C64   C65   A    
Cu1   O1    S    
C36   H53   S    
C24   C31   A    
C56   C79   S    
C71   C72   A    
C29   C31   A    
C20   H12   S    
C38   C39   A    
C8    C11   A    
C64   H20   S    
C28   C30   A    
C92   C93   A    
C33   C35   A    
C56   C58   A    
C66   C67   A    
C17   O9    A    
C3    H52   S    
C87   H40   S    
Cu1   O6    S    
C42   H3    S    
C25   C36   S    
C63   C64   A    
C7    C13   S    
C69   H25   S    
C82   H36   S    
C98   C99   A    
C70   C75   A    
C19   C30   A    
C50   C68   S    
C62   H19   S    
C39   H55   S    
C45   H5    S    
C86   H39   S    
C49   H8    S    
C61   H18   S    
C20   C31   A    
