data_mof_unit_60289.cif
_audit_creation_date              2012-12-10T17:43:20-0500
_audit_creation_method            fapswitch 2.2
_symmetry_space_group_name_H-M    P1
_symmetry_Int_Tables_number       1
_space_group_crystal_system       triclinic
_cell_length_a                    37.221295
_cell_length_b                    30.382988
_cell_length_c                    21.565809
_cell_angle_alpha                 89.999835
_cell_angle_beta                  54.679585
_cell_angle_gamma                 89.999873
_cell_volume                      19899.4691616

loop_
_atom_site_label
_atom_site_type_symbol
_atom_type_description
_atom_site_fract_x
_atom_site_fract_y
_atom_site_fract_z
_atom_type_partial_charge
C1    C     C_R   0.914800 0.499916 0.586469 0.946967
C2    C     C_R   0.085200 0.499916 0.413531 0.946982
C3    C     C_R   0.414800 0.999916 0.586468 0.946964
C4    C     C_R   0.585199 0.999916 0.413531 0.946986
C5    C     C_3   0.043982 0.480156 0.172097 0.557357
C6    C     C_3   0.956014 0.480168 0.827907 0.557376
C7    C     C_3   0.543977 0.980145 0.172101 0.557340
C8    C     C_3   0.456014 0.980166 0.827906 0.557373
C9    C     C_R   0.797589 0.540208 0.714092 0.654644
C10   C     C_R   0.202411 0.540209 0.285916 0.654641
C11   C     C_R   0.297590 0.040207 0.714098 0.654651
C12   C     C_R   0.702411 0.040208 0.285907 0.654645
C13   C     C_R   0.843445 0.539492 0.668434 -0.336087
C14   C     C_R   0.156555 0.539493 0.331574 -0.336078
C15   C     C_R   0.343445 0.039491 0.668439 -0.336090
C16   C     C_R   0.656555 0.039492 0.331565 -0.336070
C17   C     C_R   0.866294 0.499875 0.635750 -0.357017
C18   C     C_R   0.133706 0.499875 0.364249 -0.357012
C19   C     C_R   0.366294 0.999875 0.635750 -0.357013
C20   C     C_R   0.633706 0.999875 0.364249 -0.357025
C21   C     C_R   0.842292 0.460717 0.650253 0.592167
C22   C     C_R   0.157708 0.460716 0.349738 0.592164
C23   C     C_R   0.342292 0.960718 0.650245 0.592166
C24   C     C_R   0.657708 0.960717 0.349747 0.592167
C25   C     C_R   0.796420 0.461540 0.695944 0.555897
C26   C     C_R   0.203580 0.461538 0.304047 0.555895
C27   C     C_R   0.296420 0.961541 0.695936 0.555899
C28   C     C_R   0.703580 0.961539 0.304056 0.555895
C29   C     C_R   0.774015 0.501317 0.727128 -0.252285
C30   C     C_R   0.225984 0.501316 0.272871 -0.252292
C31   C     C_R   0.274016 0.001317 0.727128 -0.252287
C32   C     C_R   0.725984 0.001316 0.272871 -0.252284
C33   C     C_R   0.702676 0.500919 0.739696 0.461767
C34   C     C_R   0.297324 0.500912 0.260304 0.461767
C35   C     C_R   0.202676 0.000926 0.739695 0.461769
C36   C     C_R   0.797324 0.000918 0.260304 0.461773
C37   C     C_R   0.656621 0.500069 0.786694 -0.221196
C38   C     C_R   0.343379 0.500063 0.213306 -0.221195
C39   C     C_R   0.156620 0.000076 0.786694 -0.221216
C40   C     C_R   0.843379 0.000068 0.213306 -0.221215
C41   C     C_R   0.633534 0.500914 0.866204 -0.104223
C42   C     C_R   0.366466 0.500914 0.133796 -0.104224
C43   C     C_R   0.133535 0.000915 0.866204 -0.104223
C44   C     C_R   0.866465 0.000914 0.133796 -0.104224
C45   C     C_R   0.998957 0.500083 0.380842 0.888049
C46   C     C_R   0.001043 0.500082 0.619157 0.888049
C47   C     C_R   0.498958 0.000083 0.380842 0.888052
C48   C     C_R   0.501043 0.000083 0.619157 0.888048
C49   C     C_R   0.657063 0.502750 0.898623 -0.154979
C50   C     C_R   0.342937 0.502755 0.101377 -0.154980
C51   C     C_R   0.157063 0.002744 0.898623 -0.154968
C52   C     C_R   0.842937 0.002750 0.101377 -0.154971
C53   C     C_R   0.702863 0.503382 0.852428 -0.119959
C54   C     C_R   0.297137 0.503386 0.147572 -0.119957
C55   C     C_R   0.202863 0.003376 0.852428 -0.119961
C56   C     C_R   0.797137 0.003382 0.147572 -0.119962
C57   C     C_R   0.725845 0.502175 0.773269 0.123890
C58   C     C_R   0.274155 0.502174 0.226731 0.123893
C59   C     C_R   0.225845 0.002176 0.773268 0.123890
C60   C     C_R   0.774155 0.002175 0.226731 0.123889
C61   C     C_R   1.000000 0.585082 0.000000 0.818730
C62   C     C_R   0.500000 0.085082 0.000000 0.818719
C63   C     C_R   0.000014 0.497901 0.120006 0.880745
C64   C     C_R   0.999985 0.497902 0.879994 0.880735
C65   C     C_R   0.500014 0.997901 0.120006 0.880748
C66   C     C_R   0.499985 0.997902 0.879994 0.880730
C67   C     C_R   0.000000 0.414808 1.000000 0.924736
C68   C     C_R   0.500000 0.914808 1.000000 0.924738
C69   C     C_R   0.500000 0.414858 0.000000 0.882919
C70   C     C_R   0.000000 0.914858 0.000000 0.882863
C71   C     C_R   0.585067 0.500191 0.914923 0.815373
C72   C     C_R   0.414932 0.500191 0.085076 0.815374
C73   C     C_R   0.085068 0.000191 0.914923 0.815356
C74   C     C_R   0.914932 0.000191 0.085076 0.815357
C75   C     C_R   0.500000 0.585049 1.000000 0.784949
C76   C     C_R   0.000000 0.085049 1.000000 0.784950
C77   C     C_R   0.040153 0.702598 0.965377 0.351117
C78   C     C_R   0.959846 0.702599 0.034624 0.351118
C79   C     C_R   0.540149 0.202599 0.965441 0.351101
C80   C     C_R   0.459851 0.202599 0.034560 0.351101
C81   C     C_3   0.957226 0.473827 0.328233 0.073387
C82   C     C_3   0.042768 0.473816 0.671774 0.073399
C83   C     C_3   0.457220 0.973837 0.328239 0.073380
C84   C     C_3   0.542769 0.973818 0.671773 0.073397
C85   C     C_R   0.039712 0.656663 0.965215 -0.252013
C86   C     C_R   0.960288 0.656663 0.034786 -0.252011
C87   C     C_R   0.539708 0.156663 0.965276 -0.252009
C88   C     C_R   0.460291 0.156663 0.034725 -0.252007
C89   C     C_R   1.000000 0.633477 0.000000 -0.143962
C90   C     C_R   0.500000 0.133477 0.000000 -0.143956
C91   C     C_R   1.000000 0.725820 0.000001 -0.096661
C92   C     C_R   0.500000 0.225820 0.000001 -0.096657
C93   C     C_R   0.509995 0.296939 0.935675 -0.094212
C94   C     C_R   0.490005 0.296939 0.064326 -0.094212
C95   C     C_R   0.009944 0.796937 0.935708 -0.094212
C96   C     C_R   0.990056 0.796937 0.064293 -0.094212
C97   C     C_R   0.510110 0.342760 0.935311 0.588368
C98   C     C_R   0.489890 0.342760 0.064689 0.588367
C99   C     C_R   0.010059 0.842758 0.935344 0.588384
C100  C     C_R   0.989941 0.842758 0.064657 0.588384
C101  C     C_R   0.500000 0.366300 0.000000 -0.322657
C102  C     C_R   0.000000 0.866299 0.000000 -0.322677
C103  C     C_R   0.500000 0.274038 0.000000 -0.020655
C104  C     C_R   1.000000 0.774037 0.000001 -0.020670
C105  C     C_R   0.038446 0.297265 0.946187 0.598125
C106  C     C_R   0.961554 0.297265 0.053812 0.598124
C107  C     C_R   0.538446 0.797265 0.946187 0.598123
C108  C     C_R   0.461554 0.797265 0.053812 0.598122
C109  C     C_R   0.038462 0.343144 0.946550 -0.181352
C110  C     C_R   0.961538 0.343144 0.053450 -0.181347
C111  C     C_R   0.538462 0.843144 0.946550 -0.181354
C112  C     C_R   0.461538 0.843144 0.053450 -0.181343
C113  C     C_R   0.000000 0.366434 1.000000 -0.206703
C114  C     C_R   0.500000 0.866434 1.000000 -0.206704
C115  C     C_3   0.961423 0.468408 0.252592 0.422652
C116  C     C_3   0.038569 0.468399 0.747417 0.422633
C117  C     C_3   0.461415 0.968417 0.252600 0.422672
C118  C     C_3   0.538571 0.968400 0.747415 0.422637
C119  C     C_R   0.000000 0.274077 1.000000 -0.204067
C120  C     C_R   0.500000 0.774077 1.000000 -0.204068
C121  C     C_R   0.489738 0.702644 0.064559 -0.046390
C122  C     C_R   0.510262 0.702644 0.935440 -0.046388
C123  C     C_R   0.989738 0.202644 0.064559 -0.046387
C124  C     C_R   0.010262 0.202644 0.935440 -0.046386
C125  C     C_R   0.489970 0.656772 0.064454 -0.167071
C126  C     C_R   0.510029 0.656772 0.935546 -0.167071
C127  C     C_R   0.989970 0.156772 0.064454 -0.167068
C128  C     C_R   0.010030 0.156772 0.935546 -0.167068
C129  C     C_R   0.500000 0.633447 1.000000 -0.046904
C130  C     C_R   0.000000 0.133447 1.000000 -0.046906
C131  C     C_R   0.500000 0.725757 1.000000 0.181186
C132  C     C_R   0.000000 0.225757 1.000000 0.181184
C133  C     C_3   0.996983 0.547682 0.286130 0.516247
C134  C     C_3   0.003029 0.547682 0.713857 0.516250
C135  C     C_3   0.496995 0.047683 0.286118 0.516243
C136  C     C_3   0.503027 0.047682 0.713859 0.516247
C137  C     C_3   0.040638 0.477104 0.246677 -0.455940
C138  C     C_3   0.959356 0.477115 0.753328 -0.455962
C139  C     C_3   0.540633 0.977094 0.246681 -0.455930
C140  C     C_3   0.459357 0.977113 0.753327 -0.455958
C141  C     C_3   0.997968 0.500128 0.312674 -0.225829
C142  C     C_3   0.002033 0.500128 0.687325 -0.225821
C143  C     C_3   0.497968 0.000129 0.312674 -0.225831
C144  C     C_3   0.502033 0.000128 0.687325 -0.225820
C145  C     C_3   0.999779 0.497595 0.189137 -0.198875
C146  C     C_3   0.000221 0.497595 0.810863 -0.198873
C147  C     C_3   0.499779 0.997594 0.189137 -0.198874
C148  C     C_3   0.500220 0.997595 0.810863 -0.198867
C149  C     C_3   0.993332 0.545536 0.218467 -0.642296
C150  C     C_3   0.006681 0.545535 0.781520 -0.642298
C151  C     C_3   0.493344 0.045537 0.218455 -0.642302
C152  C     C_3   0.506678 0.045535 0.781522 -0.642302
Cu1   Cu    Cu3+1 0.000000 0.544030 0.500000 1.116934
Cu2   Cu    Cu3+1 0.500000 0.044030 0.500000 1.116932
Cu3   Cu    Cu3+1 0.000000 0.455920 0.500000 1.147830
Cu4   Cu    Cu3+1 0.500000 0.955920 0.500000 1.147815
Cu5   Cu    Cu3+1 0.955920 0.499940 0.044070 1.075943
Cu6   Cu    Cu3+1 0.044080 0.499940 0.955930 1.075926
Cu7   Cu    Cu3+1 0.455920 0.999940 0.044070 1.075961
Cu8   Cu    Cu3+1 0.544080 0.999940 0.955930 1.075927
Cu9   Cu    Cu3+1 0.499970 0.499990 0.937550 1.083859
Cu10  Cu    Cu3+1 0.500030 0.499990 0.062450 1.083859
Cu11  Cu    Cu3+1 0.999970 0.999990 0.937550 1.083874
Cu12  Cu    Cu3+1 0.000030 0.999990 0.062450 1.083873
H1    H     H_    0.071111 0.503219 0.132771 0.126014
H2    H     H_    0.928890 0.503238 0.867227 0.126007
H3    H     H_    0.571112 0.003200 0.132768 0.126020
H4    H     H_    0.428890 0.003235 0.867227 0.126010
H5    H     H_    0.018424 0.567554 0.172089 0.233348
H6    H     H_    0.981595 0.567560 0.827892 0.233343
H7    H     H_    0.518442 0.067549 0.172071 0.233347
H8    H     H_    0.481592 0.067559 0.827895 0.233336
H9    H     H_    0.861029 0.570019 0.658548 0.239544
H10   H     H_    0.138971 0.570021 0.341466 0.239546
H11   H     H_    0.361030 0.070018 0.658559 0.239542
H12   H     H_    0.638971 0.070019 0.341451 0.239546
H13   H     H_    0.638757 0.498657 0.761132 0.210746
H14   H     H_    0.361244 0.498646 0.238867 0.210747
H15   H     H_    0.138757 0.998670 0.761131 0.210741
H16   H     H_    0.861243 0.998656 0.238868 0.210743
H17   H     H_    0.640137 0.503571 0.959691 0.184739
H18   H     H_    0.359863 0.503580 0.040309 0.184738
H19   H     H_    0.140137 0.003559 0.959691 0.184744
H20   H     H_    0.859863 0.003571 0.040309 0.184743
H21   H     H_    0.957619 0.440449 0.349104 0.205140
H22   H     H_    0.042366 0.440438 0.650913 0.205139
H23   H     H_    0.457605 0.940459 0.349118 0.205139
H24   H     H_    0.542369 0.940441 0.650909 0.205138
H25   H     H_    0.720534 0.504415 0.878424 0.171121
H26   H     H_    0.279466 0.504424 0.121576 0.171120
H27   H     H_    0.220534 0.004403 0.878424 0.171121
H28   H     H_    0.779466 0.004415 0.121576 0.171123
H29   H     H_    0.070474 0.638878 0.938155 0.208640
H30   H     H_    0.929525 0.638878 0.061845 0.208640
H31   H     H_    0.570468 0.138878 0.938264 0.208638
H32   H     H_    0.429532 0.138878 0.061736 0.208639
H33   H     H_    0.517746 0.279187 0.885759 0.198659
H34   H     H_    0.482254 0.279187 0.114242 0.198659
H35   H     H_    0.017654 0.779185 0.885817 0.198656
H36   H     H_    0.982346 0.779185 0.114184 0.198656
H37   H     H_    0.068497 0.360402 0.904661 0.214628
H38   H     H_    0.931503 0.360402 0.095338 0.214631
H39   H     H_    0.568497 0.860402 0.904661 0.214628
H40   H     H_    0.431503 0.860402 0.095338 0.214634
H41   H     H_    0.481928 0.720158 0.114705 0.176239
H42   H     H_    0.518072 0.720158 0.885295 0.176238
H43   H     H_    0.981928 0.220158 0.114705 0.176239
H44   H     H_    0.018072 0.220158 0.885294 0.176239
H45   H     H_    0.481987 0.639608 0.114971 0.176856
H46   H     H_    0.518013 0.639608 0.885029 0.176856
H47   H     H_    0.981986 0.139608 0.114971 0.176857
H48   H     H_    0.018014 0.139608 0.885028 0.176857
H49   H     H_    0.930128 0.477422 0.260531 0.181137
H50   H     H_    0.069866 0.477405 0.739476 0.181136
H51   H     H_    0.430123 0.977439 0.260538 0.181139
H52   H     H_    0.569867 0.977407 0.739475 0.181136
H53   H     H_    0.968562 0.566554 0.333070 0.188016
H54   H     H_    0.031455 0.566546 0.666912 0.188009
H55   H     H_    0.468578 0.066561 0.333053 0.188019
H56   H     H_    0.531451 0.066548 0.666915 0.188009
H57   H     H_    0.960536 0.557975 0.236321 0.215962
H58   H     H_    0.039480 0.557964 0.763662 0.215966
H59   H     H_    0.460552 0.057984 0.236304 0.215954
H60   H     H_    0.539477 0.057966 0.763665 0.215968
H61   H     H_    0.070300 0.492503 0.238294 0.189510
H62   H     H_    0.929698 0.492521 0.761706 0.189510
H63   H     H_    0.570299 0.992486 0.238294 0.189510
H64   H     H_    0.429699 0.992517 0.761705 0.189510
H65   H     H_    0.040525 0.441916 0.261184 0.241459
H66   H     H_    0.959461 0.441926 0.738830 0.241452
H67   H     H_    0.540511 0.941906 0.261197 0.241462
H68   H     H_    0.459464 0.941924 0.738827 0.241452
O1    O     O_R   0.935720 0.537180 0.564270 -0.578873
O2    O     O_R   0.064280 0.537180 0.435730 -0.578881
O3    O     O_R   0.435720 0.037180 0.564270 -0.578865
O4    O     O_R   0.564280 0.037180 0.435730 -0.578876
O5    O     O_R   0.564240 0.499990 0.883000 -0.574288
O6    O     O_R   0.435760 0.499990 0.117000 -0.574287
O7    O     O_R   0.064240 0.999990 0.883000 -0.574306
O8    O     O_R   0.935760 0.999990 0.117000 -0.574306
O9    O     O_R   0.564250 0.499990 0.988510 -0.586175
O10   O     O_R   0.435750 0.499990 0.011490 -0.586174
O11   O     O_R   0.064250 0.999990 0.988510 -0.586159
O12   O     O_R   0.935750 0.999990 0.011490 -0.586159
O13   O     O_R   0.500010 0.564260 0.947230 -0.585661
O14   O     O_R   0.499990 0.564260 0.052770 -0.585661
O15   O     O_R   0.000010 0.064260 0.947230 -0.585659
O16   O     O_R   0.999990 0.064260 0.052770 -0.585658
O17   O     O_R   0.935680 0.462770 0.564310 -0.519702
O18   O     O_R   0.064320 0.462770 0.435690 -0.519692
O19   O     O_R   0.435680 0.962770 0.564310 -0.519711
O20   O     O_R   0.564320 0.962770 0.435690 -0.519698
O21   O     O_R   0.999990 0.537180 0.408860 -0.535224
O22   O     O_R   0.000010 0.537180 0.591140 -0.535225
O23   O     O_R   0.499990 0.037180 0.408860 -0.535224
O24   O     O_R   0.500010 0.037180 0.591140 -0.535226
O25   O     O_R   0.999950 0.462770 0.408890 -0.598377
O26   O     O_R   0.000050 0.462770 0.591110 -0.598375
O27   O     O_R   0.499950 0.962770 0.408890 -0.598383
O28   O     O_R   0.500050 0.962770 0.591110 -0.598375
O29   O     O_R   0.962770 0.564220 0.037230 -0.587688
O30   O     O_R   0.037230 0.564220 0.962770 -0.587687
O31   O     O_R   0.462770 0.064220 0.037230 -0.587678
O32   O     O_R   0.537230 0.064220 0.962770 -0.587675
O33   O     O_R   0.962780 0.499950 0.128370 -0.591273
O34   O     O_R   0.037220 0.499950 0.871630 -0.591280
O35   O     O_R   0.462780 0.999950 0.128370 -0.591262
O36   O     O_R   0.537220 0.999950 0.871630 -0.591277
O37   O     O_R   0.037180 0.500000 0.053970 -0.569831
O38   O     O_R   0.962820 0.500000 0.946030 -0.569812
O39   O     O_R   0.537180 0.000000 0.053970 -0.569852
O40   O     O_R   0.462820 0.000000 0.946030 -0.569817
O41   O     O_R   0.962780 0.435670 0.037210 -0.570081
O42   O     O_R   0.037220 0.435670 0.962790 -0.570088
O43   O     O_R   0.462780 0.935670 0.037210 -0.570078
O44   O     O_R   0.537220 0.935670 0.962790 -0.570092
O45   O     O_R   0.499930 0.435710 0.947300 -0.518027
O46   O     O_R   0.500070 0.435710 0.052700 -0.518029
O47   O     O_R   0.999930 0.935710 0.947300 -0.517997
O48   O     O_R   0.000070 0.935710 0.052700 -0.517999
S1    S     S_3+6 0.904288 0.497894 0.401112 -0.015128
O49   O     O_2   0.888594 0.528276 0.366345 -0.309219
O50   O     O_2   0.871322 0.461449 0.442051 -0.187662
O51   O     O_3   0.907160 0.526855 0.464304 -0.571430
H69   H     H_    0.878075 0.541349 0.497212 0.387349
S2    S     S_3+6 0.095711 0.497869 0.598886 -0.015125
O52   O     O_2   0.111419 0.528241 0.633646 -0.309224
O53   O     O_2   0.128667 0.461415 0.557947 -0.187637
O54   O     O_3   0.092843 0.526838 0.535697 -0.571459
H70   H     H_    0.121929 0.541334 0.502796 0.387344
S3    S     S_3+6 0.404288 0.997916 0.401112 -0.015134
O55   O     O_2   0.388604 0.028308 0.366337 -0.309220
O56   O     O_2   0.371311 0.961480 0.442051 -0.187685
O57   O     O_3   0.407164 0.026871 0.464305 -0.571409
H71   H     H_    0.378081 0.041368 0.497215 0.387350
S4    S     S_3+6 0.595711 0.997874 0.598888 -0.015121
O58   O     O_2   0.611414 0.028251 0.633650 -0.309229
O59   O     O_2   0.628670 0.961423 0.557953 -0.187630
O60   O     O_3   0.592844 0.026839 0.535695 -0.571448
H72   H     H_    0.621931 0.041332 0.502789 0.387343
F1    F     F_    0.034911 0.570397 0.264564 -0.632515
F2    F     F_    0.965107 0.570406 0.735418 -0.632508
F3    F     F_    0.534928 0.070389 0.264548 -0.632525
F4    F     F_    0.465104 0.070404 0.735422 -0.632513
F5    F     F_    0.776157 0.578900 0.744437 -0.592523
F6    F     F_    0.223843 0.578901 0.255579 -0.592521
F7    F     F_    0.276157 0.078898 0.744450 -0.592520
F8    F     F_    0.723843 0.078899 0.255562 -0.592522
F9    F     F_    0.862922 0.421715 0.619672 -0.550775
F10   F     F_    0.137078 0.421713 0.380311 -0.550771
F11   F     F_    0.362922 0.921717 0.619656 -0.550781
F12   F     F_    0.637078 0.921715 0.380329 -0.550771
F13   F     F_    0.773727 0.423542 0.709741 -0.548356
F14   F     F_    0.226273 0.423539 0.290241 -0.548354
F15   F     F_    0.273727 0.923543 0.709726 -0.548360
F16   F     F_    0.726273 0.923541 0.290260 -0.548359
S5    S     S_3+6 0.730225 0.500216 0.639745 0.084859
O61   O     O_2   0.747925 0.454729 0.610751 -0.180988
O62   O     O_2   0.698989 0.512149 0.619519 -0.233655
O63   O     O_3   0.772229 0.536303 0.598438 -0.509697
H73   H     H_    0.790592 0.528294 0.543868 0.406163
S6    S     S_3+6 0.269775 0.500200 0.360254 0.084860
O64   O     O_2   0.252073 0.454712 0.389238 -0.180994
O65   O     O_2   0.301010 0.512126 0.380483 -0.233645
O66   O     O_3   0.227771 0.536288 0.401568 -0.509698
H74   H     H_    0.209405 0.528271 0.456134 0.406157
S7    S     S_3+6 0.230225 0.000231 0.639744 0.084857
O67   O     O_2   0.247925 0.954745 0.610741 -0.180993
O68   O     O_2   0.198989 0.012169 0.619521 -0.233657
O69   O     O_3   0.272229 0.036317 0.598445 -0.509690
H75   H     H_    0.290592 0.028313 0.543874 0.406166
S8    S     S_3+6 0.769775 0.000214 0.360255 0.084854
O70   O     O_2   0.752077 0.954725 0.389247 -0.180986
O71   O     O_2   0.801010 0.012148 0.380480 -0.233658
O72   O     O_3   0.727769 0.036298 0.401564 -0.509710
H76   H     H_    0.709407 0.028289 0.456133 0.406156
S9    S     S_3+6 0.091458 0.729952 0.921731 0.063747
O73   O     O_2   0.102954 0.751269 0.849525 -0.197363
O74   O     O_2   0.088594 0.764966 0.973671 -0.261926
O75   O     O_3   0.131619 0.694261 0.900567 -0.461069
H77   H     H_    0.125344 0.685722 0.950274 0.356516
S10   S     S_3+6 0.908541 0.729953 0.078271 0.063748
O76   O     O_2   0.897046 0.751270 0.150476 -0.197361
O77   O     O_2   0.911405 0.764966 0.026330 -0.261925
O78   O     O_3   0.868381 0.694261 0.099435 -0.461067
H78   H     H_    0.874655 0.685723 0.049728 0.356515
S11   S     S_3+6 0.591448 0.229952 0.921879 0.063747
O79   O     O_2   0.602997 0.251255 0.849630 -0.197352
O80   O     O_2   0.588543 0.264977 0.973840 -0.261928
O81   O     O_3   0.631589 0.194262 0.900820 -0.461072
H79   H     H_    0.625269 0.185726 0.950560 0.356506
S12   S     S_3+6 0.408552 0.229952 0.078122 0.063750
O82   O     O_2   0.397002 0.251255 0.150371 -0.197350
O83   O     O_2   0.411457 0.264977 0.026161 -0.261927
O84   O     O_3   0.368411 0.194262 0.099181 -0.461069
H80   H     H_    0.374730 0.185726 0.049441 0.356506
F17   F     F_    0.520701 0.363773 0.871235 -0.592336
F18   F     F_    0.479299 0.363773 0.128766 -0.592336
F19   F     F_    0.020597 0.863770 0.871297 -0.592328
F20   F     F_    0.979403 0.863770 0.128703 -0.592329
F21   F     F_    0.076128 0.275483 0.894236 -0.610452
F22   F     F_    0.923872 0.275483 0.105763 -0.610452
F23   F     F_    0.576128 0.775483 0.894236 -0.610453
F24   F     F_    0.423872 0.775483 0.105763 -0.610452
F25   F     F_    0.968848 0.424542 0.230713 -0.592587
F26   F     F_    0.031133 0.424534 0.769308 -0.592594
F27   F     F_    0.468829 0.924549 0.230732 -0.592580
F28   F     F_    0.531135 0.924536 0.769305 -0.592595
F29   F     F_    0.054511 0.439272 0.137096 -0.582160
F30   F     F_    0.945474 0.439286 0.862918 -0.582152
F31   F     F_    0.554496 0.939258 0.137111 -0.582171
F32   F     F_    0.445476 0.939284 0.862916 -0.582155

loop_
_geom_bond_atom_site_label_1
_geom_bond_atom_site_label_2
_ccdc_geom_bond_type
Cu5   O29   S    
Cu5   Cu6   S    
Cu6   O34   S    
C55   C59   A    
C122  H42   S    
Cu11  O15   S    
S3    O55   D    
C77   S9    S    
C79   C87   A    
S9    O73   D    
S1    O51   S    
C13   H9    S    
C26   F14   S    
C149  H57   S    
O51   H69   S    
C73   O7    A    
C51   H19   S    
C6    C146  S    
C95   C99   A    
S6    O66   S    
C10   F6    S    
C47   C143  S    
C70   O48   A    
C48   C144  S    
C31   C59   S    
C138  H62   S    
C108  C120  A    
C8    H4    S    
C3    O3    A    
C146  C150  S    
C11   C15   A    
C48   O28   A    
C12   C16   A    
C1    O1    A    
C3    C19   S    
C65   C147  S    
C66   C148  S    
C74   O12   A    
C122  C126  A    
C124  H44   S    
C76   O16   A    
C41   C49   A    
C136  C152  S    
Cu2   O23   S    
C25   C29   A    
O69   H75   S    
C27   C31   A    
C28   C32   A    
C81   S1    S    
O75   H77   S    
C4    O20   A    
C111  H39   S    
Cu3   O26   S    
C83   S3    S    
S10   O76   D    
C126  C129  A    
C17   C21   A    
C135  F3    S    
C55   H27   S    
C80   C92   A    
S5    O63   S    
C19   C23   A    
C10   C30   A    
O84   H80   S    
C16   C20   A    
S12   O82   D    
C42   C72   S    
Cu10  O9    S    
C44   C74   S    
C63   O33   A    
C64   O38   A    
C136  H56   S    
S4    O58   D    
C96   C104  A    
C136  F4    S    
C112  H40   S    
C107  C120  A    
S9    O75   S    
Cu11  O7    S    
Cu1   O21   S    
C77   C91   A    
C107  F23   S    
C36   S8    S    
S2    O54   S    
C64   C146  S    
C52   H20   S    
S10   O78   S    
C62   O31   A    
C5    C137  S    
C69   C101  S    
C110  H38   S    
C8    C140  S    
C83   C117  S    
C61   O29   A    
C80   C88   A    
C83   C143  S    
C78   S10   S    
C150  H6    S    
Cu11  O47   S    
C49   C53   A    
C118  C148  S    
C12   F8    S    
Cu1   O2    S    
C51   C55   A    
C74   O8    A    
O81   H79   S    
C87   H31   S    
O72   H76   S    
C4    C20   S    
C125  C129  A    
C14   H10   S    
C34   C58   A    
C139  H67   S    
C106  F22   S    
Cu12  O11   S    
C43   C73   S    
S2    O53   D    
C6    C138  S    
C123  C132  A    
C147  C151  S    
C93   C103  A    
C112  C114  A    
Cu3   O17   S    
Cu4   O19   S    
C121  C125  A    
Cu6   O37   S    
C21   C25   A    
C149  H5    S    
C35   C59   A    
S3    O56   D    
C3    O19   A    
C152  H8    S    
C1    O17   A    
C84   C144  S    
S12   O84   S    
C151  H7    S    
C115  H49   S    
C117  H51   S    
C9    C13   A    
C139  C143  S    
S4    O60   S    
Cu6   O30   S    
C73   O11   A    
C41   C71   S    
C44   C52   A    
C135  C143  S    
C77   C85   A    
C40   H16   S    
C4    O4    A    
C50   H18   S    
C7    C147  S    
C140  H64   S    
C5    C145  S    
C72   O10   A    
C138  H66   S    
S8    O70   D    
C11   F7    S    
C10   C14   A    
S7    O68   D    
C125  H45   S    
C93   H33   S    
Cu9   O13   S    
C116  F26   S    
C123  C127  A    
C54   C58   A    
O54   H70   S    
C75   O14   A    
C42   C50   A    
C49   H17   S    
Cu8   O36   S    
C24   F12   S    
C93   C97   A    
C122  C131  A    
C100  F20   S    
C7    F31   S    
C96   H36   S    
C7    H3    S    
C54   H26   S    
C18   C22   A    
C107  C111  A    
C148  C152  S    
C39   H15   S    
C26   C30   A    
S1    O50   D    
C37   H13   S    
C1    C17   S    
C13   C17   A    
C67   O42   A    
C63   O37   A    
C35   S7    S    
Cu9   O45   S    
C86   H30   S    
S11   O81   S    
C116  C146  S    
C68   C114  S    
C68   O43   A    
C69   O46   A    
C96   C100  A    
C151  H59   S    
C37   C41   A    
C40   C44   A    
Cu7   O31   S    
Cu8   O32   S    
C118  H52   S    
C53   H25   S    
C63   C145  S    
C21   F9    S    
C6    H2    S    
C46   O26   A    
C106  C119  A    
C120  C131  S    
S8    O72   S    
C121  H41   S    
C82   C142  S    
Cu9   Cu10  S    
C46   C142  S    
Cu2   O24   S    
C15   C19   A    
C50   C54   A    
C82   H22   S    
C56   H28   S    
Cu5   O41   S    
O57   H71   S    
Cu3   O25   S    
S10   O77   D    
Cu9   O5    S    
C94   C98   A    
C139  H63   S    
S5    O62   D    
C105  C109  A    
C2    O2    A    
C47   O27   A    
S12   O83   D    
Cu2   O3    S    
Cu8   O44   S    
Cu1   Cu3   S    
Cu2   Cu4   S    
C124  C128  A    
Cu4   O27   S    
C16   H12   S    
S4    O59   D    
S6    O64   D    
C45   C141  S    
C150  H58   S    
C8    C148  S    
C133  F1    S    
S9    O74   D    
C8    F32   S    
C24   C28   A    
C33   S5    S    
C138  C142  S    
C62   O32   A    
S11   O79   D    
C53   C57   A    
C134  H54   S    
C97   F17   S    
C70   O47   A    
C108  C112  A    
C99   F19   S    
O60   H72   S    
C47   O23   A    
C134  C142  S    
Cu7   Cu8   S    
C34   S6    S    
Cu1   O1    S    
Cu9   O10   S    
C137  H65   S    
C29   C57   S    
C94   C103  A    
C140  H68   S    
C152  H60   S    
C72   O6    A    
C84   H24   S    
C76   O15   A    
C80   S12   S    
C32   C60   S    
C65   O35   A    
C66   O36   A    
Cu7   O40   S    
C137  C141  S    
Cu8   O39   S    
C85   C89   A    
C140  C144  S    
C86   C89   A    
C128  C130  A    
C70   C102  S    
C45   O25   A    
C84   S4    S    
C98   C101  A    
Cu5   O33   S    
C115  C145  S    
C133  C141  S    
C117  C147  S    
C109  H37   S    
C82   C116  S    
S7    O67   D    
C136  C144  S    
C128  H48   S    
C43   C51   A    
C25   F13   S    
C135  C151  S    
C111  C114  A    
C28   F16   S    
O66   H74   S    
C82   S2    S    
C33   C37   A    
Cu10  O6    S    
C56   C60   A    
C99   C102  A    
C9    F5    S    
C22   C26   A    
C87   C90   A    
C105  C119  A    
C64   O34   A    
C98   F18   S    
C105  F21   S    
C46   O22   A    
C145  C149  S    
Cu1   O22   S    
C38   H14   S    
C2    C18   S    
C14   C18   A    
C35   C39   A    
Cu11  Cu12  S    
C91   C104  S    
Cu10  O46   S    
C124  C132  A    
C71   O5    A    
S8    O71   D    
C61   O30   A    
C38   C42   A    
C88   H32   S    
C2    O18   A    
S2    O52   D    
Cu7   O35   S    
C134  C150  S    
C30   C58   S    
C117  F27   S    
C115  F25   S    
C92   C103  S    
C5    F29   S    
C20   C24   A    
S6    O65   D    
Cu12  O8    S    
C137  H61   S    
C23   F11   S    
C23   C27   A    
C48   O24   A    
C75   O13   A    
C109  C113  A    
C67   O41   A    
C78   C86   A    
C81   C141  S    
C11   C31   A    
C12   C32   A    
C83   H23   S    
C76   C130  S    
C121  C131  A    
C65   O39   A    
C81   H21   S    
Cu3   O18   S    
C61   C89   S    
Cu6   O42   S    
C36   C40   A    
S3    O57   S    
C133  C149  S    
C71   O9    A    
C116  H50   S    
C126  H46   S    
C39   C43   A    
S1    O49   D    
C133  H53   S    
C94   H34   S    
Cu10  O14   S    
S11   O80   D    
C68   O44   A    
C135  H55   S    
C81   C115  S    
C100  C102  A    
C119  C132  S    
C123  H43   S    
Cu11  O12   S    
C22   F10   S    
C110  C113  A    
C79   C92   A    
C84   C118  S    
C5    H1    S    
Cu4   O20   S    
C118  F28   S    
C95   C104  A    
C106  C110  A    
C69   O45   A    
C6    F30   S    
C33   C57   A    
C34   C38   A    
C88   C90   A    
C36   C60   A    
S7    O69   S    
C108  F24   S    
C9    C29   A    
C78   C91   A    
C79   S11   S    
C15   H11   S    
Cu7   O43   S    
O63   H73   S    
C67   C113  S    
C127  C130  A    
C127  H47   S    
C7    C139  S    
C85   H29   S    
Cu5   O38   S    
C62   C90   S    
S5    O61   D    
Cu12  O16   S    
C66   O40   A    
C75   C129  S    
C95   H35   S    
Cu2   O4    S    
Cu12  O48   S    
C27   F15   S    
C134  F2    S    
O78   H78   S    
C97   C101  A    
C52   C56   A    
C45   O21   A    
Cu4   O28   S    
