data_mof_unit_58703.cif
_audit_creation_date              2012-12-11T14:23:07-0500
_audit_creation_method            fapswitch 2.2
_symmetry_space_group_name_H-M    P1
_symmetry_Int_Tables_number       1
_space_group_crystal_system       triclinic
_cell_length_a                    11.081161
_cell_length_b                    10.90004
_cell_length_c                    18.85231
_cell_angle_alpha                 90.155447
_cell_angle_beta                  90.184971
_cell_angle_gamma                 59.87396
_cell_volume                      1969.48631525

loop_
_atom_site_label
_atom_site_type_symbol
_atom_type_description
_atom_site_fract_x
_atom_site_fract_y
_atom_site_fract_z
_atom_type_partial_charge
C1    C     C_R   0.240897 0.643873 0.611193 0.543091
C2    C     C_R   0.550823 0.206169 0.719429 -0.159769
C3    C     C_R   0.561918 0.202538 0.791569 -0.165670
C4    C     C_R   0.653516 0.622867 0.600833 0.543171
C5    C     C_R   0.928183 0.126864 0.813458 -0.090085
C6    C     C_R   0.041951 0.097923 0.770913 -0.134389
C7    C     C_R   0.034861 0.086171 0.697882 -0.129153
C8    C     C_R   0.912920 0.106047 0.666552 -0.087976
C9    C     C_R   0.663733 0.179391 0.676348 -0.011990
C10   C     C_R   0.193004 0.656843 0.837467 -0.007735
C11   C     C_R   0.196819 0.542647 0.799508 0.023259
C12   C     C_3   0.664175 0.557849 0.800191 -0.250613
C13   C     C_R   0.190785 0.547025 0.724112 0.019030
C14   C     C_R   0.230095 0.747244 0.728348 -0.150620
C15   C     C_R   0.221179 0.750968 0.801483 -0.153877
C16   C     C_R   0.628004 0.228400 0.602904 0.530399
C17   C     C_R   0.206745 0.424149 0.834937 -0.101684
C18   C     C_R   0.197301 0.319191 0.797764 -0.149362
C19   C     C_R   0.174244 0.331852 0.724990 -0.158719
C20   C     C_R   0.169175 0.445295 0.688412 -0.117789
C21   C     C_R   0.208225 0.651721 0.687882 -0.003718
C22   C     C_R   0.729932 0.697379 0.181819 -0.001479
C23   C     C_3   0.700011 0.675806 0.811566 0.045368
C24   C     C_R   0.801557 0.557804 0.211626 0.038752
C25   C     C_R   0.746719 0.534995 0.272875 0.024861
C26   C     C_R   0.626513 0.788924 0.296908 -0.153521
C27   C     C_R   0.649921 0.812616 0.226610 -0.160607
C28   C     C_R   0.287003 0.622156 0.392576 0.561328
C29   C     C_R   0.921799 0.438336 0.181796 -0.091230
C30   C     C_R   0.970378 0.301770 0.205668 -0.148503
C31   C     C_R   0.902165 0.279932 0.260093 -0.119601
C32   C     C_R   0.782810 0.394120 0.288267 -0.073268
C33   C     C_R   0.664817 0.651384 0.318654 0.007948
C34   C     C_3   0.669641 0.648988 0.676101 0.055074
C35   C     C_R   0.661185 0.147967 0.178784 0.001102
C36   C     C_R   0.528919 0.210638 0.209632 0.012555
C37   C     C_R   0.519805 0.192029 0.282471 0.036055
C38   C     C_R   0.769066 0.092618 0.295838 -0.185519
C39   C     C_R   0.781136 0.083291 0.222477 -0.150875
C40   C     C_R   0.641428 0.621371 0.391449 0.528291
C41   C     C_R   0.406907 0.273919 0.168248 -0.080009
C42   C     C_R   0.286411 0.283050 0.194003 -0.119570
C43   C     C_R   0.279549 0.247430 0.263951 -0.156953
C44   C     C_R   0.394959 0.201848 0.307952 -0.095915
C45   C     C_3   0.818483 0.620270 0.690787 -0.245978
C46   C     C_R   0.637951 0.159368 0.326000 -0.003890
C47   C     C_R   0.176599 0.654129 0.175651 -0.000450
C48   C     C_R   0.264007 0.706134 0.197286 0.027420
C49   C     C_R   0.280775 0.719023 0.270425 0.011372
C50   C     C_R   0.169480 0.579063 0.294342 -0.128159
C51   C     C_R   0.127282 0.595341 0.224856 -0.152204
C52   C     C_R   0.616383 0.224513 0.396371 0.525707
C53   C     C_R   0.316366 0.765331 0.147998 -0.075165
C54   C     C_R   0.348085 0.867231 0.169982 -0.102566
C55   C     C_R   0.339787 0.900479 0.241389 -0.142698
C56   C     C_3   0.643908 0.543592 0.720555 -0.212656
C57   C     C_R   0.317688 0.820484 0.291643 -0.111981
C58   C     C_R   0.246706 0.639906 0.318297 0.004984
C59   C     C_R   0.702479 0.103248 0.896440 0.537232
C60   C     C_R   0.724771 0.688808 0.887639 0.553964
C61   C     C_R   0.121629 0.702990 0.906669 0.535718
C62   C     C_R   0.677734 0.103857 0.104844 0.526707
C63   C     C_R   0.737984 0.717696 0.105032 0.569107
C64   C     C_3   0.579530 0.817320 0.780449 -0.229251
C65   C     C_R   0.099112 0.705278 0.110315 0.523654
C66   C     C_3   0.564623 0.802667 0.700060 -0.241502
C67   C     C_R   0.688627 0.162977 0.824904 -0.012791
C68   C     C_3   0.835554 0.638527 0.770254 -0.219685
C69   C     C_R   0.803866 0.143931 0.783249 0.019041
C70   C     C_R   0.793540 0.142966 0.707925 0.012451
Cr1   Cr    Cr6+3 0.392940 0.397950 0.502230 0.997172
Cr2   Cr    Cr6+3 0.398400 0.708500 0.501260 0.986484
Cr3   Cr    Cr6+3 0.708640 0.393530 0.496460 0.995839
Cr4   Cr    Cr6+3 0.937880 0.938320 0.007620 0.997560
Cr5   Cr    Cr6+3 0.625560 0.937220 0.994510 0.989155
Cr6   Cr    Cr6+3 0.938080 0.625010 0.001190 0.980645
H1    H     H_    0.601084 0.905402 0.789815 0.149524
H2    H     H_    0.914696 0.089156 0.609978 0.135693
H3    H     H_    0.255500 0.820229 0.703415 0.133992
H4    H     H_    0.479358 0.845945 0.807245 0.115116
H5    H     H_    0.228666 0.407904 0.891154 0.128636
H6    H     H_    0.229836 0.832650 0.829857 0.132069
H7    H     H_    0.208214 0.228415 0.826133 0.104568
H8    H     H_    0.162670 0.252577 0.696304 0.115873
H9    H     H_    0.144999 0.452487 0.632617 0.140023
H10   H     H_    0.570349 0.877960 0.332516 0.115018
H11   H     H_    0.985303 0.447368 0.141742 0.147190
H12   H     H_    0.717457 0.432529 0.704042 0.152522
H13   H     H_    0.604213 0.919847 0.206974 0.139507
H14   H     H_    0.061587 0.212776 0.182343 0.113555
H15   H     H_    0.945321 0.174549 0.280809 0.117695
H16   H     H_    0.455797 0.830047 0.688240 0.128468
H17   H     H_    0.720382 0.373281 0.323091 0.169774
H18   H     H_    0.861019 0.050583 0.329190 0.125193
H19   H     H_    0.406579 0.306786 0.114062 0.128724
H20   H     H_    0.885016 0.024728 0.200170 0.162690
H21   H     H_    0.200878 0.315474 0.158226 0.097325
H22   H     H_    0.186244 0.252852 0.284531 0.121053
H23   H     H_    0.923579 0.538068 0.790809 0.168845
H24   H     H_    0.387242 0.164679 0.359869 0.137860
H25   H     H_    0.132221 0.528019 0.330290 0.150569
H26   H     H_    0.319661 0.743457 0.091730 0.126111
H27   H     H_    0.050428 0.568160 0.210524 0.124511
H28   H     H_    0.584497 0.879331 0.670790 0.119623
H29   H     H_    0.375112 0.923219 0.131682 0.139357
H30   H     H_    0.360095 0.982310 0.258526 0.120824
H31   H     H_    0.322304 0.847999 0.345802 0.165414
H32   H     H_    0.862825 0.723072 0.778056 0.128747
H33   H     H_    0.839580 0.693896 0.659472 0.113342
H34   H     H_    0.895876 0.510158 0.674695 0.147394
H35   H     H_    0.749566 0.455150 0.821017 0.133804
H36   H     H_    0.567132 0.583390 0.829384 0.117281
H37   H     H_    0.536412 0.563370 0.710975 0.129403
H38   H     H_    0.449992 0.234567 0.697595 0.168929
H39   H     H_    0.938394 0.140858 0.869338 0.142756
H40   H     H_    0.471762 0.220558 0.821522 0.153842
H41   H     H_    0.138006 0.079530 0.794936 0.089873
H42   H     H_    0.124925 0.059756 0.665282 0.101125
O1    O     O_R   0.507340 0.255690 0.581430 -0.526504
O2    O     O_R   0.837290 0.593240 0.915240 -0.522545
O3    O     O_R   0.065320 0.635310 0.931580 -0.513369
O4    O     O_R   0.280360 0.527380 0.578910 -0.506070
O5    O     O_R   0.068470 0.828620 0.091850 -0.525661
O6    O     O_R   0.799150 0.057200 0.079350 -0.503407
O7    O     O_R   0.585220 0.080180 0.076770 -0.539759
O8    O     O_R   0.627170 0.809480 0.067050 -0.501801
O9    O     O_R   0.816200 0.596410 0.076500 -0.532734
O10   O     O_R   0.045770 0.638240 0.081070 -0.543318
O11   O     O_3   0.833840 0.833520 0.001110 -0.264232
O12   O     O_R   0.524510 0.695820 0.424050 -0.534054
O13   O     O_R   0.260600 0.739610 0.584580 -0.525754
O14   O     O_R   0.532370 0.695050 0.573830 -0.510250
O15   O     O_R   0.744850 0.503430 0.576380 -0.523578
O16   O     O_R   0.699080 0.276500 0.571950 -0.509008
O17   O     O_R   0.498860 0.256520 0.419860 -0.537438
O18   O     O_R   0.272490 0.528150 0.429140 -0.499952
O19   O     O_R   0.252110 0.740440 0.423010 -0.536485
O20   O     O_R   0.736370 0.504260 0.414810 -0.522585
O21   O     O_R   0.691220 0.277270 0.422180 -0.521480
O22   O     O_3   0.499990 0.499990 0.499980 -0.263065
O23   O     O_R   0.089570 0.825450 0.930590 -0.523445
O24   O     O_R   0.818700 0.054260 0.929860 -0.506714
O25   O     O_R   0.606310 0.077010 0.915520 -0.531926
O26   O     O_R   0.646730 0.806540 0.917560 -0.504006

loop_
_geom_bond_atom_site_label_1
_geom_bond_atom_site_label_2
_ccdc_geom_bond_type
Cr4   O6    S    
C34   C56   S    
C44   H24   S    
C64   H1    S    
C6    C7    A    
Cr1   O4    S    
C19   C20   A    
C43   H22   S    
C30   H14   S    
C16   O16   A    
C34   C66   S    
C62   O6    A    
C7    C8    A    
C4    O14   A    
C41   H19   S    
C53   C54   A    
C1    C21   S    
C12   C23   S    
C18   H7    S    
C26   C27   A    
Cr6   O2    S    
C5    C6    A    
Cr6   O3    S    
C14   C21   A    
C36   C37   A    
C9    C16   S    
C3    H40   S    
Cr1   O17   S    
C30   C31   A    
C45   H33   S    
C56   H12   S    
Cr3   O20   S    
C51   H27   S    
C46   C52   S    
C11   C13   A    
C52   O21   A    
C49   C57   A    
C61   O3    A    
C18   C19   A    
C41   C42   A    
C1    O4    A    
C5    C69   A    
C59   C67   S    
C22   C63   S    
C24   C29   A    
C35   C36   A    
C59   O24   A    
C40   O20   A    
C47   C48   A    
C56   H37   S    
C60   O2    A    
C6    H41   S    
C54   H29   S    
C25   C32   A    
Cr4   O5    S    
Cr4   O24   S    
C59   O25   A    
C5    H39   S    
C8    H2    S    
C64   H4    S    
C7    H42   S    
C36   C41   A    
C23   C60   S    
Cr2   O14   S    
C15   H6    S    
Cr2   O19   S    
C48   C53   A    
C4    C34   S    
C33   C40   S    
C38   C46   A    
C55   H30   S    
C50   C58   A    
C65   O10   A    
C66   H28   S    
C9    C70   A    
Cr5   O26   S    
C16   O1    A    
Cr1   O18   S    
C45   H34   S    
C66   H16   S    
Cr3   O21   S    
C50   C51   A    
C49   C58   A    
C67   C69   A    
C64   C66   S    
C23   C68   S    
C35   C39   A    
C43   C44   A    
C29   C30   A    
Cr6   O11   S    
C26   C33   A    
C31   C32   A    
C53   H26   S    
C26   H10   S    
C32   H17   S    
C20   H9    S    
C38   H18   S    
C45   C68   S    
C17   C18   A    
C13   C21   A    
C34   C45   S    
C14   H3    S    
C24   C25   A    
C12   C56   S    
Cr5   O25   S    
C61   O23   A    
C23   C64   S    
C57   H31   S    
Cr4   O23   S    
Cr3   O15   S    
C31   H15   S    
C22   C27   A    
C55   C57   A    
Cr6   O10   S    
C22   C24   A    
C42   H21   S    
C10   C61   S    
C42   C43   A    
C19   H8    S    
C12   H36   S    
Cr2   O13   S    
C52   O17   A    
C40   O12   A    
C54   C55   A    
C11   C17   A    
C13   C20   A    
C28   O18   A    
C3    C67   A    
C28   O19   A    
C1    O13   A    
C62   O7    A    
C47   C51   A    
Cr2   O12   S    
Cr1   O22   S    
Cr3   O22   S    
C28   C58   S    
C8    C70   A    
Cr1   O1    S    
C10   C15   A    
Cr5   O8    S    
C37   C44   A    
C2    C3    A    
C68   H23   S    
C60   O26   A    
C2    H38   S    
C38   C39   A    
C48   C49   A    
C27   H13   S    
C35   C62   S    
C17   H5    S    
C65   O5    A    
C69   C70   A    
C39   H20   S    
C29   H11   S    
C63   O8    A    
C10   C11   A    
Cr2   O22   S    
Cr3   O16   S    
C50   H25   S    
Cr4   O11   S    
Cr6   O9    S    
C14   C15   A    
C68   H32   S    
Cr5   O7    S    
C37   C46   A    
C2    C9    A    
C47   C65   S    
C12   H35   S    
C63   O9    A    
Cr5   O11   S    
C25   C33   A    
C4    O15   A    
