data_mof_unit_64050.cif
_audit_creation_date              2012-12-10T20:18:28-0500
_audit_creation_method            fapswitch 2.2
_symmetry_space_group_name_H-M    P1
_symmetry_Int_Tables_number       1
_space_group_crystal_system       triclinic
_cell_length_a                    35.54439
_cell_length_b                    35.544389
_cell_length_c                    29.128349
_cell_angle_alpha                 90.000034
_cell_angle_beta                  89.999938
_cell_angle_gamma                 90.0
_cell_volume                      36800.8617147

loop_
_atom_site_label
_atom_site_type_symbol
_atom_type_description
_atom_site_fract_x
_atom_site_fract_y
_atom_site_fract_z
_atom_type_partial_charge
C1    C     C_R   0.000000 0.426599 0.500000 0.868541
C2    C     C_1   0.233559 1.000000 0.500000 0.049450
C3    C     C_1   0.500000 1.000000 0.678915 0.016151
C4    C     C_1   0.500000 0.000000 0.821085 0.016151
C5    C     C_1   1.000000 0.500000 0.821085 0.016151
C6    C     C_1   0.500000 1.000000 0.178915 0.016151
C7    C     C_1   0.000000 0.500000 0.178915 0.016151
C8    C     C_1   1.000000 0.500000 0.271147 0.020516
C9    C     C_1   0.500000 1.000000 0.271147 0.020516
C10   C     C_1   1.000000 0.500000 0.728853 0.020516
C11   C     C_1   0.500000 0.000000 0.728853 0.020516
C12   C     C_1   0.500000 0.000000 0.771147 0.020516
C13   C     C_1   0.000000 0.766441 0.500000 0.049450
C14   C     C_1   1.000000 0.500000 0.771147 0.020516
C15   C     C_1   0.500000 1.000000 0.228853 0.020516
C16   C     C_1   0.000000 0.500000 0.228853 0.020516
C17   C     C_R   0.999985 0.173974 0.541851 0.169248
C18   C     C_R   0.173974 0.000013 0.541851 0.169248
C19   C     C_R   0.000013 0.826026 0.541851 0.169248
C20   C     C_R   0.826026 0.999990 0.541851 0.169248
C21   C     C_R   0.999987 0.826026 0.458149 0.169248
C22   C     C_R   0.173974 0.999987 0.458149 0.169248
C23   C     C_R   0.000015 0.173974 0.458149 0.169248
C24   C     C_1   0.766441 0.000000 0.500001 0.049449
C25   C     C_R   0.826026 0.000011 0.458149 0.169248
C26   C     C_R   0.499987 0.673974 0.041851 0.169248
C27   C     C_R   0.673974 0.500012 0.041851 0.169248
C28   C     C_R   0.500013 0.326026 0.041851 0.169248
C29   C     C_R   0.326026 0.499986 0.041851 0.169248
C30   C     C_R   0.499987 0.326026 0.958149 0.169248
C31   C     C_R   0.673974 0.499987 0.958149 0.169248
C32   C     C_R   0.500012 0.673974 0.958149 0.169248
C33   C     C_R   0.326026 0.500014 0.958149 0.169248
C34   C     C_R   0.999985 0.134832 0.541657 -0.210976
C35   C     C_1   0.500000 0.733559 0.000000 0.049450
C36   C     C_R   0.134832 0.000013 0.541657 -0.210976
C37   C     C_R   0.000013 0.865168 0.541657 -0.210976
C38   C     C_R   0.865168 0.999990 0.541658 -0.210976
C39   C     C_R   0.999987 0.865168 0.458343 -0.210976
C40   C     C_R   0.134832 0.999987 0.458342 -0.210976
C41   C     C_R   0.000015 0.134832 0.458343 -0.210977
C42   C     C_R   0.865168 0.000010 0.458343 -0.210976
C43   C     C_R   0.499987 0.634832 0.041658 -0.210976
C44   C     C_R   0.634832 0.500012 0.041657 -0.210976
C45   C     C_R   0.500013 0.365168 0.041657 -0.210976
C46   C     C_1   0.733559 0.500000 1.000000 0.049450
C47   C     C_R   0.365168 0.499987 0.041658 -0.210976
C48   C     C_R   0.499987 0.365168 0.958342 -0.210976
C49   C     C_R   0.634832 0.499987 0.958342 -0.210976
C50   C     C_R   0.500012 0.634832 0.958343 -0.210976
C51   C     C_R   0.365168 0.500013 0.958343 -0.210976
C52   C     C_R   0.000000 0.115112 0.500000 -0.132340
C53   C     C_R   0.115112 0.000000 0.500000 -0.132339
C54   C     C_R   0.000000 0.884888 0.500000 -0.132339
C55   C     C_R   0.884888 0.000000 0.500000 -0.132339
C56   C     C_R   0.500000 0.615112 0.000000 -0.132339
C57   C     C_1   0.500000 0.266441 1.000000 0.049450
C58   C     C_R   0.615112 0.500000 1.000000 -0.132339
C59   C     C_R   0.500000 0.384888 1.000000 -0.132339
C60   C     C_R   0.384888 0.500000 0.000000 -0.132339
C61   C     C_R   0.000000 0.193546 0.500000 0.021983
C62   C     C_R   0.193546 1.000000 0.500000 0.021982
C63   C     C_R   0.000000 0.806454 0.500000 0.021982
C64   C     C_R   0.806454 0.000000 0.500000 0.021982
C65   C     C_R   0.500000 0.693546 0.000000 0.021982
C66   C     C_R   0.693546 0.500000 1.000000 0.021982
C67   C     C_R   0.500000 0.306454 1.000000 0.021982
C68   C     C_1   0.266441 0.500000 0.000000 0.049450
C69   C     C_R   0.306454 0.500000 0.000000 0.021982
C70   C     C_1   0.000000 0.267150 0.500000 -0.006655
C71   C     C_1   0.267150 1.000000 0.500000 -0.006656
C72   C     C_1   0.000000 0.732850 0.500000 -0.006656
C73   C     C_R   0.426599 0.000000 0.500000 0.868541
C74   C     C_1   0.732850 0.000000 0.500001 -0.006656
C75   C     C_1   0.500000 0.767150 0.000000 -0.006656
C76   C     C_1   0.767150 0.500000 1.000000 -0.006656
C77   C     C_1   0.500000 0.232850 1.000000 -0.006656
C78   C     C_1   0.232850 0.500000 0.000000 -0.006656
C79   C     C_R   0.034137 0.326471 0.499988 -0.137612
C80   C     C_R   0.326471 0.965863 0.499995 -0.137612
C81   C     C_R   0.965863 0.673529 0.499989 -0.137612
C82   C     C_R   0.673529 0.034137 0.499999 -0.137613
C83   C     C_R   0.034137 0.673529 0.500012 -0.137612
C84   C     C_R   0.000000 0.573401 0.500000 0.868541
C85   C     C_R   0.326471 0.034137 0.500005 -0.137612
C86   C     C_R   0.965863 0.326471 0.500012 -0.137612
C87   C     C_R   0.673529 0.965863 0.500002 -0.137612
C88   C     C_R   0.534137 0.826471 0.999982 -0.137612
C89   C     C_R   0.826471 0.465863 0.999998 -0.137612
C90   C     C_R   0.465863 0.173529 0.999971 -0.137612
C91   C     C_R   0.173529 0.534137 0.999974 -0.137612
C92   C     C_R   0.534137 0.173529 0.000029 -0.137612
C93   C     C_R   0.826471 0.534137 0.000001 -0.137612
C94   C     C_R   0.465863 0.826471 0.000018 -0.137612
C95   C     C_R   0.573401 0.000000 0.500000 0.868541
C96   C     C_R   0.173529 0.465863 0.000026 -0.137612
C97   C     C_R   0.034186 0.365595 0.499988 -0.184747
C98   C     C_R   0.365595 0.965814 0.499995 -0.184747
C99   C     C_R   0.965814 0.634405 0.499989 -0.184747
C100  C     C_R   0.634405 0.034186 0.499998 -0.184746
C101  C     C_R   0.034186 0.634405 0.500011 -0.184747
C102  C     C_R   0.365595 0.034186 0.500005 -0.184747
C103  C     C_R   0.965814 0.365595 0.500012 -0.184747
C104  C     C_R   0.634405 0.965814 0.500002 -0.184746
C105  C     C_R   0.534186 0.865595 0.999982 -0.184747
C106  C     C_R   0.500000 0.926599 0.000000 0.868541
C107  C     C_R   0.865595 0.465814 0.999998 -0.184746
C108  C     C_R   0.465814 0.134405 0.999971 -0.184746
C109  C     C_R   0.134405 0.534186 0.999974 -0.184747
C110  C     C_R   0.534186 0.134405 0.000029 -0.184747
C111  C     C_R   0.865595 0.534186 0.000001 -0.184746
C112  C     C_R   0.465814 0.865595 0.000018 -0.184748
C113  C     C_R   0.134405 0.465814 0.000026 -0.184746
C114  C     C_R   0.000000 0.385435 0.500000 -0.048217
C115  C     C_R   0.385435 1.000000 0.500000 -0.048217
C116  C     C_R   0.000000 0.614564 0.500000 -0.048217
C117  C     C_R   0.926599 0.500000 0.000000 0.868541
C118  C     C_R   0.614564 0.000000 0.500000 -0.048216
C119  C     C_R   0.500000 0.885436 0.000000 -0.048217
C120  C     C_R   0.885436 0.500000 1.000000 -0.048217
C121  C     C_R   0.500000 0.114564 1.000000 -0.048218
C122  C     C_R   0.114564 0.500000 0.000000 -0.048217
C123  C     C_R   1.000000 0.307074 0.500000 0.145920
C124  C     C_R   0.307074 1.000000 0.500000 0.145920
C125  C     C_R   0.000000 0.692926 0.500000 0.145919
C126  C     C_R   0.692926 0.000000 0.500001 0.145920
C127  C     C_R   0.500000 0.807074 0.000000 0.145919
C128  C     C_R   0.500000 0.073401 0.000000 0.868541
C129  C     C_R   0.807074 0.500000 1.000000 0.145921
C130  C     C_R   0.500000 0.192926 1.000000 0.145919
C131  C     C_R   0.192926 0.500000 0.000000 0.145919
C132  C     C_R   0.074041 0.000000 0.500000 0.930584
C133  C     C_R   1.000000 0.925959 0.500000 0.930584
C134  C     C_R   0.925959 1.000000 0.500000 0.930585
C135  C     C_R   0.000000 0.074041 0.500000 0.930584
C136  C     C_R   0.574041 0.500000 1.000000 0.930584
C137  C     C_R   0.500000 0.425959 1.000000 0.930585
C138  C     C_R   0.425959 0.500000 0.000000 0.930585
C139  C     C_R   0.073401 0.500000 0.000000 0.868541
C140  C     C_R   0.500000 0.574041 0.000000 0.930584
C141  C     C_R   0.000000 0.500000 0.414170 0.888842
C142  C     C_R   0.500000 1.000000 0.414170 0.888842
C143  C     C_R   1.000000 0.500000 0.585830 0.888841
C144  C     C_R   0.500000 0.000000 0.585830 0.888841
C145  C     C_R   0.500000 0.000000 0.914170 0.888842
C146  C     C_R   0.000000 0.500000 0.914170 0.888842
C147  C     C_R   0.500000 0.000000 0.085830 0.888841
C148  C     C_R   0.000000 0.500000 0.085830 0.888841
C149  C     C_1   0.000000 0.500000 0.363380 -0.192393
C150  C     C_1   0.000000 0.233559 0.500000 0.049450
C151  C     C_1   0.500000 1.000000 0.363380 -0.192393
C152  C     C_1   1.000000 0.500000 0.636620 -0.192393
C153  C     C_1   0.500000 0.000000 0.636620 -0.192393
C154  C     C_1   0.500000 1.000000 0.863380 -0.192393
C155  C     C_1   1.000000 0.500000 0.863380 -0.192393
C156  C     C_1   0.500000 0.000000 0.136620 -0.192393
C157  C     C_1   0.000000 0.500000 0.136620 -0.192393
C158  C     C_1   0.000000 0.500000 0.321085 0.016151
C159  C     C_1   0.500000 1.000000 0.321085 0.016151
C160  C     C_1   1.000000 0.500000 0.678915 0.016151
H1    H     H_    0.999974 0.119888 0.574062 0.186269
H2    H     H_    0.619888 0.500022 0.074062 0.186269
H3    H     H_    0.500023 0.380112 0.074062 0.186269
H4    H     H_    0.380112 0.499976 0.074062 0.186269
H5    H     H_    0.499977 0.380112 0.925938 0.186269
H6    H     H_    0.619888 0.499978 0.925938 0.186269
H7    H     H_    0.500022 0.619888 0.925938 0.186269
H8    H     H_    0.380112 0.500024 0.925938 0.186269
H9    H     H_    0.060627 0.311374 0.499979 0.148939
H10   H     H_    0.311374 0.939373 0.499991 0.148939
H11   H     H_    0.939373 0.688626 0.499980 0.148939
H12   H     H_    0.119888 0.000022 0.574062 0.186269
H13   H     H_    0.688626 0.060628 0.499998 0.148939
H14   H     H_    0.060627 0.688626 0.500021 0.148939
H15   H     H_    0.311374 0.060627 0.500008 0.148939
H16   H     H_    0.939373 0.311374 0.500021 0.148939
H17   H     H_    0.688626 0.939373 0.500003 0.148939
H18   H     H_    0.560627 0.811374 0.999968 0.148939
H19   H     H_    0.811374 0.439372 0.999997 0.148939
H20   H     H_    0.439373 0.188626 0.999948 0.148939
H21   H     H_    0.188626 0.560627 0.999954 0.148939
H22   H     H_    0.560627 0.188626 0.000052 0.148939
H23   H     H_    0.000024 0.880112 0.574062 0.186269
H24   H     H_    0.811374 0.560627 0.000002 0.148939
H25   H     H_    0.439373 0.811374 0.000032 0.148939
H26   H     H_    0.188626 0.439373 0.000046 0.148939
H27   H     H_    0.060903 0.380242 0.499979 0.165713
H28   H     H_    0.380242 0.939097 0.499991 0.165714
H29   H     H_    0.939097 0.619758 0.499980 0.165714
H30   H     H_    0.619758 0.060903 0.499997 0.165713
H31   H     H_    0.060903 0.619758 0.500020 0.165713
H32   H     H_    0.380242 0.060903 0.500008 0.165713
H33   H     H_    0.939097 0.380242 0.500021 0.165714
H34   H     H_    0.880112 0.999982 0.574063 0.186269
H35   H     H_    0.619758 0.939097 0.500003 0.165713
H36   H     H_    0.560902 0.880242 0.999968 0.165714
H37   H     H_    0.880242 0.439097 0.999998 0.165713
H38   H     H_    0.439097 0.119758 0.999948 0.165713
H39   H     H_    0.119758 0.560902 0.999953 0.165714
H40   H     H_    0.560903 0.119758 0.000052 0.165713
H41   H     H_    0.880242 0.560903 0.000002 0.165713
H42   H     H_    0.439097 0.880242 0.000032 0.165714
H43   H     H_    0.119758 0.439097 0.000047 0.165713
H44   H     H_    0.999976 0.880112 0.425938 0.186269
H45   H     H_    0.119888 0.999977 0.425938 0.186269
H46   H     H_    0.000026 0.119888 0.425938 0.186269
H47   H     H_    0.880112 0.000018 0.425938 0.186269
H48   H     H_    0.499978 0.619888 0.074062 0.186269
I1    I     I_    0.999962 0.201912 0.606284 -0.328922
I2    I     I_    0.701912 0.500032 0.106284 -0.328923
I3    I     I_    0.500033 0.298088 0.106284 -0.328923
I4    I     I_    0.298088 0.499965 0.106284 -0.328922
I5    I     I_    0.499967 0.298088 0.893716 -0.328922
I6    I     I_    0.701912 0.499968 0.893716 -0.328922
I7    I     I_    0.500032 0.701912 0.893716 -0.328923
I8    I     I_    0.298088 0.500035 0.893716 -0.328922
I9    I     I_    0.201912 0.000032 0.606284 -0.328923
I10   I     I_    0.000034 0.798088 0.606284 -0.328923
I11   I     I_    0.798088 0.999974 0.606285 -0.328922
I12   I     I_    0.999966 0.798088 0.393716 -0.328922
I13   I     I_    0.201912 0.999968 0.393716 -0.328922
I14   I     I_    0.000038 0.201912 0.393716 -0.328923
I15   I     I_    0.798087 0.000027 0.393716 -0.328922
I16   I     I_    0.499968 0.701912 0.106284 -0.328922
O1    O     O_R   0.968700 0.444570 0.500010 -0.615987
O2    O     O_R   0.944570 0.531300 0.000010 -0.615988
O3    O     O_R   0.531300 0.055430 0.000010 -0.615988
O4    O     O_R   0.055430 0.468700 0.000010 -0.615987
O5    O     O_R   0.468700 0.055430 0.999990 -0.615987
O6    O     O_R   0.944570 0.468700 0.999990 -0.615987
O7    O     O_R   0.531300 0.944570 0.999990 -0.615988
O8    O     O_R   0.055430 0.531300 0.999990 -0.615988
O9    O     O_R   0.968700 0.500000 0.436870 -0.594564
O10   O     O_R   0.500000 0.031300 0.436870 -0.594565
O11   O     O_R   0.031300 0.500000 0.436870 -0.594565
O12   O     O_R   0.444570 0.031300 0.500010 -0.615988
O13   O     O_R   0.500000 0.968700 0.436870 -0.594564
O14   O     O_R   0.968700 0.500000 0.563130 -0.594565
O15   O     O_R   0.500000 0.968700 0.563130 -0.594564
O16   O     O_R   0.031300 0.500000 0.563130 -0.594564
O17   O     O_R   0.500000 0.031300 0.563130 -0.594565
O18   O     O_R   0.468700 0.000000 0.936870 -0.594565
O19   O     O_R   0.000000 0.531300 0.936870 -0.594567
O20   O     O_R   0.531300 0.000000 0.936870 -0.594563
O21   O     O_R   0.000000 0.468700 0.936870 -0.594561
O22   O     O_R   0.468700 0.000000 0.063130 -0.594564
O23   O     O_R   0.031300 0.555430 0.500010 -0.615988
O24   O     O_R   1.000000 0.468700 0.063130 -0.594567
O25   O     O_R   0.531300 0.000000 0.063130 -0.594565
O26   O     O_R   1.000000 0.531300 0.063130 -0.594562
O27   O     O_R   0.055320 0.999990 0.464380 -0.619368
O28   O     O_R   0.999990 0.944680 0.464380 -0.619367
O29   O     O_R   0.944680 0.000010 0.464380 -0.619367
O30   O     O_R   0.000010 0.055320 0.464380 -0.619367
O31   O     O_R   0.055320 0.000010 0.535620 -0.619367
O32   O     O_R   0.999990 0.055320 0.535620 -0.619368
O33   O     O_R   0.944680 0.999990 0.535620 -0.619368
O34   O     O_R   0.555430 0.968700 0.500010 -0.615987
O35   O     O_R   0.000010 0.944680 0.535620 -0.619368
O36   O     O_R   0.555320 0.499990 0.964380 -0.619368
O37   O     O_R   0.499990 0.444680 0.964380 -0.619367
O38   O     O_R   0.444680 0.500010 0.964380 -0.619367
O39   O     O_R   0.500010 0.555320 0.964380 -0.619367
O40   O     O_R   0.555320 0.500010 0.035620 -0.619367
O41   O     O_R   0.499990 0.555320 0.035620 -0.619368
O42   O     O_R   0.444680 0.499990 0.035620 -0.619367
O43   O     O_R   0.500010 0.444680 0.035620 -0.619367
O44   O     O_R   0.968700 0.555430 0.499990 -0.615987
O45   O     O_R   0.444570 0.968700 0.499990 -0.615987
O46   O     O_R   0.031300 0.444570 0.499990 -0.615988
O47   O     O_R   0.555430 0.031300 0.499990 -0.615988
O48   O     O_R   0.468700 0.944570 0.000010 -0.615987
Zn1   Zn    Zn3+2 0.958200 0.500000 0.500000 0.983474
Zn2   Zn    Zn3+2 0.000000 0.000000 0.547590 0.996324
Zn3   Zn    Zn3+2 0.500000 0.500000 0.952410 0.996324
Zn4   Zn    Zn3+2 0.500000 0.500000 0.047590 0.996324
Zn5   Zn    Zn3+2 0.500000 0.041800 0.500000 0.983473
Zn6   Zn    Zn3+2 0.041800 0.500000 0.500000 0.983473
Zn7   Zn    Zn3+2 0.500000 0.958200 0.500000 0.983474
Zn8   Zn    Zn3+2 0.458200 0.000000 0.000000 0.983474
Zn9   Zn    Zn3+2 0.000000 0.541800 0.000000 0.983473
Zn10  Zn    Zn3+2 0.541800 0.000000 0.000000 0.983473
Zn11  Zn    Zn3+2 0.000000 0.458200 0.000000 0.983474
Zn12  Zn    Zn3+2 0.000000 0.000000 0.452410 0.996324

loop_
_geom_bond_atom_site_label_1
_geom_bond_atom_site_label_2
_ccdc_geom_bond_type
C31   C66   A    
C4    C154  T    
C152  C160  T    
C106  O48   A    
C128  O5    A    
C106  C119  S    
C136  O40   A    
C137  O43   A    
O7    Zn10  S    
C70   C150  T    
C94   H25   S    
O18   Zn8   S    
C108  C121  A    
C38   C55   A    
C34   H1    S    
C8    C158  S    
C148  C157  S    
C111  H41   S    
C46   C76   T    
C141  C149  S    
C31   I6    S    
C94   C127  A    
C28   I3    S    
O38   Zn3   S    
C146  O21   A    
C84   O44   A    
O33   Zn2   S    
O40   Zn4   S    
C44   H2    S    
O35   Zn2   S    
C84   O23   A    
O48   Zn8   S    
C30   C48   A    
O13   Zn7   S    
C83   C125  A    
C122  C139  S    
C46   C66   S    
C88   C127  A    
C17   I1    S    
O28   Zn12  S    
C110  C121  A    
C142  O13   A    
O24   Zn11  S    
C56   C140  S    
C93   H24   S    
C109  C122  A    
C39   C54   A    
C87   H17   S    
C9    C159  S    
C37   H23   S    
C117  O6    A    
C148  O24   A    
C89   H19   S    
C89   C129  A    
C106  O7    A    
O45   Zn7   S    
C85   C124  A    
C85   H15   S    
C41   H46   S    
C3    C153  T    
C82   C126  A    
C73   O12   A    
C98   H28   S    
C36   C53   A    
C19   C37   A    
C132  O31   A    
C17   C61   A    
C6    C15   S    
C146  C155  S    
O36   Zn3   S    
C27   C44   A    
C53   C132  S    
C45   C59   A    
C113  C122  A    
C138  O38   A    
C147  O22   A    
C44   C58   A    
C68   C69   S    
C140  O39   A    
O15   Zn7   S    
C146  O19   A    
O21   Zn11  S    
C102  H32   S    
C117  O2    A    
C23   I14   S    
C25   I15   S    
C139  O8    A    
C102  C115  A    
C80   H10   S    
O8    Zn9   S    
C4    C12   S    
O14   Zn1   S    
C149  C158  T    
C41   C52   A    
C104  C118  A    
C30   C67   A    
C52   C135  S    
O29   Zn12  S    
C33   C69   A    
C79   H9    S    
C77   C130  S    
C80   C98   A    
C26   C65   A    
C113  H43   S    
C47   C60   A    
O9    Zn1   S    
C8    C16   T    
O10   Zn5   S    
C39   H44   S    
C108  H38   S    
C32   I7    S    
C143  O14   A    
O32   Zn2   S    
C51   H8    S    
C142  O10   A    
C82   C100  A    
C31   C49   A    
C93   C129  A    
C86   C103  A    
C70   C123  S    
C145  C154  S    
C33   I8    S    
C26   C43   A    
C29   C69   A    
C95   C118  S    
C68   C78   T    
O43   Zn4   S    
C22   I13   S    
C90   H20   S    
C28   C45   A    
C36   H12   S    
O25   Zn10  S    
C48   H5    S    
O31   Zn2   S    
C110  H40   S    
O12   Zn5   S    
C57   C77   T    
C71   C124  S    
C28   C67   A    
C121  C128  S    
C10   C14   T    
C117  C120  S    
O42   Zn4   S    
C99   C116  A    
C107  H37   S    
C91   C109  A    
C18   C62   A    
C1    O46   A    
C138  O42   A    
C58   C136  S    
C5    C155  T    
C54   C133  S    
C79   C123  A    
O6    Zn11  S    
C21   I12   S    
C27   I2    S    
C50   C56   A    
C112  H42   S    
C38   H34   S    
C144  O15   A    
O47   Zn5   S    
C139  O4    A    
C25   C64   A    
C151  C159  T    
C142  C151  S    
C20   C64   A    
C92   C130  A    
C78   C131  S    
C136  O36   A    
O17   Zn5   S    
C42   C55   A    
C22   C62   A    
C20   C38   A    
C76   C129  S    
O41   Zn4   S    
C13   C63   S    
C82   H13   S    
C133  O35   A    
C141  O11   A    
C22   C40   A    
C144  O17   A    
C103  C114  A    
C95   O34   A    
C42   H47   S    
C19   I10   S    
O22   Zn8   S    
C147  C156  S    
C133  O28   A    
C32   C50   A    
C5    C14   S    
C137  O37   A    
C19   C63   A    
C93   C111  A    
C96   C131  A    
C7    C157  T    
C37   C54   A    
O4    Zn11  S    
C141  O9    A    
C143  C152  S    
C50   H7    S    
C29   C47   A    
C59   C137  S    
O39   Zn3   S    
C91   H21   S    
C26   I16   S    
C135  O32   A    
O26   Zn9   S    
O16   Zn6   S    
C96   C113  A    
C109  H39   S    
C100  C118  A    
C1    C114  S    
C47   H4    S    
C2    C71   T    
O3    Zn10  S    
C10   C160  S    
C107  C120  A    
C86   C123  A    
C143  O16   A    
C29   I4    S    
C99   H29   S    
C80   C124  A    
C1    O1    A    
C97   H27   S    
C40   H45   S    
C147  O25   A    
C83   C101  A    
C81   C125  A    
C43   H48   S    
O11   Zn6   S    
O1    Zn1   S    
C21   C39   A    
C79   C97   A    
C7    C16   S    
C35   C75   T    
C134  O29   A    
C148  O26   A    
C101  H31   S    
C73   C115  S    
C25   C42   A    
C112  C119  A    
C11   C12   T    
C48   C59   A    
O44   Zn1   S    
C95   O47   A    
O37   Zn3   S    
C13   C72   T    
C33   C51   A    
C55   C134  S    
C81   C99   A    
O5    Zn8   S    
C34   C52   A    
C23   C41   A    
C100  H30   S    
C72   C125  S    
O46   Zn6   S    
O23   Zn6   S    
C87   C104  A    
C9    C15   T    
C105  H36   S    
C90   C108  A    
C49   H6    S    
C92   C110  A    
C27   C66   A    
C92   H22   S    
O19   Zn9   S    
C30   I5    S    
C88   C105  A    
C57   C67   S    
C24   C74   T    
C98   C115  A    
C74   C126  S    
C96   H26   S    
C134  O33   A    
C111  C120  A    
C94   C112  A    
O20   Zn10  S    
C20   I11   S    
C104  H35   S    
C145  O18   A    
C24   C64   S    
C86   H16   S    
O27   Zn12  S    
C81   H11   S    
C135  O30   A    
C45   H3    S    
C128  O3    A    
C21   C63   A    
C3    C11   S    
C49   C58   A    
C89   C107  A    
C90   C130  A    
C2    C62   S    
C43   C56   A    
C23   C61   A    
C91   C131  A    
C145  O20   A    
C84   C116  S    
C40   C53   A    
C17   C34   A    
C83   H14   S    
O34   Zn7   S    
C101  C116  A    
C35   C65   S    
C140  O41   A    
C105  C119  A    
C73   O45   A    
C51   C60   A    
C103  H33   S    
O2    Zn9   S    
C97   C114  A    
C144  C153  S    
C18   I9    S    
C18   C36   A    
C88   H18   S    
C87   C126  A    
C6    C156  T    
C85   C102  A    
C61   C150  S    
C132  O27   A    
C60   C138  S    
C32   C65   A    
C75   C127  S    
O30   Zn12  S    
