data_mof_unit_36029.cif
_audit_creation_date              2013-03-05T15:51:28-0500
_audit_creation_method            fapswitch 2.2
_symmetry_space_group_name_H-M    P1
_symmetry_Int_Tables_number       1
_space_group_crystal_system       triclinic
_cell_length_a                    19.747449
_cell_length_b                    11.093741
_cell_length_c                    18.563971
_cell_angle_alpha                 89.565723
_cell_angle_beta                  90.134671
_cell_angle_gamma                 90.448536
_cell_volume                      4066.61428206

loop_
_atom_site_label
_atom_site_type_symbol
_atom_site_description
_atom_site_fract_x
_atom_site_fract_y
_atom_site_fract_z
_atom_type_partial_charge
O1    O     O_R   0.957020 0.451640 0.669920 -0.532362
O2    O     O_R   0.042980 0.451640 0.330080 -0.526708
O3    O     O_R   0.457020 0.951640 0.669920 -0.531658
O4    O     O_R   0.542980 0.951640 0.330080 -0.527740
O5    O     O_R   0.821450 0.543440 0.674610 -0.499796
O6    O     O_R   0.178550 0.543440 0.325390 -0.512310
O7    O     O_R   0.321450 0.043440 0.674610 -0.496666
O8    O     O_R   0.678550 0.043440 0.325390 -0.515660
C1    C     C_R   0.760116 0.536266 0.647108 0.536559
C2    C     C_R   0.240389 0.536699 0.352320 0.545619
C3    C     C_R   0.260116 0.036261 0.647108 0.541893
C4    C     C_R   0.740387 0.036690 0.352327 0.538042
O9    O     O_R   0.715320 0.458650 0.668100 -0.544798
O10   O     O_R   0.284680 0.458650 0.331900 -0.528006
O11   O     O_R   0.215320 0.958650 0.668100 -0.545040
O12   O     O_R   0.784680 0.958650 0.331900 -0.530268
O13   O     O_R   0.737170 0.209590 0.674530 -0.495205
O14   O     O_R   0.262830 0.209590 0.325470 -0.505733
O15   O     O_R   0.237170 0.709590 0.674530 -0.493604
O16   O     O_R   0.762830 0.709590 0.325470 -0.506902
C5    C     C_R   0.791988 0.172707 0.639406 0.572454
C6    C     C_R   0.207617 0.174300 0.360168 0.579520
C7    C     C_R   0.291984 0.672697 0.639405 0.574622
C8    C     C_R   0.707618 0.674295 0.360172 0.577075
O17   O     O_R   0.832710 0.092740 0.669580 -0.548877
O18   O     O_R   0.167290 0.092740 0.330420 -0.530798
O19   O     O_R   0.332710 0.592740 0.669580 -0.547433
O20   O     O_R   0.667290 0.592740 0.330420 -0.533176
O21   O     O_R   0.946290 0.250060 0.676040 -0.521655
O22   O     O_R   0.053710 0.250060 0.323960 -0.522110
O23   O     O_R   0.446290 0.750060 0.676040 -0.519033
O24   O     O_R   0.553710 0.750060 0.323960 -0.524671
C9    C     C_R   0.971694 0.345794 0.647384 0.527819
C10   C     C_R   0.027213 0.343453 0.351750 0.532966
C11   C     C_R   0.471701 0.845791 0.647392 0.529944
C12   C     C_R   0.527216 0.843460 0.351755 0.531208
O25   O     O_R   0.956270 0.452200 0.830470 -0.527854
O26   O     O_R   0.043730 0.452200 0.169530 -0.528671
O27   O     O_R   0.456270 0.952200 0.830470 -0.526386
O28   O     O_R   0.543730 0.952200 0.169530 -0.529208
O29   O     O_R   0.820760 0.543950 0.823440 -0.520257
O30   O     O_R   0.179240 0.543950 0.176560 -0.516070
O31   O     O_R   0.320760 0.043950 0.823440 -0.514619
O32   O     O_R   0.679240 0.043950 0.176560 -0.515456
C13   C     C_R   0.764259 0.519907 0.855411 0.554194
C14   C     C_R   0.225627 0.481385 0.141349 0.565819
C15   C     C_R   0.273923 0.981832 0.859131 0.563848
C16   C     C_R   0.737495 0.026731 0.146514 0.546257
O33   O     O_R   0.714570 0.459210 0.828640 -0.493459
O34   O     O_R   0.285430 0.459210 0.171360 -0.527306
O35   O     O_R   0.214570 0.959210 0.828640 -0.521147
O36   O     O_R   0.785430 0.959210 0.171360 -0.534666
O37   O     O_R   0.736470 0.210100 0.823360 -0.513088
O38   O     O_R   0.263530 0.210100 0.176640 -0.525541
O39   O     O_R   0.236470 0.710100 0.823360 -0.522502
O40   O     O_R   0.763530 0.710100 0.176640 -0.514612
C17   C     C_R   0.772936 0.125141 0.851926 0.547148
C18   C     C_R   0.227602 0.123627 0.148196 0.542878
C19   C     C_R   0.272203 0.622921 0.851620 0.539721
C20   C     C_R   0.726962 0.626376 0.147795 0.557863
O41   O     O_R   0.831960 0.093290 0.830130 -0.525180
O42   O     O_R   0.168040 0.093290 0.169870 -0.526512
O43   O     O_R   0.331960 0.593290 0.830130 -0.524341
O44   O     O_R   0.668040 0.593290 0.169870 -0.525751
O45   O     O_R   0.945600 0.250580 0.824860 -0.517560
O46   O     O_R   0.054400 0.250580 0.175140 -0.517053
O47   O     O_R   0.445600 0.750580 0.824860 -0.514941
O48   O     O_R   0.554400 0.750580 0.175140 -0.516010
C21   C     C_R   0.970334 0.347287 0.852490 0.544460
C22   C     C_R   0.032962 0.347273 0.145189 0.539525
C23   C     C_R   0.465873 0.847430 0.855542 0.534896
C24   C     C_R   0.529561 0.847210 0.147727 0.549359
Cr1   Cr    Cr6+3 0.885860 0.491680 0.749630 0.982191
Cr2   Cr    Cr6+3 0.114140 0.491680 0.250370 0.970356
Cr3   Cr    Cr6+3 0.385860 0.991680 0.749630 0.982967
Cr4   Cr    Cr6+3 0.614140 0.991680 0.250370 0.971923
Cr5   Cr    Cr6+3 0.730490 0.332970 0.748720 0.976108
Cr6   Cr    Cr6+3 0.269510 0.332970 0.251280 0.957608
Cr7   Cr    Cr6+3 0.230490 0.832970 0.748720 0.959032
Cr8   Cr    Cr6+3 0.769510 0.832970 0.251280 0.964748
Cr9   Cr    Cr6+3 0.887570 0.179310 0.750150 0.969640
Cr10  Cr    Cr6+3 0.112430 0.179310 0.249850 0.968462
Cr11  Cr    Cr6+3 0.387570 0.679310 0.750150 0.969809
Cr12  Cr    Cr6+3 0.612430 0.679310 0.249850 0.973125
O49   O     O_3   0.834640 0.334650 0.749500 -0.272568
O50   O     O_3   0.165360 0.334650 0.250500 -0.289743
O51   O     O_3   0.334640 0.834650 0.749500 -0.286979
O52   O     O_3   0.665360 0.834650 0.250500 -0.269261
C25   C     C_R   0.762720 0.114535 0.413207 -0.008017
C26   C     C_R   0.239143 0.113234 0.585377 -0.015276
C27   C     C_R   0.262715 0.614549 0.413201 -0.007734
C28   C     C_R   0.739145 0.613275 0.585393 -0.015048
C29   C     C_R   0.720338 0.191431 0.450880 -0.006000
C30   C     C_R   0.283435 0.183978 0.545537 -0.001424
C31   C     C_R   0.220319 0.691419 0.450882 -0.005756
C32   C     C_R   0.783442 0.683993 0.545543 -0.001356
C33   C     C_R   0.730532 0.210673 0.524246 0.019468
C34   C     C_R   0.270597 0.215466 0.474162 0.039824
C35   C     C_R   0.230504 0.710599 0.524253 0.019185
C36   C     C_R   0.770601 0.715472 0.474168 0.040171
C37   C     C_R   0.838862 0.122967 0.517140 -0.178629
C38   C     C_R   0.162132 0.124792 0.482920 -0.175182
C39   C     C_R   0.338853 0.622976 0.517137 -0.179016
C40   C     C_R   0.662127 0.624846 0.482943 -0.175343
C41   C     C_R   0.827160 0.097364 0.443962 -0.144887
C42   C     C_R   0.173770 0.101965 0.556558 -0.167987
C43   C     C_R   0.327155 0.597382 0.443958 -0.144648
C44   C     C_R   0.673765 0.602070 0.556591 -0.167672
C45   C     C_3   0.646301 0.189119 0.459300 0.025979
C46   C     C_3   0.356595 0.172698 0.533924 0.031978
C47   C     C_3   0.146284 0.689003 0.459318 0.025721
C48   C     C_3   0.856599 0.672697 0.533931 0.032193
C49   C     C_3   0.658302 0.191403 0.541527 0.038084
C50   C     C_3   0.342173 0.200975 0.453246 0.064112
C51   C     C_3   0.158276 0.691288 0.541545 0.038060
C52   C     C_3   0.842173 0.700958 0.453254 0.064169
C53   C     C_R   0.786766 0.167529 0.560236 -0.018214
C54   C     C_R   0.213429 0.171608 0.439224 -0.019558
C55   C     C_R   0.286752 0.667498 0.560237 -0.018686
C56   C     C_R   0.713430 0.671615 0.439233 -0.019068
H1    H     H_    0.885275 0.095511 0.541676 0.165024
H2    H     H_    0.116325 0.095900 0.458405 0.171660
H3    H     H_    0.385270 0.595537 0.541671 0.164926
H4    H     H_    0.616315 0.595960 0.458437 0.171777
H5    H     H_    0.865612 0.052322 0.413735 0.155255
H6    H     H_    0.134740 0.061627 0.588861 0.140074
H7    H     H_    0.365610 0.552340 0.413734 0.155627
H8    H     H_    0.634729 0.561820 0.588925 0.140672
H9    H     H_    0.122349 0.604259 0.440001 0.169065
H10   H     H_    0.873883 0.578553 0.542786 0.140593
H11   H     H_    0.622333 0.104400 0.439990 0.169625
H12   H     H_    0.373885 0.078554 0.542772 0.140306
H13   H     H_    0.650230 0.101897 0.567686 0.116624
H14   H     H_    0.346102 0.121354 0.417758 0.120369
H15   H     H_    0.150205 0.601779 0.567703 0.116716
H16   H     H_    0.846085 0.621328 0.417771 0.119960
C57   C     C_R   0.991646 0.328243 0.422014 -0.029564
C58   C     C_R   0.000639 0.336074 0.574074 -0.028483
C59   C     C_R   0.491669 0.828276 0.422030 -0.028418
C60   C     C_R   0.500666 0.836061 0.574092 -0.029131
C61   C     C_R   0.992828 0.106171 0.428293 -0.122815
C62   C     C_R   0.011563 0.115767 0.577232 -0.117310
C63   C     C_R   0.492823 0.606209 0.428285 -0.122615
C64   C     C_R   0.511542 0.615750 0.577228 -0.117612
C65   C     C_R   0.000736 0.001022 0.468656 -0.165110
C66   C     C_R   0.009763 0.006023 0.542562 -0.161455
C67   C     C_R   0.500737 0.501051 0.468633 -0.165137
C68   C     C_R   0.509745 0.506023 0.542541 -0.161487
C69   C     C_R   0.002354 0.223846 0.538494 0.012391
C70   C     C_R   0.995785 0.219413 0.462034 0.011624
C71   C     C_R   0.502356 0.723844 0.538500 0.011753
C72   C     C_R   0.495788 0.719437 0.462040 0.011921
H17   H     H_    0.002354 0.915755 0.442417 0.142771
H18   H     H_    0.016299 0.925664 0.573881 0.136221
H19   H     H_    0.502374 0.415809 0.442374 0.142909
H20   H     H_    0.516263 0.425658 0.573853 0.136411
H21   H     H_    0.983240 0.097357 0.371214 0.129663
H22   H     H_    0.023817 0.114422 0.634007 0.130022
H23   H     H_    0.483232 0.597411 0.371206 0.129927
H24   H     H_    0.523783 0.614377 0.634005 0.132486
C73   C     C_R   0.000482 0.440872 0.531862 0.004180
C74   C     C_R   0.981079 0.434215 0.459542 0.000470
C75   C     C_R   0.500549 0.940867 0.531893 0.003956
C76   C     C_R   0.481146 0.934252 0.459571 0.000776
C77   C     C_R   0.017393 0.553891 0.559996 -0.115356
C78   C     C_R   0.965348 0.539627 0.422367 -0.107149
C79   C     C_R   0.517469 0.053861 0.560053 -0.115414
C80   C     C_R   0.465410 0.039689 0.422422 -0.107053
C81   C     C_R   0.010786 0.655699 0.517506 -0.107261
C82   C     C_R   0.989501 0.647187 0.448007 -0.095490
C83   C     C_R   0.510825 0.155698 0.517603 -0.107383
C84   C     C_R   0.489505 0.147252 0.448119 -0.095744
H25   H     H_    0.943609 0.535600 0.368893 0.122668
H26   H     H_    0.038582 0.563259 0.613149 0.134125
H27   H     H_    0.443659 0.035703 0.368954 0.123040
H28   H     H_    0.538663 0.063193 0.613208 0.134050
H29   H     H_    0.021471 0.743365 0.536686 0.183616
H30   H     H_    0.994116 0.724393 0.414580 0.150891
H31   H     H_    0.521487 0.243348 0.536805 0.183408
H32   H     H_    0.494027 0.224541 0.414765 0.150825
C85   C     C_R   0.742465 0.054658 0.070867 0.037488
C86   C     C_R   0.271957 0.999748 0.937326 0.005936
C87   C     C_R   0.226842 0.497262 0.062840 0.005787
C88   C     C_R   0.761593 0.541797 0.931684 0.024752
C89   C     C_R   0.795111 0.001598 0.034188 0.053979
C90   C     C_R   0.217827 0.952935 0.976504 0.032974
C91   C     C_R   0.281067 0.451933 0.024232 0.034626
C92   C     C_R   0.716045 0.473936 0.972263 0.051951
C93   C     C_R   0.800442 0.010165 0.960731 -0.015407
C94   C     C_R   0.209333 0.977966 0.048812 -0.009866
C95   C     C_R   0.289448 0.475964 0.951581 -0.009550
C96   C     C_R   0.709021 0.492201 0.044816 -0.022464
C97   C     C_R   0.696011 0.122109 0.956869 -0.172931
C98   C     C_R   0.310484 0.100820 0.046879 -0.165266
C99   C     C_R   0.188076 0.595582 0.952003 -0.165686
C100  C     C_R   0.801065 0.637204 0.040852 -0.172867
C101  C     C_R   0.691941 0.114732 0.031934 -0.177618
C102  C     C_R   0.320307 0.069969 0.974284 -0.166976
C103  C     C_R   0.177945 0.564431 0.024875 -0.168729
C104  C     C_R   0.806273 0.620905 0.966607 -0.188761
C105  C     C_3   0.868818 0.022780 0.046736 0.008838
C106  C     C_3   0.143257 0.960563 0.961383 0.025789
C107  C     C_3   0.355631 0.462285 0.039207 0.026137
C108  C     C_3   0.641672 0.455773 0.961031 0.024265
C109  C     C_3   0.875703 0.030122 0.965880 -0.216975
C110  C     C_3   0.133760 0.979137 0.041188 -0.218519
C111  C     C_3   0.365032 0.478456 0.959099 -0.220560
C112  C     C_3   0.633249 0.477814 0.040887 -0.234750
C113  C     C_R   0.752882 0.076323 0.921194 0.008869
C114  C     C_R   0.251759 0.061940 0.083372 0.008355
C115  C     C_R   0.247312 0.559209 0.916283 0.006901
C116  C     C_R   0.748995 0.578404 0.079728 0.010191
H33   H     H_    0.658466 0.172972 0.927591 0.118658
H34   H     H_    0.345048 0.164242 0.071730 0.118845
H35   H     H_    0.153295 0.657458 0.926334 0.121314
H36   H     H_    0.832840 0.705189 0.065785 0.133410
H37   H     H_    0.652655 0.162567 0.059673 0.112378
H38   H     H_    0.361610 0.111118 0.945280 0.137164
H39   H     H_    0.135903 0.603213 0.053125 0.139117
H40   H     H_    0.841412 0.676342 0.936108 0.121578
H41   H     H_    0.894738 0.943156 0.070563 0.118009
H42   H     H_    0.120711 0.874479 0.942074 0.108599
H43   H     H_    0.378391 0.377738 0.060337 0.108863
H44   H     H_    0.628634 0.362277 0.945587 0.118470
H45   H     H_    0.890679 0.119863 0.945192 0.176007
H46   H     H_    0.111888 0.067058 0.054726 0.170976
H47   H     H_    0.387211 0.566165 0.943901 0.175496
H48   H     H_    0.605888 0.561374 0.053842 0.162354
H49   H     H_    0.904536 0.953829 0.942916 0.099468
H50   H     H_    0.109550 0.900669 0.068776 0.096053
H51   H     H_    0.388916 0.399570 0.933018 0.095154
H52   H     H_    0.615319 0.396537 0.070837 0.099225
C117  C     C_R   0.017430 0.342457 0.069823 0.015034
C118  C     C_R   0.004746 0.341619 0.920679 0.001090
C119  C     C_R   0.494420 0.840599 0.080176 0.005785
C120  C     C_R   0.479969 0.842517 0.931374 0.006269
C121  C     C_R   0.025257 0.448233 0.030067 0.028660
C122  C     C_R   0.020974 0.448585 0.956720 0.023135
C123  C     C_R   0.474950 0.946535 0.044331 0.022365
C124  C     C_R   0.470705 0.947106 0.970832 0.038793
C125  C     C_R   0.007347 0.232253 0.958741 -0.153757
C126  C     C_R   0.014273 0.232666 0.033267 -0.134385
C127  C     C_R   0.484149 0.732756 0.968386 -0.169079
C128  C     C_R   0.493839 0.731683 0.042418 -0.152249
C129  C     C_3   0.990730 0.566251 0.038227 -0.279039
C130  C     C_3   0.987384 0.569737 0.957039 -0.265375
C131  C     C_3   0.505727 0.070805 0.043618 -0.270006
C132  C     C_3   0.503928 0.067395 0.962438 -0.275565
H53   H     H_    0.000102 0.147380 0.931535 0.147695
H54   H     H_    0.012693 0.148166 0.062470 0.151022
H55   H     H_    0.485327 0.649239 0.939642 0.127374
H56   H     H_    0.504426 0.647098 0.069214 0.145972
H57   H     H_    0.023625 0.637860 0.061201 0.128536
H58   H     H_    0.934845 0.566687 0.936886 0.170949
H59   H     H_    0.557627 0.073094 0.064902 0.168556
H60   H     H_    0.471364 0.137602 0.938009 0.127856
H61   H     H_    0.940289 0.556647 0.064203 0.136068
H62   H     H_    0.019850 0.641451 0.932692 0.119226
H63   H     H_    0.471324 0.139110 0.066796 0.117766
H64   H     H_    0.554821 0.060348 0.937627 0.135597
N1    N     N_2   0.884716 0.134921 0.084791 -0.525892
H65   H     H_    0.894312 0.122729 0.138964 0.258434
C133  C     C_3   0.850253 0.247677 0.068494 -0.276250
H66   H     H_    0.883188 0.324725 0.083428 0.140480
H67   H     H_    0.803709 0.255734 0.101309 0.136630
H68   H     H_    0.837407 0.256879 0.010604 0.157412
N2    N     N_2   0.122304 0.065403 0.918343 -0.515260
H69   H     H_    0.103835 0.045327 0.867820 0.264680
C134  C     C_3   0.157639 0.181100 0.922846 -0.257262
H70   H     H_    0.127051 0.252128 0.896738 0.135887
H71   H     H_    0.205416 0.180901 0.892089 0.165556
H72   H     H_    0.167325 0.206974 0.979562 0.153636
N3    N     N_2   0.376406 0.569439 0.079862 -0.511733
H73   H     H_    0.394978 0.551914 0.130782 0.264564
C135  C     C_3   0.340613 0.683531 0.072897 -0.254417
H74   H     H_    0.370774 0.756683 0.097525 0.137445
H75   H     H_    0.292789 0.682409 0.103579 0.162774
H76   H     H_    0.330988 0.707211 0.015655 0.153422
N4    N     N_2   0.609522 0.543843 0.913285 -0.495292
H77   H     H_    0.560283 0.522624 0.899894 0.234687
C136  C     C_3   0.626548 0.671796 0.914596 -0.261347
H78   H     H_    0.590772 0.721827 0.879737 0.131066
H79   H     H_    0.676359 0.690772 0.890250 0.153531
H80   H     H_    0.625255 0.708066 0.970030 0.148659
N5    N     N_2   0.617715 0.298706 0.428420 -0.534903
H81   H     H_    0.637940 0.377952 0.447840 0.274533
C137  C     C_3   0.612384 0.300856 0.350598 -0.291322
H82   H     H_    0.582916 0.380865 0.333306 0.134923
H83   H     H_    0.585739 0.218993 0.330857 0.161669
H84   H     H_    0.663557 0.306582 0.326010 0.169975
N6    N     N_2   0.395527 0.260444 0.575721 -0.540556
H85   H     H_    0.425185 0.218363 0.613971 0.256059
C138  C     C_3   0.361789 0.360790 0.608786 -0.281251
H86   H     H_    0.400761 0.425024 0.628316 0.163473
H87   H     H_    0.331373 0.329079 0.655647 0.163562
H88   H     H_    0.327987 0.405885 0.569604 0.180015
N7    N     N_2   0.117615 0.798540 0.428470 -0.535570
H89   H     H_    0.137450 0.877917 0.448210 0.274488
C139  C     C_3   0.112560 0.801061 0.350623 -0.289325
H90   H     H_    0.082778 0.880757 0.333401 0.134928
H91   H     H_    0.086333 0.718915 0.330599 0.162728
H92   H     H_    0.163828 0.807726 0.326256 0.172987
N8    N     N_2   0.895538 0.760453 0.575713 -0.540495
H93   H     H_    0.925216 0.718379 0.613950 0.255817
C140  C     C_3   0.861802 0.860784 0.608797 -0.281752
H94   H     H_    0.900774 0.925022 0.628323 0.163179
H95   H     H_    0.831398 0.829053 0.655662 0.161979
H96   H     H_    0.827989 0.905884 0.569627 0.180366
N9    N     N_2   0.629345 0.291368 0.580712 -0.514310
H97   H     H_    0.647763 0.375273 0.569010 0.275065
C141  C     C_3   0.600807 0.270250 0.652289 -0.257735
H98   H     H_    0.616696 0.341501 0.690108 0.182182
H99   H     H_    0.615502 0.181583 0.675176 0.155038
H100  H     H_    0.544886 0.273271 0.650862 0.074457
N10   N     N_2   0.369835 0.311360 0.421743 -0.477225
H101  H     H_    0.391072 0.371075 0.457138 0.274008
C142  C     C_3   0.399761 0.306679 0.349433 -0.253713
H102  H     H_    0.442694 0.370939 0.344315 0.065866
H103  H     H_    0.364991 0.329355 0.306108 0.226445
H104  H     H_    0.415734 0.215613 0.334191 0.093209
N11   N     N_2   0.129304 0.791275 0.580705 -0.513965
H105  H     H_    0.148124 0.875005 0.569287 0.275473
C143  C     C_3   0.100783 0.770110 0.652285 -0.259241
H106  H     H_    0.116665 0.841366 0.690107 0.178561
H107  H     H_    0.115500 0.681450 0.675170 0.156231
H108  H     H_    0.044862 0.773096 0.650851 0.074024
N12   N     N_2   0.869842 0.811326 0.421740 -0.477003
H109  H     H_    0.891035 0.871112 0.457126 0.274014
C144  C     C_3   0.899767 0.806625 0.349432 -0.253572
H110  H     H_    0.942777 0.870731 0.344345 0.065964
H111  H     H_    0.865032 0.829505 0.306112 0.226357
H112  H     H_    0.915625 0.715508 0.334152 0.093071

loop_
_geom_bond_atom_site_label_1
_geom_bond_atom_site_label_2
_geom_bond_distance
_ccdc_geom_bond_type
C80   H27   1.081679 S    
O4    C12   1.298662 A    
O25   C21   1.263397 A    
N7    C139  1.448434 S    
C62   C66   1.381614 A    
N6    H85   1.030767 S    
C39   H3    1.067981 S    
Cr7   O51   2.056655 S    
C65   C66   1.384568 A    
N8    C140  1.443530 S    
C107  N3    1.468160 S    
C60   C75   1.397059 A    
C82   H30   1.057328 S    
C59   C76   1.388527 A    
C64   C71   1.406233 A    
O39   C19   1.307576 A    
C31   C35   1.394056 A    
C34   C50   1.476988 S    
O21   C9    1.283336 A    
C59   C72   1.415570 A    
C90   C106  1.501356 S    
C6    C54   1.471899 S    
C1    O9    1.288572 A    
O44   Cr12  2.089646 S    
C5    C53   1.474607 S    
C3    O11   1.288530 A    
C94   C110  1.498878 S    
C4    O12   1.294905 A    
C110  H46   1.100855 S    
C137  H83   1.110216 S    
C64   H24   1.080849 S    
C67   H19   1.067931 S    
C144  H110  1.107243 S    
C61   C65   1.391265 A    
O2    C10   1.298724 A    
C49   H13   1.112548 S    
C129  C130  1.508674 S    
O17   Cr9   2.081095 S    
C102  H38   1.075211 S    
C62   H22   1.080851 S    
C77   C81   1.379542 A    
C17   C113  1.446412 S    
C8    C56   1.471998 S    
O16   Cr8   1.938342 S    
C143  H106  1.104413 S    
C27   C43   1.407239 A    
C76   C80   1.390252 A    
C125  H53   1.080199 S    
C79   C83   1.379451 A    
C129  H57   1.109377 S    
C49   N9    1.452613 S    
O28   Cr4   2.089940 S    
C136  H80   1.108207 S    
O22   Cr10  1.972694 S    
C142  H104  1.099964 S    
O15   C7    1.333665 A    
C98   H34   1.081505 S    
O46   Cr10  1.962637 S    
N8    H93   1.030771 S    
C66   H18   1.069126 S    
O48   C24   1.283557 A    
C121  C129  1.489787 S    
C17   O41   1.287622 A    
C20   C116  1.444175 S    
C112  H52   1.111671 S    
C61   H21   1.080981 S    
C2    C27   1.491350 S    
C63   C67   1.391201 A    
C134  H71   1.103973 S    
C104  H40   1.081759 S    
C133  H67   1.108427 S    
Cr12  O52   2.008601 S    
C97   H33   1.078649 S    
C19   O43   1.292292 A    
C41   H5    1.073935 S    
C20   O44   1.284440 A    
C94   C114  1.405593 A    
C37   C53   1.400207 A    
Cr8   O52   2.056945 S    
O46   C22   1.279060 A    
N4    C136  1.456557 S    
C33   C53   1.381526 A    
C35   C55   1.381515 A    
C100  C116  1.410493 A    
C88   C92   1.388239 A    
C16   O36   1.293716 A    
N5    C137  1.448289 S    
N11   H105  1.018752 S    
O27   C23   1.264255 A    
C39   C43   1.408140 A    
O31   C15   1.324887 A    
C73   C77   1.399599 A    
O32   C16   1.295782 A    
C13   C88   1.439580 S    
C95   C115  1.405298 A    
C46   N6    1.462051 S    
O47   Cr11  1.963878 S    
C26   C30   1.382565 A    
C109  H49   1.111952 S    
C67   C68   1.384557 A    
C105  H41   1.112662 S    
C85   C101  1.400581 A    
C51   N11   1.452699 S    
O24   C12   1.277284 A    
C62   C69   1.406253 A    
N6    C138  1.443519 S    
C86   C90   1.389433 A    
N1    H65   1.031027 S    
O8    Cr4   1.969625 S    
C125  C126  1.389969 A    
O32   Cr4   1.962382 S    
C96   C116  1.397455 A    
C117  C121  1.389301 A    
C28   C44   1.401243 A    
O11   Cr7   2.060679 S    
C140  H95   1.111673 S    
O27   Cr3   2.089733 S    
O3    Cr3   2.095493 S    
C46   C50   1.553995 S    
Cr5   O49   2.056655 S    
C132  H64   1.110069 S    
C121  C122  1.364025 A    
C144  H111  1.085660 S    
C83   H31   1.057638 S    
C1    C28   1.484059 S    
C81   H29   1.057743 S    
C19   C115  1.471930 S    
C61   C70   1.408757 A    
C34   C54   1.387307 A    
C99   C103  1.408055 A    
N9    C141  1.461109 S    
C58   C69   1.414482 A    
C127  H55   1.073129 S    
O22   C10   1.277210 A    
C108  C112  1.514050 S    
C135  H76   1.109032 S    
C103  H39   1.077242 S    
C2    O10   1.294913 A    
N12   C144  1.469369 S    
C108  N4    1.461926 S    
C77   H26   1.076315 S    
C92   C108  1.495210 S    
C143  H107  1.109028 S    
C22   C117  1.432908 S    
O5    C1    1.315354 A    
C138  H86   1.107042 S    
C98   C114  1.407562 A    
O3    C11   1.284989 A    
O8    C4    1.320910 A    
C50   H14   1.109233 S    
C95   C111  1.498836 S    
C44   H8    1.070800 S    
C109  H45   1.102823 S    
Cr1   O49   2.007552 S    
Cr3   O51   2.007552 S    
C78   C82   1.369864 A    
C141  H99   1.108987 S    
C57   C70   1.415608 A    
C29   C33   1.394088 A    
C48   C52   1.553951 S    
O26   Cr2   2.089940 S    
C5    O17   1.322482 A    
O29   C13   1.290091 A    
O28   C24   1.264993 A    
O14   C6    1.322786 A    
C8    O20   1.323661 A    
N2    H69   1.030812 S    
C89   C93   1.370490 A    
C40   H4    1.060097 S    
C136  H79   1.101612 S    
O40   Cr8   1.953771 S    
C92   C96   1.371066 A    
O41   Cr9   2.071437 S    
C112  H48   1.104959 S    
C98   C102  1.407191 A    
C51   H15   1.112561 S    
C32   C36   1.390929 A    
N3    C135  1.459257 S    
O33   Cr5   2.074103 S    
C25   C29   1.392932 A    
C12   C59   1.490688 S    
O35   Cr7   2.074103 S    
O29   Cr1   1.974430 S    
C117  C126  1.399659 A    
C25   C41   1.407229 A    
C105  C109  1.508995 S    
C40   C56   1.393999 A    
Cr9   O49   2.022438 S    
C29   C45   1.470743 S    
C18   O42   1.285517 A    
Cr11  O51   2.022438 S    
O26   C22   1.268075 A    
O20   Cr12  2.078458 S    
C123  C124  1.366770 A    
C36   C52   1.476947 S    
C141  H98   1.104370 S    
C73   C74   1.397616 A    
C133  H66   1.106563 S    
C120  C127  1.396507 A    
C88   C104  1.400991 A    
C138  H88   1.105588 S    
C35   C51   1.476371 S    
C16   C85   1.439199 S    
C100  H36   1.083190 S    
C30   C34   1.390926 A    
C127  C128  1.387120 A    
C91   C107  1.501491 S    
C123  C131  1.502257 S    
O30   C14   1.329573 A    
C89   C105  1.490603 S    
C142  H103  1.085653 S    
C74   C78   1.390236 A    
C47   H9    1.110487 S    
C93   C109  1.503834 S    
C45   H11   1.110492 S    
C71   C72   1.426190 A    
C46   H12   1.112237 S    
C129  H61   1.111695 S    
C99   H35   1.082088 S    
C64   C68   1.381581 A    
C84   H32   1.057149 S    
O42   Cr10  2.089646 S    
N10   H101  1.023430 S    
O18   Cr10  2.078458 S    
C134  H70   1.104958 S    
O31   Cr3   1.974430 S    
C101  H37   1.077556 S    
O34   Cr6   2.055510 S    
O6    Cr2   1.969625 S    
O24   Cr12  1.972694 S    
O30   Cr2   1.962382 S    
C126  H54   1.079610 S    
C81   C82   1.359717 A    
C26   C42   1.401295 A    
O37   C17   1.299752 A    
C15   O35   1.323473 A    
C130  H58   1.102448 S    
Cr10  O50   2.008601 S    
C30   C46   1.467655 S    
C37   H1    1.067996 S    
O40   C20   1.290780 A    
O43   Cr11  2.071437 S    
O48   Cr12  1.962637 S    
O37   Cr5   1.940361 S    
C139  H90   1.110290 S    
O21   Cr9   1.957111 S    
N5    H81   1.030051 S    
C87   C91   1.389499 A    
C11   C60   1.482322 S    
O39   Cr7   1.940361 S    
O45   Cr9   1.963878 S    
C137  H82   1.110143 S    
C13   O33   1.286723 A    
C9    C58   1.482326 S    
C122  C130  1.503506 S    
O13   Cr5   1.954476 S    
C137  H84   1.110987 S    
C107  H43   1.111665 S    
O15   Cr7   1.954476 S    
C60   C71   1.414457 A    
C111  H47   1.099066 S    
C63   C72   1.408728 A    
O23   C11   1.283299 A    
C40   C44   1.407157 A    
C78   H25   1.081695 S    
C119  C123  1.402079 A    
O6    C2    1.320879 A    
C63   H23   1.080977 S    
C52   H16   1.109220 S    
C42   H6    1.070801 S    
C24   C119  1.433876 S    
O1    Cr1   2.095493 S    
O19   Cr11  2.081095 S    
N4    H77   1.029006 S    
N12   H109  1.023485 S    
C93   C113  1.399572 A    
C69   C70   1.426189 A    
C7    C55   1.474587 S    
N2    C134  1.458976 S    
O45   C21   1.285150 A    
C58   C73   1.397124 A    
O47   C23   1.280842 A    
O13   C5    1.333687 A    
C119  C128  1.401421 A    
C80   C84   1.369861 A    
C140  H94   1.107043 S    
C6    O18   1.323646 A    
C134  H72   1.109175 S    
C124  C132  1.489657 S    
C68   H20   1.069061 S    
O12   Cr8   2.072820 S    
O36   Cr8   2.055510 S    
O38   Cr6   1.953771 S    
C131  H59   1.097725 S    
C133  H68   1.107766 S    
C83   C84   1.359616 A    
C90   C94   1.383668 A    
C110  H50   1.111996 S    
N7    H89   1.030515 S    
C106  H42   1.111988 S    
C75   C76   1.397623 A    
C86   C102  1.408035 A    
C28   C32   1.382547 A    
C100  C104  1.395590 A    
O1    C9    1.284967 A    
N9    H97   1.018771 S    
O7    C3    1.315366 A    
C32   C48   1.467633 S    
C135  H75   1.103943 S    
C105  N1    1.466803 S    
C57   C74   1.388498 A    
C48   N8    1.462058 S    
O23   Cr11  1.957111 S    
C52   N12   1.456067 S    
O16   C8    1.322817 A    
C47   N7    1.457320 S    
C36   C56   1.387314 A    
C7    O19   1.322471 A    
C106  N2    1.467726 S    
Cr4   O52   2.021215 S    
C91   C95   1.382869 A    
C38   C54   1.393957 A    
C45   C49   1.544577 S    
C65   H17   1.067987 S    
Cr6   O50   2.056945 S    
C108  H44   1.106492 S    
O5    Cr1   1.969277 S    
C96   C112  1.505210 S    
C15   C86   1.467276 S    
C139  H92   1.111544 S    
C18   C114  1.471157 S    
C37   C41   1.408155 A    
O9    Cr5   2.060679 S    
N10   C142  1.469406 S    
C4    C25   1.491330 S    
N1    C133  1.458091 S    
C85   C89   1.381993 A    
O7    Cr3   1.969277 S    
N11   C143  1.461086 S    
C136  H78   1.106571 S    
C107  C111  1.508281 S    
C87   C103  1.408706 A    
C120  C124  1.390368 A    
C14   C87   1.466941 S    
C75   C79   1.399576 A    
C21   C118  1.436497 S    
C99   C115  1.409243 A    
C130  H62   1.111838 S    
C97   C113  1.405500 A    
C140  H96   1.105596 S    
N3    H73   1.030801 S    
C23   C120  1.435069 S    
Cr2   O50   2.021215 S    
C139  H91   1.110733 S    
C38   H2    1.060109 S    
O14   Cr6   1.938342 S    
C135  H74   1.104138 S    
C144  H112  1.100014 S    
C33   C49   1.476296 S    
O38   C18   1.302977 A    
O25   Cr1   2.089733 S    
C128  H56   1.080362 S    
C39   C55   1.400183 A    
C50   N10   1.456087 S    
O2    Cr2   2.086056 S    
C131  H63   1.111420 S    
C131  C132  1.508103 S    
C132  H60   1.107660 S    
C14   O34   1.328506 A    
C10   C57   1.490724 S    
C143  H108  1.105309 S    
C48   H10   1.112225 S    
C45   N5    1.457366 S    
C138  H87   1.111667 S    
C31   C47   1.470751 S    
C3    C26   1.484048 S    
C111  H51   1.112072 S    
C97   C101  1.397752 A    
C38   C42   1.407088 A    
O10   Cr6   2.072820 S    
C118  C122  1.401267 A    
C142  H102  1.107229 S    
O4    Cr4   2.086056 S    
C118  C125  1.400630 A    
C27   C31   1.392991 A    
C106  C110  1.509631 S    
C141  H100  1.105305 S    
C47   C51   1.544540 S    
C43   H7    1.073942 S    
C79   H28   1.076350 S    
