data_mof_unit_8716.cif
_audit_creation_date              2012-12-10T17:18:19-0500
_audit_creation_method            fapswitch 2.2
_symmetry_space_group_name_H-M    P1
_symmetry_Int_Tables_number       1
_space_group_crystal_system       triclinic
_cell_length_a                    10.244867
_cell_length_b                    10.397411
_cell_length_c                    15.017649
_cell_angle_alpha                 91.129346
_cell_angle_beta                  80.907918
_cell_angle_gamma                 94.059941
_cell_volume                      1575.55952616

loop_
_atom_site_label
_atom_site_type_symbol
_atom_type_description
_atom_site_fract_x
_atom_site_fract_y
_atom_site_fract_z
_atom_type_partial_charge
C1    C     C_R   0.553710 0.734982 0.498279 0.912503
C2    C     C_2   0.077491 0.493847 0.486794 -0.060111
C3    C     C_R   0.498734 0.496196 0.673051 0.886082
C4    C     C_R   0.501687 0.505086 0.326799 0.890856
C5    C     C_R   0.389838 0.470768 0.197291 -0.279418
C6    C     C_R   0.610548 0.538474 0.801645 -0.265478
C7    C     C_R   0.504828 0.513139 0.230551 -0.117888
C8    C     C_R   0.496577 0.490739 0.768945 -0.097818
C9    C     C_R   0.620529 0.557926 0.172056 -0.072402
C10   C     C_R   0.382422 0.442752 0.827426 -0.066391
C11   C     C_R   0.618957 0.554812 0.078597 0.069863
C12   C     C_R   0.446457 0.265260 0.510549 0.937287
C13   C     C_R   0.383381 0.449020 0.920729 0.071406
C14   C     C_R   0.502355 0.506299 0.045955 0.058391
C15   C     C_R   0.499444 0.499723 0.953194 0.056404
C16   C     C_R   0.388215 0.464481 0.105943 0.120757
C17   C     C_R   0.613019 0.543222 0.893106 0.119527
C18   C     C_R   0.730438 0.598941 0.016872 -0.216461
C19   C     C_R   0.271901 0.405222 0.982477 -0.214113
C20   C     C_R   0.740466 0.610515 0.208369 0.142133
C21   C     C_R   0.852459 0.538171 0.201712 -0.130680
C22   C     C_R   0.964789 0.587525 0.236435 -0.148546
C23   C     C_R   0.727368 0.592720 0.925004 -0.214082
C24   C     C_R   0.966020 0.709121 0.277752 -0.101324
C25   C     C_R   0.854485 0.781090 0.285243 -0.112172
C26   C     C_R   0.741819 0.732012 0.250801 -0.146660
C27   C     C_R   0.265591 0.381969 0.791045 0.129025
C28   C     C_R   0.272206 0.259899 0.749664 -0.143454
C29   C     C_R   0.163749 0.203744 0.713560 -0.109494
C30   C     C_R   0.047797 0.268690 0.719140 -0.100197
C31   C     C_R   0.039892 0.389591 0.761262 -0.148085
C32   C     C_R   0.148613 0.446592 0.796751 -0.125466
C33   C     C_1   0.596805 0.143280 0.629804 0.220304
C34   C     C_R   0.274048 0.414355 0.074210 -0.214703
C35   C     C_1   0.417173 0.865242 0.654147 0.205021
C36   C     C_1   0.130485 0.397246 0.423443 0.264371
C37   C     C_1   0.910407 0.662977 0.501081 0.255531
C38   C     C_1   0.108701 0.628099 0.610021 0.305314
C39   C     C_1   0.859519 0.317075 0.463371 0.315912
C40   C     C_2   0.577959 0.872450 0.513363 -0.375032
C41   C     C_2   0.423115 0.129022 0.532427 -0.420990
C42   C     C_2   0.502089 0.932849 0.580870 -0.011687
C43   C     C_2   0.503773 0.072178 0.580484 -0.028343
C44   C     C_2   0.936080 0.528829 0.486370 -0.061749
H1    H     H_    0.301584 0.438601 0.242660 0.175776
H2    H     H_    0.050768 0.531510 0.231541 0.126941
H3    H     H_    0.053011 0.747084 0.304683 0.131747
H4    H     H_    0.855196 0.874736 0.318007 0.137298
H5    H     H_    0.655777 0.788315 0.257170 0.113679
H6    H     H_    0.361248 0.208604 0.745462 0.124604
H7    H     H_    0.169621 0.109876 0.681271 0.144292
H8    H     H_    0.964021 0.225242 0.691005 0.151253
H9    H     H_    0.949881 0.439597 0.765753 0.139887
H10   H     H_    0.142043 0.540901 0.828420 0.142668
H11   H     H_    0.697157 0.574934 0.755521 0.165457
H12   H     H_    0.820763 0.638648 0.038653 0.162918
H13   H     H_    0.182046 0.363911 0.960938 0.161107
H14   H     H_    0.814651 0.626841 0.878782 0.150662
H15   H     H_    0.186630 0.380643 0.120438 0.143330
H16   H     H_    0.346705 0.072263 0.503525 0.159076
H17   H     H_    0.649925 0.926825 0.464827 0.154908
H18   H     H_    0.852374 0.443818 0.169845 0.127645
N1    N     N_2   0.842700 0.448880 0.462930 -0.159502
N2    N     N_2   0.157300 0.551120 0.537070 -0.157107
N3    N     N_1   0.670867 0.199674 0.669428 -0.218699
N4    N     N_1   0.349790 0.811620 0.712939 -0.198662
N5    N     N_1   0.170669 0.317509 0.373805 -0.242581
N6    N     N_1   0.892889 0.771200 0.513044 -0.216272
N7    N     N_1   0.068583 0.692138 0.670737 -0.251634
N8    N     N_1   0.872579 0.207397 0.463823 -0.243994
O1    O     O_R   0.431060 0.692470 0.507460 -0.603428
O2    O     O_R   0.568940 0.307530 0.492540 -0.602687
O3    O     O_R   0.651120 0.659650 0.483670 -0.595232
O4    O     O_R   0.348880 0.340350 0.516330 -0.596638
O5    O     O_R   0.389960 0.516440 0.644050 -0.601873
O6    O     O_R   0.610040 0.483560 0.355950 -0.603140
O7    O     O_R   0.610030 0.483620 0.620260 -0.621790
O8    O     O_R   0.389970 0.516380 0.379740 -0.622962
Zn1   Zn    Zn3+2 0.353060 0.521920 0.515880 0.971921
Zn2   Zn    Zn3+2 0.646940 0.478080 0.484120 0.973089

loop_
_geom_bond_atom_site_label_1
_geom_bond_atom_site_label_2
_ccdc_geom_bond_type
C10   C27   S    
C23   H14   S    
C11   C18   A    
C12   O4    A    
C6    H11   S    
O1    Zn1   S    
C36   N5    T    
C33   N3    T    
C19   H13   S    
C1    O1    A    
C28   C29   A    
C30   C31   A    
C11   C14   A    
C37   N6    T    
C15   C17   A    
C35   C42   S    
C5    C16   A    
C1    C40   S    
C16   C34   A    
C28   H6    S    
C39   N8    T    
C2    C44   S    
C3    O5    A    
C18   H12   S    
C40   C42   D    
C12   O2    A    
C38   N7    T    
C21   C22   A    
C41   C43   D    
C4    C7    S    
C32   H10   S    
C2    N2    D    
C38   N2    S    
N1    Zn2   S    
C44   N1    D    
C13   C19   A    
C18   C23   A    
C33   C43   S    
C24   C25   A    
C3    C8    S    
C26   H5    S    
C5    C7    A    
O8    Zn1   S    
C6    C8    A    
C35   N4    T    
C25   C26   A    
C5    H1    S    
C19   C34   A    
C40   H17   S    
C4    O8    A    
C29   C30   A    
C9    C20   S    
C31   C32   A    
C17   C23   A    
C31   H9    S    
C9    C11   A    
C25   H4    S    
C21   H18   S    
C22   H2    S    
O4    Zn1   S    
C13   C15   A    
C34   H15   S    
N2    Zn1   S    
C14   C16   A    
C42   C43   S    
C3    O7    A    
C12   C41   S    
C29   H7    S    
O7    Zn2   S    
C2    C36   S    
C7    C9    A    
C6    C17   A    
C30   H8    S    
C27   C32   A    
C24   H3    S    
O6    Zn2   S    
C41   H16   S    
C10   C13   A    
C39   N1    S    
C1    O3    A    
C37   C44   S    
O2    Zn2   S    
C20   C26   A    
O3    Zn2   S    
C22   C24   A    
C4    O6    A    
C20   C21   A    
C8    C10   A    
C27   C28   A    
C14   C15   A    
O5    Zn1   S    
