data_mof_unit_14795.cif
_audit_creation_date              2012-12-10T17:37:22-0500
_audit_creation_method            fapswitch 2.2
_symmetry_space_group_name_H-M    P1
_symmetry_Int_Tables_number       1
_space_group_crystal_system       triclinic
_cell_length_a                    12.156627
_cell_length_b                    12.719561
_cell_length_c                    16.736829
_cell_angle_alpha                 92.529944
_cell_angle_beta                  82.239235
_cell_angle_gamma                 96.63928
_cell_volume                      2545.99370634

loop_
_atom_site_label
_atom_site_type_symbol
_atom_type_description
_atom_site_fract_x
_atom_site_fract_y
_atom_site_fract_z
_atom_type_partial_charge
C1    C     C_R   0.524315 0.700539 0.498861 0.874675
C2    C     C_R   0.536128 0.130936 0.454516 -0.279824
C3    C     C_R   0.457961 0.974475 0.526839 0.190582
C4    C     C_R   0.538047 0.025048 0.467477 0.189959
C5    C     C_R   0.948831 0.386200 0.437556 -0.348215
C6    C     C_R   0.053611 0.618785 0.558665 -0.340087
C7    C     C_R   0.835900 0.398666 0.442070 -0.010022
C8    C     C_R   0.166816 0.606458 0.552105 -0.019538
C9    C     C_R   0.863146 0.557136 0.522041 0.219991
C10   C     C_R   0.133623 0.440201 0.483868 0.180405
C11   C     C_R   0.978984 0.546049 0.519949 0.078716
C12   C     C_R   0.475519 0.299529 0.500174 0.885611
C13   C     C_R   0.021028 0.457348 0.479360 0.042291
C14   C     C_R   0.486828 0.508044 0.653356 0.862234
C15   C     C_R   0.514755 0.499516 0.346377 0.853927
C16   C     C_R   0.487462 0.545138 0.736963 -0.055886
C17   C     C_R   0.524701 0.509394 0.259447 -0.062797
C18   C     C_R   0.589847 0.582997 0.763193 -0.219670
C19   C     C_R   0.435707 0.541186 0.225185 -0.215860
C20   C     C_R   0.592863 0.626557 0.839847 -0.199685
C21   C     C_R   0.448002 0.560909 0.143883 -0.195160
C22   C     C_R   0.494017 0.629515 0.892902 0.165832
C23   C     C_R   0.457332 0.186766 0.501290 -0.045157
C24   C     C_R   0.549557 0.549220 0.095220 0.172207
C25   C     C_R   0.389461 0.598164 0.866081 0.136875
C26   C     C_R   0.638556 0.512605 0.128508 0.132420
C27   C     C_R   0.387357 0.555978 0.787549 -0.247396
C28   C     C_R   0.625104 0.493693 0.210983 -0.240186
C29   C     C_2   0.503703 0.638423 0.978796 -0.247129
C30   C     C_2   0.557847 0.566467 0.008867 -0.257942
C31   C     C_3   0.280523 0.601417 0.921206 -0.448288
C32   C     C_3   0.247202 0.496895 0.965007 -0.317918
C33   C     C_3   0.144244 0.503856 0.027293 -0.911885
C34   C     C_R   0.541012 0.813327 0.495076 -0.055483
C35   C     C_3   0.748061 0.492904 0.078526 -0.456204
C36   C     C_3   0.743563 0.377529 0.047226 -0.337619
C37   C     C_3   0.853547 0.355473 0.997473 -0.890190
C38   C     C_3   0.162553 0.327214 0.471012 -0.380177
C39   C     C_3   0.217483 0.303560 0.384927 -0.316536
C40   C     C_3   0.218779 0.184709 0.368327 -0.912394
C41   C     C_3   0.816758 0.653363 0.564813 -0.401498
C42   C     C_3   0.826583 0.748502 0.509218 -0.301625
C43   C     C_3   0.940559 0.814059 0.498798 -0.897601
C44   C     C_R   0.619746 0.969427 0.423035 -0.209026
C45   C     C_R   0.374574 0.029456 0.569931 -0.217334
C46   C     C_R   0.620068 0.862649 0.436023 -0.232016
C47   C     C_R   0.374257 0.136299 0.557064 -0.228186
C48   C     C_R   0.461930 0.869377 0.541474 -0.271828
H1    H     H_    0.668398 0.578580 0.724857 0.151847
H2    H     H_    0.455832 0.692098 0.017589 0.153523
H3    H     H_    0.376817 0.583779 0.119095 0.145334
H4    H     H_    0.673263 0.650700 0.860120 0.143320
H5    H     H_    0.599232 0.171440 0.410806 0.135535
H6    H     H_    0.400150 0.829500 0.586390 0.135879
H7    H     H_    0.313830 0.180526 0.593584 0.146212
H8    H     H_    0.677941 0.817834 0.397633 0.146316
H9    H     H_    0.680822 0.007612 0.377048 0.135562
H10   H     H_    0.312147 0.990730 0.614800 0.136130
H11   H     H_    0.161703 0.566354 0.073811 0.258716
H12   H     H_    0.356910 0.552774 0.261336 0.166320
H13   H     H_    0.072622 0.522291 0.997623 0.267175
H14   H     H_    0.121622 0.426945 0.057521 0.248179
H15   H     H_    0.228911 0.431982 0.920412 0.219532
H16   H     H_    0.316833 0.476988 0.996217 0.232500
H17   H     H_    0.287443 0.668725 0.965485 0.194568
H18   H     H_    0.213378 0.616148 0.885412 0.194537
H19   H     H_    0.874082 0.409474 0.945879 0.261116
H20   H     H_    0.921932 0.366264 0.035800 0.263200
H21   H     H_    0.846388 0.272483 0.973568 0.250010
H22   H     H_    0.726254 0.323564 0.099021 0.222216
H23   H     H_    0.222785 0.665354 0.579438 0.141814
H24   H     H_    0.675216 0.359857 0.009140 0.217829
H25   H     H_    0.768197 0.547810 0.027481 0.201353
H26   H     H_    0.817414 0.509796 0.115953 0.203998
H27   H     H_    0.263651 0.150006 0.412454 0.280696
H28   H     H_    0.132095 0.144700 0.372267 0.258098
H29   H     H_    0.262107 0.170469 0.306700 0.250973
H30   H     H_    0.171415 0.335687 0.340171 0.204178
H31   H     H_    0.304386 0.341022 0.375541 0.258760
H32   H     H_    0.208541 0.305943 0.518876 0.216662
H33   H     H_    0.086019 0.270822 0.484212 0.173909
H34   H     H_    0.781510 0.342288 0.411105 0.137391
H35   H     H_    0.965291 0.841910 0.558286 0.254430
H36   H     H_    0.004505 0.767934 0.464751 0.274857
H37   H     H_    0.935771 0.884841 0.463397 0.246216
H38   H     H_    0.806376 0.720789 0.448489 0.234648
H39   H     H_    0.764807 0.802268 0.535927 0.222457
H40   H     H_    0.728980 0.632399 0.588504 0.221619
H41   H     H_    0.852760 0.676206 0.621236 0.153502
H42   H     H_    0.978252 0.320414 0.400957 0.161845
H43   H     H_    0.028073 0.686954 0.593374 0.167374
H44   H     H_    0.693478 0.467232 0.237318 0.155728
H45   H     H_    0.307835 0.529762 0.766632 0.153984
H46   H     H_    0.603154 0.512788 0.968054 0.169031
N1    N     N_R   0.206400 0.519440 0.514690 -0.108038
N2    N     N_R   0.793600 0.480560 0.485310 -0.119455
O1    O     O_R   0.421320 0.658850 0.503920 -0.612341
O2    O     O_R   0.578680 0.341150 0.496080 -0.611803
O3    O     O_R   0.609840 0.646370 0.494500 -0.646126
O4    O     O_R   0.390160 0.353630 0.505500 -0.634589
O5    O     O_R   0.394600 0.506990 0.621070 -0.619743
O6    O     O_R   0.605400 0.493010 0.378930 -0.618872
O7    O     O_R   0.583120 0.494520 0.611640 -0.630905
O8    O     O_R   0.416880 0.505480 0.388360 -0.626616
Zn1   Zn    Zn3+2 0.374120 0.508330 0.506290 0.925167
Zn2   Zn    Zn3+2 0.625880 0.491670 0.493710 0.918875

loop_
_geom_bond_atom_site_label_1
_geom_bond_atom_site_label_2
_ccdc_geom_bond_type
C25   C31   S    
C31   H18   S    
C41   H41   S    
C35   H26   S    
C22   C29   S    
C37   H21   S    
C43   H35   S    
C41   C42   S    
C35   C36   S    
C1    O3    A    
C48   H6    S    
C7    N2    A    
C12   C23   S    
O4    Zn1   S    
C36   C37   S    
C19   C21   A    
C24   C26   A    
C38   C39   S    
C6    H43   S    
C37   H20   S    
C3    C48   A    
C31   H17   S    
C41   H40   S    
N1    Zn1   S    
C36   H22   S    
C33   H14   S    
C22   C25   A    
C34   C46   A    
C15   O8    A    
C5    C13   A    
C5    H42   S    
O1    Zn1   S    
C16   C27   A    
C33   H11   S    
C43   H36   S    
C8    N1    A    
O8    Zn1   S    
C44   C46   A    
C1    C34   S    
C29   H2    S    
C45   C47   A    
O5    Zn1   S    
C45   H10   S    
C23   C47   A    
C43   H37   S    
C39   H30   S    
C32   H16   S    
C1    O1    A    
C6    C11   A    
C5    C7    A    
C30   H46   S    
C14   O5    A    
C6    C8    A    
C4    C44   A    
C3    C45   A    
C40   H28   S    
C39   H31   S    
C2    C4    A    
C29   C30   D    
C9    C41   S    
C31   C32   S    
C44   H9    S    
C28   H44   S    
C9    C11   A    
C9    N2    A    
C42   H38   S    
C16   C18   A    
C20   C22   A    
C38   H33   S    
C25   C27   A    
C14   C16   S    
C27   H45   S    
C34   C48   A    
C42   C43   S    
C3    C4    A    
C21   H3    S    
C47   H7    S    
C15   C17   S    
O3    Zn2   S    
N2    Zn2   S    
C35   H25   S    
C8    H23   S    
C17   C28   A    
C12   O2    A    
C2    H5    S    
C10   C13   A    
C19   H12   S    
C32   H15   S    
C26   C28   A    
O2    Zn2   S    
C40   H27   S    
C10   C38   S    
C32   C33   S    
C20   H4    S    
C11   C13   A    
C14   O7    A    
C38   H32   S    
C10   N1    A    
C37   H19   S    
C17   C19   A    
O6    Zn2   S    
O7    Zn2   S    
C18   C20   A    
C15   O6    A    
C24   C30   S    
C12   O4    A    
C39   C40   S    
C26   C35   S    
C7    H34   S    
C33   H13   S    
C21   C24   A    
C46   H8    S    
C2    C23   A    
C40   H29   S    
C42   H39   S    
C36   H24   S    
C18   H1    S    
