data_mof_unit_18087.cif
_audit_creation_date              2012-12-10T17:57:53-0500
_audit_creation_method            fapswitch 2.2
_symmetry_space_group_name_H-M    P1
_symmetry_Int_Tables_number       1
_space_group_crystal_system       triclinic
_cell_length_a                    10.887051
_cell_length_b                    9.515206
_cell_length_c                    15.06561
_cell_angle_alpha                 90.275487
_cell_angle_beta                  90.090036
_cell_angle_gamma                 90.192018
_cell_volume                      1560.65592982

loop_
_atom_site_label
_atom_site_type_symbol
_atom_type_description
_atom_site_fract_x
_atom_site_fract_y
_atom_site_fract_z
_atom_type_partial_charge
C1    C     C_R   0.262146 0.499869 0.499778 0.934542
C2    C     C_R   0.737853 0.500132 0.500219 0.934542
C3    C     C_R   0.285638 0.424433 0.047118 0.231817
C4    C     C_R   0.714386 0.575555 0.952877 0.231803
C5    C     C_R   0.063426 0.393774 0.453248 0.252719
C6    C     C_R   0.936569 0.606223 0.546745 0.252720
C7    C     C_R   0.935328 0.393700 0.453467 0.249110
C8    C     C_R   0.064663 0.606331 0.546496 0.249156
C9    C     C_R   0.871680 0.500129 0.500126 -0.262525
C10   C     C_R   0.128315 0.499876 0.499862 -0.262522
C11   C     C_R   0.443650 0.073580 0.433528 0.051805
C12   C     C_R   0.556352 0.926420 0.566471 0.051794
C13   C     C_R   0.556832 0.075146 0.566293 0.041701
C14   C     C_R   0.443169 0.924853 0.433707 0.041741
C15   C     C_R   0.500556 0.500109 0.329037 0.895209
C16   C     C_R   0.499448 0.499891 0.670963 0.895206
C17   C     C_R   0.610244 0.510048 0.812953 0.230766
C18   C     C_R   0.389769 0.489900 0.187047 0.230757
C19   C     C_R   0.498721 0.498498 0.767386 -0.208509
C20   C     C_R   0.501286 0.501505 0.232613 -0.208496
C21   C     C_R   0.388147 0.475719 0.812716 0.259237
C22   C     C_R   0.611854 0.524369 0.187284 0.259252
C23   C     C_R   0.389155 0.468073 0.906375 -0.100516
C24   C     C_R   0.610855 0.531968 0.093624 -0.100527
C25   C     C_R   0.499654 0.499417 0.952996 -0.100192
C26   C     C_R   0.500363 0.500581 0.047004 -0.100171
C27   C     C_R   0.609699 0.528375 0.905703 -0.076562
C28   C     C_R   0.390321 0.471600 0.094296 -0.076573
C29   C     C_R   0.284443 0.426776 0.954769 0.632343
C30   C     C_R   0.715574 0.573259 0.045227 0.632321
Cu1   Cu    Cu3+1 0.500000 0.640660 0.500000 1.057632
Cu2   Cu    Cu3+1 0.500000 0.359340 0.500000 1.057620
H1    H     H_    0.399105 0.128702 0.379943 0.169612
H2    H     H_    0.600902 0.871297 0.620054 0.169608
H3    H     H_    0.602855 0.131559 0.619287 0.158865
H4    H     H_    0.397147 0.868441 0.380712 0.158859
N1    N     N_R   0.500000 0.852070 0.500000 -0.183388
N2    N     N_R   0.500000 0.147930 0.500000 -0.183393
O1    O     O_R   0.319640 0.618740 0.499990 -0.554951
O2    O     O_R   0.680360 0.381260 0.500010 -0.554973
O3    O     O_R   0.680360 0.618740 0.500010 -0.551102
O4    O     O_R   0.319640 0.381260 0.499990 -0.551100
O5    O     O_R   0.499970 0.618800 0.370260 -0.577741
O6    O     O_R   0.500030 0.381200 0.629740 -0.577748
O7    O     O_R   0.500030 0.618800 0.629740 -0.571789
O8    O     O_R   0.499970 0.381200 0.370260 -0.571793
Br1   Br    Br    0.757540 0.457116 0.749234 -0.360571
Br2   Br    Br    0.242460 0.542768 0.250767 -0.360569
Br3   Br    Br    0.240110 0.450463 0.742628 -0.291523
Br4   Br    Br    0.759849 0.549873 0.257375 -0.291511
F1    F     F_    0.181323 0.379206 0.913752 -0.542918
F2    F     F_    0.818701 0.620845 0.086240 -0.542886
Br5   Br    Br    0.149841 0.326249 0.101629 -0.167965
Br6   Br    Br    0.850192 0.673719 0.898353 -0.167935
Br7   Br    Br    0.146538 0.250148 0.384165 -0.328988
Br8   Br    Br    0.853462 0.749794 0.615868 -0.328992
Br9   Br    Br    0.850344 0.248823 0.385361 -0.286149
Br10  Br    Br    0.149619 0.751344 0.614483 -0.286161

loop_
_geom_bond_atom_site_label_1
_geom_bond_atom_site_label_2
_ccdc_geom_bond_type
C16   O7    A    
C11   N2    A    
C29   F1    S    
Cu2   N2    S    
C25   C27   A    
C5    C7    A    
C16   O6    A    
C26   C28   A    
Cu1   Cu2   S    
C22   Br4   S    
C4    Br6   S    
C7    C9    A    
C4    C27   A    
C6    C9    A    
C21   Br3   S    
Cu2   O6    S    
C15   O5    A    
C5    C10   A    
C14   N1    A    
C3    Br5   S    
C24   C26   A    
C13   N2    A    
Cu1   O5    S    
C16   C19   S    
C23   C29   A    
C3    C28   A    
C19   C21   A    
Cu1   O1    S    
C13   H3    S    
C18   C20   A    
C23   C25   A    
C21   C23   A    
C14   H4    S    
C15   C20   S    
C11   C14   A    
C22   C24   A    
C24   C30   A    
C7    Br9   S    
C1    O1    A    
C2    O3    A    
C12   H2    S    
C17   C27   A    
C2    O2    A    
C1    O4    A    
C11   H1    S    
Cu2   O2    S    
C18   C28   A    
C12   C13   A    
C8    C10   A    
Cu1   O7    S    
C6    Br8   S    
C12   N1    A    
C3    C29   A    
Cu2   O4    S    
C17   C19   A    
C6    C8    A    
Cu1   O3    S    
C15   O8    A    
C8    Br10  S    
C25   C26   A    
C2    C9    S    
Cu2   O8    S    
C5    Br7   S    
Cu1   N1    S    
C4    C30   A    
C1    C10   S    
C17   Br1   S    
C20   C22   A    
C30   F2    S    
C18   Br2   S    
