data_mof_unit_33134.cif
_audit_creation_date              2012-12-11T16:52:13-0500
_audit_creation_method            fapswitch 2.2
_symmetry_space_group_name_H-M    P1
_symmetry_Int_Tables_number       1
_space_group_crystal_system       triclinic
_cell_length_a                    7.198099
_cell_length_b                    26.086946
_cell_length_c                    28.742174
_cell_angle_alpha                 89.999961
_cell_angle_beta                  89.999785
_cell_angle_gamma                 90.000012
_cell_volume                      5397.10253427

loop_
_atom_site_label
_atom_site_type_symbol
_atom_type_description
_atom_site_fract_x
_atom_site_fract_y
_atom_site_fract_z
_atom_type_partial_charge
O1    O     O_R   0.601030 0.796770 0.202460 -0.537170
O2    O     O_R   0.398970 0.203230 0.797540 -0.537143
O3    O     O_R   0.398970 0.203230 0.702460 -0.537171
O4    O     O_R   0.601030 0.796770 0.297540 -0.537143
O5    O     O_R   0.101030 0.703230 0.297540 -0.537171
O6    O     O_R   0.898970 0.296770 0.702460 -0.537144
O7    O     O_R   0.898970 0.296770 0.797540 -0.537171
O8    O     O_R   0.101030 0.703230 0.202460 -0.537145
O9    O     O_R   0.271290 0.802910 0.297210 -0.538433
O10   O     O_R   0.728710 0.197090 0.702790 -0.538250
O11   O     O_R   0.728710 0.197090 0.797210 -0.538433
O12   O     O_R   0.271290 0.802910 0.202790 -0.538250
O13   O     O_R   0.771290 0.697090 0.202790 -0.538433
O14   O     O_R   0.228710 0.302910 0.797210 -0.538250
O15   O     O_R   0.228710 0.302910 0.702790 -0.538434
O16   O     O_R   0.771290 0.697090 0.297210 -0.538250
C1    C     C_R   0.439887 0.815252 0.312548 0.680434
C2    C     C_R   0.560116 0.184766 0.687446 0.680857
C3    C     C_R   0.560112 0.184748 0.812548 0.680433
C4    C     C_R   0.439883 0.815233 0.187446 0.680857
C5    C     C_R   0.939888 0.684748 0.187451 0.680433
C6    C     C_R   0.060116 0.315234 0.812553 0.680857
C7    C     C_R   0.060113 0.315252 0.687452 0.680434
C8    C     C_R   0.939883 0.684766 0.312554 0.680858
O17   O     O_3   0.434520 0.717290 0.250000 -0.374250
O18   O     O_3   0.565480 0.282710 0.750000 -0.374250
O19   O     O_3   0.934520 0.782710 0.250000 -0.374248
O20   O     O_3   0.065480 0.217290 0.750000 -0.374249
V1    V     V_3+5 0.159680 0.756060 0.250000 1.395114
V2    V     V_3+5 0.840320 0.243940 0.750000 1.395113
V3    V     V_3+5 0.659680 0.743940 0.250000 1.395114
V4    V     V_3+5 0.340320 0.256060 0.750000 1.395113
C9    C     C_R   0.896556 0.386419 0.645216 -0.169016
C10   C     C_R   0.102501 0.613314 0.354580 -0.165590
C11   C     C_R   0.103441 0.613581 0.145216 -0.169014
C12   C     C_R   0.897496 0.386687 0.854579 -0.165573
C13   C     C_R   0.396557 0.113579 0.854782 -0.169018
C14   C     C_R   0.602483 0.886687 0.145419 -0.165647
C15   C     C_R   0.603440 0.886421 0.354781 -0.169012
C16   C     C_R   0.397500 0.113314 0.645420 -0.165571
H1    H     H_    0.783994 0.384604 0.670174 0.123780
H2    H     H_    0.214212 0.614763 0.329363 0.124322
H3    H     H_    0.215997 0.615393 0.170175 0.123778
H4    H     H_    0.785783 0.385237 0.829363 0.124323
H5    H     H_    0.283998 0.115394 0.829824 0.123778
H6    H     H_    0.714179 0.885247 0.170640 0.124317
H7    H     H_    0.715997 0.884608 0.329822 0.123776
H8    H     H_    0.285788 0.114763 0.670636 0.124323
C17   C     C_R   0.887289 0.422483 0.609201 -0.160721
C18   C     C_R   0.111820 0.577349 0.390668 -0.170885
C19   C     C_R   0.112709 0.577518 0.109199 -0.160721
C20   C     C_R   0.888177 0.422653 0.890666 -0.170886
C21   C     C_R   0.387292 0.077513 0.890796 -0.160713
C22   C     C_R   0.611802 0.922648 0.109329 -0.170878
C23   C     C_R   0.612708 0.922486 0.390796 -0.160717
C24   C     C_R   0.388181 0.077349 0.609332 -0.170885
H9    H     H_    0.768437 0.447870 0.607636 0.117073
H10   H     H_    0.229805 0.551636 0.392038 0.120531
H11   H     H_    0.231557 0.552129 0.107635 0.117072
H12   H     H_    0.770189 0.448365 0.892036 0.120530
H13   H     H_    0.268443 0.052125 0.892359 0.117061
H14   H     H_    0.729765 0.948368 0.107960 0.120530
H15   H     H_    0.731557 0.947875 0.392359 0.117060
H16   H     H_    0.270194 0.051636 0.607961 0.120528
C25   C     C_R   0.030190 0.426081 0.575892 0.127766
C26   C     C_R   0.969945 0.574226 0.424288 0.130484
C27   C     C_R   0.969816 0.573923 0.075889 0.127762
C28   C     C_R   0.030055 0.425778 0.924285 0.130478
C29   C     C_R   0.530190 0.073915 0.924105 0.127759
C30   C     C_R   0.469949 0.925761 0.075702 0.130491
C31   C     C_R   0.469815 0.926082 0.424107 0.127753
C32   C     C_R   0.530059 0.074226 0.575712 0.130480
C33   C     C_R   0.182994 0.392649 0.579811 -0.112905
C34   C     C_R   0.818277 0.608086 0.420673 -0.101525
C35   C     C_R   0.817018 0.607358 0.079806 -0.112897
C36   C     C_R   0.181724 0.391918 0.920670 -0.101507
C37   C     C_R   0.682989 0.107350 0.920189 -0.112913
C38   C     C_R   0.318300 0.891895 0.079315 -0.101584
C39   C     C_R   0.317016 0.892647 0.420190 -0.112904
C40   C     C_R   0.681725 0.108086 0.579327 -0.101517
H17   H     H_    0.292729 0.392986 0.554081 0.143422
H18   H     H_    0.709542 0.608149 0.446671 0.144814
H19   H     H_    0.707288 0.607023 0.054075 0.143420
H20   H     H_    0.290460 0.391856 0.946668 0.144815
H21   H     H_    0.792722 0.107012 0.945919 0.143421
H22   H     H_    0.209580 0.891825 0.053313 0.144811
H23   H     H_    0.207287 0.892983 0.445922 0.143425
H24   H     H_    0.790460 0.108149 0.553329 0.144820
C41   C     C_R   0.194502 0.357496 0.616542 -0.191961
C42   C     C_R   0.806595 0.643114 0.383853 -0.197608
C43   C     C_R   0.805508 0.642510 0.116538 -0.191963
C44   C     C_R   0.193405 0.356888 0.883851 -0.197611
C45   C     C_R   0.694498 0.142504 0.883459 -0.191956
C46   C     C_R   0.306614 0.856870 0.116138 -0.197593
C47   C     C_R   0.305505 0.857495 0.383460 -0.191962
C48   C     C_R   0.693406 0.143115 0.616147 -0.197613
H25   H     H_    0.313875 0.332307 0.618502 0.123400
H26   H     H_    0.688060 0.668620 0.382086 0.123632
H27   H     H_    0.686141 0.667701 0.118498 0.123398
H28   H     H_    0.311941 0.331383 0.882084 0.123635
H29   H     H_    0.813868 0.167694 0.881499 0.123399
H30   H     H_    0.188092 0.831360 0.117904 0.123620
H31   H     H_    0.186136 0.832304 0.381501 0.123399
H32   H     H_    0.811940 0.168620 0.617915 0.123636
C49   C     C_R   0.050810 0.353731 0.649466 -0.041523
C50   C     C_R   0.949183 0.646368 0.350587 -0.041182
C51   C     C_R   0.949193 0.646271 0.149465 -0.041522
C52   C     C_R   0.050815 0.353633 0.850586 -0.041192
C53   C     C_R   0.550808 0.146268 0.850533 -0.041522
C54   C     C_R   0.449182 0.853627 0.149410 -0.041149
C55   C     C_R   0.449191 0.853731 0.350533 -0.041521
C56   C     C_R   0.550817 0.146368 0.649413 -0.041190
C57   C     C_R   0.172489 0.493050 0.522103 0.432611
C58   C     C_R   0.827573 0.507017 0.477646 0.431577
C59   C     C_R   0.827515 0.506956 0.022100 0.432628
C60   C     C_R   0.172430 0.492989 0.977641 0.431600
C61   C     C_R   0.672497 0.006944 0.977891 0.432569
C62   C     C_R   0.327572 0.992962 0.022338 0.431486
C63   C     C_R   0.327517 0.993049 0.477897 0.432636
C64   C     C_R   0.672437 0.007017 0.522353 0.431586
C65   C     C_R   0.154358 0.527936 0.485252 -0.295380
C66   C     C_R   0.845684 0.472090 0.514665 -0.309782
C67   C     C_R   0.845645 0.472069 0.985249 -0.295392
C68   C     C_R   0.154321 0.527915 0.014661 -0.309784
C69   C     C_R   0.654368 0.972056 0.014742 -0.295366
C70   C     C_R   0.345683 0.027897 0.985327 -0.309760
C71   C     C_R   0.345650 0.027935 0.514748 -0.295415
C72   C     C_R   0.654327 0.972093 0.485332 -0.309745
H33   H     H_    0.275460 0.549593 0.474608 0.171769
H34   H     H_    0.724308 0.450641 0.525488 0.172684
H35   H     H_    0.724543 0.450412 0.974606 0.171765
H36   H     H_    0.275698 0.549362 0.025486 0.172679
H37   H     H_    0.775477 0.950404 0.025389 0.171797
H38   H     H_    0.224305 0.049347 0.974508 0.172722
H39   H     H_    0.224547 0.049591 0.525393 0.171772
H40   H     H_    0.775703 0.950647 0.474506 0.172678
C73   C     C_R   0.982735 0.536117 0.463070 -0.074702
C74   C     C_R   0.017149 0.464070 0.536983 -0.083386
C75   C     C_R   0.017267 0.463889 0.963067 -0.074730
C76   C     C_R   0.982856 0.535935 0.036979 -0.083386
C77   C     C_R   0.482740 0.963868 0.036919 -0.074602
C78   C     C_R   0.517152 0.035922 0.963012 -0.083386
C79   C     C_R   0.517273 0.036116 0.536930 -0.074726
C80   C     C_R   0.482858 0.964071 0.463016 -0.083384
O21   O     O_3   0.345544 0.486514 0.542132 -0.578911
C81   C     C_3   0.359946 0.516444 0.583044 0.077878
H41   H     H_    0.432598 0.492895 0.609626 0.134901
H42   H     H_    0.223330 0.527514 0.598593 0.106542
C82   C     C_3   0.476107 0.564398 0.573327 -0.291719
H43   H     H_    0.612129 0.553022 0.558261 0.216413
H44   H     H_    0.402775 0.589099 0.547761 0.190757
C83   C     C_3   0.510148 0.595058 0.617706 -0.855194
H45   H     H_    0.376019 0.607545 0.633100 0.234071
H46   H     H_    0.594135 0.629584 0.609457 0.234457
H47   H     H_    0.587244 0.571479 0.643460 0.230465
O22   O     O_3   0.654530 0.515043 0.457945 -0.579033
C84   C     C_3   0.604719 0.473307 0.429068 0.084729
H48   H     H_    0.452820 0.467140 0.433019 0.152747
H49   H     H_    0.672926 0.436310 0.438561 0.105374
C85   C     C_3   0.645907 0.486420 0.378195 -0.319040
H50   H     H_    0.580481 0.523756 0.369274 0.204583
H51   H     H_    0.798432 0.489942 0.373207 0.197234
C86   C     C_3   0.571622 0.445246 0.345426 -0.846711
H52   H     H_    0.636766 0.407646 0.353356 0.232860
H53   H     H_    0.604896 0.455738 0.308925 0.234586
H54   H     H_    0.418391 0.441913 0.348941 0.230153
O23   O     O_3   0.654460 0.513492 0.042129 -0.578909
C87   C     C_3   0.640056 0.483563 0.083042 0.077876
H55   H     H_    0.567409 0.507113 0.109623 0.134901
H56   H     H_    0.776672 0.472491 0.098589 0.106542
C88   C     C_3   0.523887 0.435610 0.073325 -0.291718
H57   H     H_    0.387863 0.446987 0.058262 0.216408
H58   H     H_    0.597210 0.410908 0.047758 0.190760
C89   C     C_3   0.489850 0.404950 0.117704 -0.855199
H59   H     H_    0.623981 0.392461 0.133096 0.234071
H60   H     H_    0.405855 0.370425 0.109456 0.234456
H61   H     H_    0.412765 0.428530 0.143460 0.230465
O24   O     O_3   0.345473 0.484963 0.957939 -0.579037
C90   C     C_3   0.395293 0.526702 0.929066 0.084759
H62   H     H_    0.547238 0.532820 0.932970 0.152710
H63   H     H_    0.327290 0.563712 0.938607 0.105413
C91   C     C_3   0.353787 0.513638 0.878199 -0.319106
H64   H     H_    0.419045 0.476292 0.869233 0.204621
H65   H     H_    0.201226 0.510159 0.873260 0.197203
C92   C     C_3   0.428031 0.554818 0.845431 -0.846685
H66   H     H_    0.363070 0.592431 0.853410 0.232857
H67   H     H_    0.394506 0.544366 0.808935 0.234590
H68   H     H_    0.581293 0.558106 0.848893 0.230151
O25   O     O_3   0.845557 0.013486 0.957866 -0.578922
C93   C     C_3   0.859974 0.983565 0.916949 0.077893
H69   H     H_    0.932731 0.007109 0.890382 0.134902
H70   H     H_    0.723363 0.972523 0.901382 0.106550
C94   C     C_3   0.976006 0.935588 0.926669 -0.291755
H71   H     H_    0.112011 0.946935 0.941761 0.216451
H72   H     H_    0.902551 0.910887 0.952213 0.190739
C95   C     C_3   0.010101 0.904942 0.882284 -0.855183
H73   H     H_    0.875987 0.892486 0.866861 0.234069
H74   H     H_    0.093982 0.870397 0.890535 0.234458
H75   H     H_    0.087330 0.928519 0.856553 0.230465
O26   O     O_3   0.154526 0.984931 0.042034 -0.579027
C96   C     C_3   0.104734 0.026649 0.070936 0.084643
H76   H     H_    0.952987 0.032976 0.066827 0.152861
H77   H     H_    0.173608 0.063604 0.061608 0.105256
C97   C     C_3   0.144852 0.013361 0.121824 -0.318838
H78   H     H_    0.078843 0.976058 0.130588 0.204447
H79   H     H_    0.297244 0.009690 0.126974 0.197360
C98   C     C_3   0.070451 0.054509 0.154603 -0.846808
H80   H     H_    0.136229 0.092069 0.146845 0.232874
H81   H     H_    0.102875 0.043877 0.191119 0.234580
H82   H     H_    0.917334 0.058000 0.150911 0.230163
O27   O     O_3   0.154456 0.986510 0.457872 -0.578913
C99   C     C_3   0.140040 0.016434 0.416956 0.077878
H83   H     H_    0.067297 0.992891 0.390387 0.134906
H84   H     H_    0.276650 0.027481 0.401392 0.106548
C100  C     C_3   0.023991 0.064408 0.426679 -0.291761
H85   H     H_    0.887993 0.053056 0.441772 0.216449
H86   H     H_    0.097440 0.089110 0.452223 0.190735
C101  C     C_3   0.989877 0.095054 0.382295 -0.855168
H87   H     H_    0.123984 0.107513 0.366870 0.234070
H88   H     H_    0.905989 0.129597 0.390548 0.234457
H89   H     H_    0.912648 0.071476 0.356565 0.230461
O28   O     O_3   0.845484 0.015046 0.542052 -0.579042
C102  C     C_3   0.895320 0.973309 0.570925 0.084770
H90   H     H_    0.047271 0.967196 0.567024 0.152716
H91   H     H_    0.827338 0.936296 0.561382 0.105410
C103  C     C_3   0.853793 0.986370 0.621792 -0.319120
H92   H     H_    0.919003 0.023722 0.630758 0.204636
H93   H     H_    0.701225 0.989834 0.626731 0.197191
C104  C     C_3   0.928091 0.945198 0.654561 -0.846685
H94   H     H_    0.863213 0.907576 0.646577 0.232859
H95   H     H_    0.894516 0.955642 0.691057 0.234591
H96   H     H_    0.081363 0.941934 0.651108 0.230149

loop_
_geom_bond_atom_site_label_1
_geom_bond_atom_site_label_2
_ccdc_geom_bond_type
O17   V3    S    
C32   C79   S    
C88   H57   S    
O18   V4    S    
C84   H48   S    
C60   O24   S    
O12   V1    S    
C30   C38   A    
C96   H76   S    
C29   C37   A    
C102  H90   S    
C10   H2    S    
C62   C77   A    
C62   O26   S    
C36   H20   S    
C39   H23   S    
O21   C81   S    
C101  H87   S    
C102  C103  S    
C17   H9    S    
O15   V4    S    
C16   C56   A    
O14   V4    S    
O16   V3    S    
C48   C56   A    
O11   C3    A    
C93   H69   S    
C17   C25   A    
O8    V1    S    
C66   H34   S    
O22   C84   S    
C86   H53   S    
C71   H39   S    
C104  H96   S    
C100  H86   S    
C87   H56   S    
C92   H67   S    
C12   C52   A    
O6    C7    A    
C9    C17   A    
C7    C49   S    
C67   C75   A    
O1    V3    S    
C25   C33   A    
O19   V1    S    
C68   H36   S    
O3    C2    A    
O2    V4    S    
C58   C73   A    
C65   C73   A    
C68   C76   A    
C91   H64   S    
C20   H12   S    
C93   C94   S    
C89   H59   S    
C21   H13   S    
C44   C52   A    
C87   C88   S    
C15   C23   A    
C86   H52   S    
O11   V2    S    
C69   C77   A    
O26   C96   S    
C16   C24   A    
C23   H15   S    
C98   H82   S    
C64   O28   S    
C24   H16   S    
C40   C48   A    
C11   H3    S    
C13   C53   A    
C12   C20   A    
O9    V1    S    
C90   C91   S    
C67   H35   S    
C38   H22   S    
O15   C7    A    
C21   C29   A    
C14   C22   A    
C84   H49   S    
O7    V2    S    
C40   H24   S    
C26   C73   S    
C63   C80   A    
C96   H77   S    
C82   H44   S    
O25   C93   S    
C64   C79   A    
C34   H18   S    
C95   H75   S    
C1    C55   S    
C70   H38   S    
C58   O22   S    
C47   H31   S    
O24   C90   S    
C19   H11   S    
C81   H42   S    
C3    C53   S    
C2    C56   S    
C88   C89   S    
C10   C18   A    
C59   C67   A    
C98   H80   S    
C10   C50   A    
C85   C86   S    
C43   C51   A    
C86   H54   S    
C9    C49   A    
C66   C74   A    
C95   H74   S    
C26   C34   A    
C100  C101  S    
C45   H29   S    
O23   C87   S    
C92   H68   S    
C19   C27   A    
C22   H14   S    
C94   H72   S    
C29   C78   S    
C46   C54   A    
C31   C39   A    
C41   H25   S    
C91   C92   S    
C85   H51   S    
C100  H85   S    
C33   C41   A    
C39   C47   A    
C104  H94   S    
C81   C82   S    
C88   H58   S    
O10   V2    S    
C101  H88   S    
O27   C99   S    
C22   C30   A    
C83   H47   S    
C8    C50   S    
C94   C95   S    
O12   C4    A    
C102  H91   S    
O8    C5    A    
C27   C35   A    
C18   H10   S    
O13   C5    A    
O3    V4    S    
C71   C79   A    
C97   H78   S    
C27   C76   S    
C18   C26   A    
C89   H61   S    
C42   C50   A    
C5    C51   S    
C61   O25   S    
C33   H17   S    
C4    C54   S    
O4    C1    A    
C82   C83   S    
O9    C1    A    
C87   H55   S    
O6    V2    S    
C97   H79   S    
C94   H71   S    
C84   C85   S    
C57   O21   S    
C48   H32   S    
C11   C19   A    
O14   C6    A    
C104  H95   S    
C96   C97   S    
C12   H4    S    
C14   C54   A    
C25   C74   S    
C13   H5    S    
C103  C104  S    
O5    V1    S    
C44   H28   S    
C101  H89   S    
C15   H7    S    
C81   H41   S    
C83   H46   S    
C69   H37   S    
C16   H8    S    
C30   C77   S    
C93   H70   S    
C60   C68   A    
C91   H65   S    
C24   C32   A    
O2    C3    A    
C99   C100  S    
C63   O27   S    
O13   V3    S    
C65   H33   S    
C95   H73   S    
O1    C4    A    
C20   C28   A    
C64   C72   A    
C38   C46   A    
C35   C43   A    
C28   C36   A    
O7    C6    A    
C103  H93   S    
C72   C80   A    
C9    H1    S    
C85   H50   S    
C60   C75   A    
C72   H40   S    
C61   C78   A    
C13   C21   A    
O20   V2    S    
C32   C40   A    
C47   C55   A    
C82   H43   S    
C36   C44   A    
C15   C55   A    
C35   H19   S    
C92   H66   S    
C99   H83   S    
O5    C8    A    
C61   C69   A    
O10   C2    A    
C6    C52   S    
C34   C42   A    
C37   C45   A    
C70   C78   A    
C97   C98   S    
O28   C102  S    
C89   H60   S    
C14   H6    S    
O4    V3    S    
C11   C51   A    
C99   H84   S    
C37   H21   S    
C90   H62   S    
C58   C66   A    
C57   C65   A    
C59   C76   A    
C46   H30   S    
O16   C8    A    
C103  H92   S    
C41   C49   A    
C98   H81   S    
C57   C74   A    
C28   C75   S    
C83   H45   S    
C62   C70   A    
C43   H27   S    
C59   O23   S    
C42   H26   S    
C23   C31   A    
C45   C53   A    
C31   C80   S    
C90   H63   S    
C63   C71   A    
