data_mof_unit_9474.cif
_audit_creation_date              2012-12-11T15:10:42-0500
_audit_creation_method            fapswitch 2.2
_symmetry_space_group_name_H-M    P1
_symmetry_Int_Tables_number       1
_space_group_crystal_system       triclinic
_cell_length_a                    21.143798
_cell_length_b                    7.230116
_cell_length_c                    18.436555
_cell_angle_alpha                 89.97467
_cell_angle_beta                  92.88339
_cell_angle_gamma                 89.980259
_cell_volume                      2814.86645064

loop_
_atom_site_label
_atom_site_type_symbol
_atom_type_description
_atom_site_fract_x
_atom_site_fract_y
_atom_site_fract_z
_atom_type_partial_charge
O1    O     O_R   0.448880 0.506250 0.415280 -0.533461
O2    O     O_R   0.551120 0.006250 0.584720 -0.533429
O3    O     O_R   0.434830 0.174000 0.557310 -0.521858
O4    O     O_R   0.565170 0.674000 0.442690 -0.521851
C1    C     C_R   0.418283 0.344287 0.581356 0.691490
C2    C     C_R   0.581693 0.844289 0.418614 0.692031
O5    O     O_R   0.441680 0.176440 0.414130 -0.530779
O6    O     O_R   0.558320 0.676440 0.585870 -0.530883
O7    O     O_R   0.558020 0.007570 0.440520 -0.520529
O8    O     O_R   0.441980 0.507570 0.559480 -0.520451
C3    C     C_R   0.426327 0.345191 0.389868 0.688694
C4    C     C_R   0.573685 0.845077 0.610129 0.689037
O9    O     O_3   0.538160 0.339670 0.508820 -0.367969
O10   O     O_3   0.461840 0.839670 0.491180 -0.368240
V1    V     V_3+5 0.492920 0.064260 0.498360 1.388906
V2    V     V_3+5 0.507080 0.564260 0.501640 1.388937
C5    C     C_R   0.884863 0.952656 0.689864 -0.149974
C6    C     C_R   0.114791 0.444871 0.310213 -0.149833
H1    H     H_    0.969634 0.991776 0.756239 0.103689
H2    H     H_    0.029946 0.484024 0.243932 0.103561
H3    H     H_    0.910821 0.971683 0.641407 0.121739
H4    H     H_    0.088655 0.460234 0.358729 0.121769
C7    C     C_R   0.889225 0.941478 0.820502 -0.030646
C8    C     C_R   0.110717 0.440678 0.179525 -0.030468
C9    C     C_R   0.584921 0.860351 0.741672 -0.155370
C10   C     C_R   0.415189 0.364924 0.258433 -0.155347
C11   C     C_R   0.618036 0.880416 0.807873 -0.125113
C12   C     C_R   0.382093 0.386838 0.192311 -0.125284
C13   C     C_R   0.683542 0.895541 0.811394 -0.119541
C14   C     C_R   0.316542 0.400160 0.188762 -0.119528
C15   C     C_R   0.718709 0.887282 0.748178 0.035920
C16   C     C_R   0.281314 0.388047 0.251845 0.035919
C17   C     C_R   0.684798 0.864020 0.679023 -0.057442
C18   C     C_R   0.315210 0.362604 0.320905 -0.057681
C19   C     C_R   0.786515 0.905066 0.752234 0.032069
C20   C     C_R   0.213452 0.404110 0.247763 0.031999
C21   C     C_R   0.819228 0.915680 0.686885 0.006544
C22   C     C_R   0.180581 0.410148 0.313088 0.006711
C23   C     C_R   0.786350 0.886625 0.619643 0.245261
C24   C     C_R   0.213458 0.378813 0.380186 0.245149
C25   C     C_R   0.721137 0.850988 0.616148 0.199658
C26   C     C_R   0.278830 0.345536 0.383618 0.198984
C27   C     C_R   0.823426 0.913013 0.819195 -0.178951
C28   C     C_R   0.176630 0.414561 0.180791 -0.178798
C29   C     C_R   0.919131 0.965756 0.755780 -0.162325
C30   C     C_R   0.080578 0.460176 0.244328 -0.162523
C31   C     C_R   0.616349 0.853460 0.676802 -0.055084
C32   C     C_R   0.383698 0.354139 0.323183 -0.055050
H5    H     H_    0.802999 0.894760 0.871079 0.087651
H6    H     H_    0.197200 0.399734 0.128831 0.087408
H7    H     H_    0.533675 0.852622 0.740985 0.101728
H8    H     H_    0.466465 0.358920 0.259173 0.101732
H9    H     H_    0.705124 0.917568 0.864807 0.103433
H10   H     H_    0.294971 0.423850 0.135450 0.103479
H11   H     H_    0.592445 0.887502 0.857217 0.116206
H12   H     H_    0.407725 0.396909 0.143072 0.116225
C33   C     C_1   0.864436 0.938982 0.132011 -0.209833
C34   C     C_1   0.135552 0.438992 0.867972 -0.209826
C35   C     C_1   0.821489 0.924903 0.175649 -0.004232
C36   C     C_1   0.178489 0.424906 0.824322 -0.004228
C37   C     C_1   0.770765 0.905714 0.227548 -0.005583
C38   C     C_1   0.229200 0.405703 0.772408 -0.005619
C39   C     C_1   0.728004 0.889000 0.271284 -0.004430
C40   C     C_1   0.271954 0.388978 0.728662 -0.004683
C41   C     C_1   0.677164 0.869779 0.323014 0.007911
C42   C     C_1   0.322789 0.369749 0.676925 0.007529
C43   C     C_1   0.634070 0.855679 0.366439 -0.197087
C44   C     C_1   0.365886 0.355651 0.633504 -0.196970
O11   O     O_R   0.058070 0.289240 0.940580 -0.520186
O12   O     O_R   0.941930 0.789240 0.059420 -0.520201
O13   O     O_R   0.058330 0.616740 0.085880 -0.534198
O14   O     O_R   0.941670 0.116740 0.914120 -0.534213
C45   C     C_R   0.072104 0.448550 0.111005 0.679213
C46   C     C_R   0.927876 0.948674 0.889006 0.679184
O15   O     O_R   0.065180 0.619040 0.942700 -0.522953
O16   O     O_R   0.934820 0.119040 0.057300 -0.522962
O17   O     O_R   0.948870 0.787780 0.915270 -0.531067
O18   O     O_R   0.051130 0.287780 0.084730 -0.531028
C47   C     C_R   0.083226 0.450343 0.920215 0.705326
C48   C     C_R   0.916770 0.950339 0.079781 0.705368
O19   O     O_3   0.961870 0.453310 0.991210 -0.366171
O20   O     O_3   0.038130 0.953310 0.008790 -0.366125
V3    V     V_3+5 0.007070 0.728770 0.001630 1.415699
V4    V     V_3+5 0.992930 0.228770 0.998370 1.415763
N1    N     N_2   0.818607 0.881817 0.553477 -0.490477
H13   H     H_    0.861228 0.812386 0.555162 0.243595
C49   C     C_3   0.818767 0.055407 0.514495 -0.520018
H14   H     H_    0.846033 0.161205 0.546615 0.175689
H15   H     H_    0.769519 0.105299 0.503251 0.208998
H16   H     H_    0.841064 0.035547 0.461806 0.195799
N2    N     N_2   0.181084 0.369379 0.446201 -0.491022
H17   H     H_    0.138806 0.298238 0.443892 0.243528
C50   C     C_3   0.179997 0.540935 0.486411 -0.519458
H18   H     H_    0.152208 0.647097 0.455017 0.175674
H19   H     H_    0.228972 0.592470 0.498077 0.209172
H20   H     H_    0.157765 0.517392 0.538916 0.195761
N3    N     N_2   0.695143 0.790622 0.548038 -0.501765
H21   H     H_    0.658687 0.866681 0.525142 0.232185
C51   C     C_3   0.696498 0.592863 0.535949 -0.432448
H22   H     H_    0.680413 0.561625 0.479110 0.186974
H23   H     H_    0.665515 0.520577 0.573635 0.189157
H24   H     H_    0.745584 0.539525 0.544697 0.185065
N4    N     N_2   0.305027 0.283767 0.451474 -0.501866
H25   H     H_    0.341170 0.360204 0.474767 0.231556
C52   C     C_3   0.304349 0.085648 0.462791 -0.428299
H26   H     H_    0.320911 0.053201 0.519388 0.186847
H27   H     H_    0.335290 0.015249 0.424539 0.188797
H28   H     H_    0.255390 0.031332 0.454235 0.184636

loop_
_geom_bond_atom_site_label_1
_geom_bond_atom_site_label_2
_ccdc_geom_bond_type
C42   C44   T    
C49   H14   S    
C39   C41   S    
C50   H18   S    
C7    C29   A    
C11   C13   A    
O1    C3    A    
O2    C4    A    
C26   N4    S    
O16   V4    S    
C2    O7    A    
N3    H21   S    
C12   H12   S    
C23   C25   A    
N1    H13   S    
O5    C3    A    
C14   H10   S    
C16   C20   A    
C19   C21   A    
C5    C29   A    
C1    C44   S    
C11   H11   S    
C8    C45   S    
C33   C35   T    
O17   V3    S    
C34   C36   T    
C7    C27   A    
C36   C38   S    
C37   C39   T    
C38   C40   T    
C49   H16   S    
C41   C43   T    
C46   O17   A    
C18   C26   A    
C45   O18   A    
C15   C17   A    
C19   C27   A    
C9    C31   A    
C10   C32   A    
O5    V1    S    
C50   H19   S    
C22   C24   A    
C13   C15   A    
C33   C48   S    
C3    C32   S    
C4    C31   S    
C6    C30   A    
N3    C51   S    
O13   V3    S    
N1    C49   S    
C52   H28   S    
C35   C37   S    
O12   C48   A    
O14   C46   A    
N2    H17   S    
O13   C45   A    
C27   H5    S    
C5    H3    S    
C40   C42   S    
O4    V2    S    
C9    H7    S    
O2    V1    S    
C10   H8    S    
N2    C50   S    
C52   H27   S    
C51   H22   S    
O6    C4    A    
N4    C52   S    
O1    V2    S    
C5    C21   A    
O12   V3    S    
O14   V4    S    
C34   C47   S    
O4    C2    A    
C2    C43   S    
C51   H23   S    
C50   H20   S    
C49   H15   S    
C17   C31   A    
C25   N3    S    
C20   C28   A    
C18   C32   A    
C23   N1    S    
C7    C46   S    
C20   C22   A    
O19   V4    S    
O3    V1    S    
C28   H6    S    
C6    H4    S    
O16   C48   A    
O3    C1    A    
H1    C29   S    
C9    C11   A    
C52   H26   S    
C10   C12   A    
C8    C30   A    
C12   C14   A    
C6    C22   A    
C17   C25   A    
C1    O8    A    
C21   C23   A    
O11   V4    S    
O8    V2    S    
C14   C16   A    
O15   V3    S    
C13   H9    S    
C8    C28   A    
C24   C26   A    
C15   C19   A    
C24   N2    S    
O7    V1    S    
O11   C47   A    
O18   V4    S    
C51   H24   S    
O6    V2    S    
O20   V3    S    
O9    V2    S    
N4    H25   S    
O10   V1    S    
O15   C47   A    
H2    C30   S    
C16   C18   A    
