data_mof_unit_53683.cif
_audit_creation_date              2013-03-05T16:04:07-0500
_audit_creation_method            fapswitch 2.2
_symmetry_space_group_name_H-M    P1
_symmetry_Int_Tables_number       1
_space_group_crystal_system       triclinic
_cell_length_a                    10.833357
_cell_length_b                    9.594603
_cell_length_c                    10.803888
_cell_angle_alpha                 89.755717
_cell_angle_beta                  92.424706
_cell_angle_gamma                 89.99542
_cell_volume                      1121.95947175

loop_
_atom_site_label
_atom_site_type_symbol
_atom_site_description
_atom_site_fract_x
_atom_site_fract_y
_atom_site_fract_z
_atom_type_partial_charge
O1    O     O_R   0.319640 0.618740 0.499990 -0.595339
O2    O     O_R   0.680360 0.618740 0.500010 -0.595718
O3    O     O_R   0.319620 0.381170 0.499990 -0.582769
O4    O     O_R   0.680380 0.381170 0.500010 -0.580717
C1    C     C_R   0.262327 0.500225 0.500898 0.824655
C2    C     C_R   0.737654 0.500219 0.498730 0.825466
O5    O     O_R   0.500000 0.618810 0.319650 -0.590636
O6    O     O_R   0.500000 0.618810 0.680350 -0.592696
O7    O     O_R   0.499970 0.381240 0.319640 -0.554029
O8    O     O_R   0.500030 0.381240 0.680360 -0.551824
C3    C     C_R   0.489682 0.500408 0.261828 0.869612
C4    C     C_R   0.510417 0.499729 0.738065 0.869305
Cu1   Cu    Cu3+1 0.500000 0.640660 0.500000 0.977138
Cu2   Cu    Cu3+1 0.500000 0.359340 0.500000 1.014912
H1    H     H_    0.485514 0.274814 0.112033 0.186425
H2    H     H_    0.499404 0.274078 0.888701 0.182779
C5    C     C_R   0.425807 0.754904 0.095100 0.010372
C6    C     C_R   0.592951 0.746635 0.902306 0.006277
C7    C     C_R   0.469692 0.879073 0.043000 -0.203083
C8    C     C_R   0.558693 0.874687 0.953564 -0.204009
H3    H     H_    0.436304 0.979626 0.072261 0.182255
H4    H     H_    0.599240 0.971588 0.923312 0.187049
C9    C     C_R   0.532726 0.623970 0.942022 0.003688
C10   C     C_R   0.477124 0.626742 0.056890 0.001228
C11   C     C_R   0.477590 0.500750 0.125922 -0.043647
C12   C     C_R   0.522950 0.498539 0.873795 -0.040037
C13   C     C_R   0.489021 0.373677 0.063558 -0.171045
C14   C     C_R   0.502908 0.372949 0.936755 -0.174140
C15   C     C_R   0.063816 0.375304 0.503474 -0.160179
C16   C     C_R   0.936275 0.375270 0.498113 -0.159007
H5    H     H_    0.111558 0.276737 0.509478 0.184744
H6    H     H_    0.888638 0.276642 0.494320 0.185575
C17   C     C_R   0.871592 0.501303 0.497613 -0.041240
C18   C     C_R   0.128373 0.501331 0.501471 -0.035094
C19   C     C_R   0.935948 0.628133 0.497711 -0.166062
C20   C     C_R   0.063889 0.628137 0.498676 -0.167879
H7    H     H_    0.887808 0.727121 0.496942 0.180550
H8    H     H_    0.111927 0.727125 0.497463 0.177588
C21   C     C_R   0.403688 0.071585 0.444137 0.052491
C22   C     C_R   0.596084 0.071049 0.556270 0.054053
C23   C     C_R   0.402642 0.924168 0.450443 -0.039839
C24   C     C_R   0.597148 0.923699 0.549968 -0.047434
H9    H     H_    0.324887 0.866141 0.412098 0.187813
H10   H     H_    0.674589 0.865310 0.588806 0.191339
N1    N     N_R   0.500000 0.852070 0.500000 -0.200855
N2    N     N_R   0.500000 0.147940 0.500000 -0.238546
C25   C     C_2   0.310991 0.759643 0.166199 0.840391
O9    O     O_2   0.262395 0.871712 0.186952 -0.604999
O10   O     O_R   0.252553 0.636529 0.201255 -0.761283
H11   H     H_    0.173608 0.654391 0.245794 0.336932
C26   C     C_2   0.706585 0.740067 0.829473 0.837062
O11   O     O_2   0.761525 0.847234 0.804490 -0.600454
O12   O     O_R   0.756899 0.611474 0.797790 -0.760900
H12   H     H_    0.836775 0.621429 0.752971 0.337867
C27   C     C_2   0.298005 0.133523 0.372134 0.879780
O13   O     O_2   0.313810 0.224305 0.295221 -0.564088
O14   O     O_R   0.180171 0.076143 0.382950 -0.781249
H13   H     H_    0.116063 0.120889 0.324307 0.347483
C28   C     C_2   0.701109 0.132258 0.629282 0.864802
O15   O     O_2   0.684553 0.222379 0.705937 -0.563090
O16   O     O_R   0.819072 0.074893 0.619710 -0.776256
H14   H     H_    0.882624 0.119070 0.678959 0.348512

loop_
_geom_bond_atom_site_label_1
_geom_bond_atom_site_label_2
_geom_bond_distance
_ccdc_geom_bond_type
H2    C14   1.083237 S    
C22   N2    1.392784 A    
O7    Cu2   1.958981 S    
C15   C16   1.380459 A    
C11   C13   1.403498 A    
C21   C23   1.415833 A    
C23   H9    1.078725 S    
C12   C14   1.402633 A    
C7    C8    1.394357 A    
C2    C17   1.451598 S    
Cu2   N2    2.028299 S    
O6    C4    1.301877 A    
C1    C18   1.451487 S    
O3    C1    1.300249 A    
C27   O13   1.218350 D    
C20   H8    1.083321 S    
C28   O15   1.218339 D    
C15   H5    1.078252 S    
C22   C28   1.479789 S    
O12   H12   1.013639 S    
Cu1   N1    2.028395 S    
O7    C3    1.303007 A    
O14   H13   1.014138 S    
O2    C2    1.295891 A    
O3    Cu2   1.965292 S    
C24   H10   1.077899 S    
C21   N2    1.392916 A    
O1    C1    1.295815 A    
O8    C4    1.301496 A    
C25   O10   1.398616 S    
C7    H3    1.083397 S    
C8    H4    1.083409 S    
C6    C26   1.490295 S    
O5    C3    1.301331 A    
C18   C20   1.402480 A    
C27   O14   1.399464 S    
O4    Cu2   1.965325 S    
O16   H14   1.014145 S    
C28   O16   1.399387 S    
C5    C10   1.419568 A    
O1    Cu1   1.965203 S    
C3    C11   1.468604 S    
C9    C10   1.402578 A    
C6    C9    1.419314 A    
C16   H6    1.078001 S    
O6    Cu1   1.958838 S    
C5    C25   1.490101 S    
O5    Cu1   1.960616 S    
C26   O11   1.222976 D    
C10   C11   1.417591 A    
C19   H7    1.083316 S    
C6    C8    1.406064 A    
O4    C2    1.300214 A    
O10   H11   1.013836 S    
O8    Cu2   1.960761 S    
C9    C12   1.415571 A    
C13   C14   1.384566 A    
O2    Cu1   1.965169 S    
C23   N1    1.351497 A    
C5    C7    1.406846 A    
C19   C20   1.385623 A    
C16   C17   1.397431 A    
C17   C19   1.402485 A    
Cu1   Cu2   2.699154 S    
H1    C13   1.083019 S    
C15   C18   1.397460 A    
C21   C27   1.479750 S    
C25   O9    1.222928 D    
C4    C12   1.466952 S    
C22   C24   1.415764 A    
C26   O12   1.398497 S    
C24   N1    1.351511 A    
