data_mof_unit_46137.cif
_audit_creation_date              2012-10-26T21:17:40-0400
_audit_creation_method            fapswitch 2.2
_symmetry_space_group_name_H-M    P1
_symmetry_Int_Tables_number       1
_space_group_crystal_system       triclinic
_cell_length_a                    10.938418
_cell_length_b                    9.096579
_cell_length_c                    7.77642
_cell_angle_alpha                 89.99792
_cell_angle_beta                  90.000048
_cell_angle_gamma                 89.999982
_cell_volume                      773.770769085

loop_
_atom_site_label
_atom_site_type_symbol
_atom_type_description
_atom_site_fract_x
_atom_site_fract_y
_atom_site_fract_z
_atom_type_partial_charge
C1    C     C_R   0.500000 0.219992 0.499986 0.555122
C2    C     C_R   0.064711 0.512694 0.676810 0.035944
C3    C     C_R   0.128554 0.531965 0.517280 0.002280
C4    C     C_R   0.871446 0.531964 0.517280 0.002281
C5    C     C_R   0.063351 0.569501 0.369371 -0.174623
C6    C     C_R   0.936649 0.569500 0.369372 -0.174623
C7    C     C_1   0.500000 0.065357 0.500009 -0.045897
C8    C     C_1   0.500000 0.934639 0.500005 -0.044240
C9    C     C_R   0.500000 0.780017 0.499984 0.552569
C10   C     C_R   0.261718 0.510338 0.502911 0.553471
C11   C     C_R   0.738282 0.510338 0.502911 0.553472
C12   C     C_R   0.123738 0.492853 0.839122 0.127221
C13   C     C_R   0.876263 0.492850 0.839122 0.127218
C14   C     C_R   0.063102 0.412794 0.966402 -0.148599
C15   C     C_R   0.936900 0.412793 0.966402 -0.148602
C16   C     C_R   0.935289 0.512694 0.676810 0.035948
Cu1   Cu    Cu3+1 0.500000 0.500000 0.669080 1.050296
Cu2   Cu    Cu3+1 0.500000 0.500000 0.330920 0.991104
H1    H     H_    0.110917 0.596641 0.251737 0.129651
H2    H     H_    0.889083 0.596640 0.251737 0.129652
H3    H     H_    0.166365 0.688828 0.944603 0.212248
H4    H     H_    0.263151 0.552701 0.997905 0.246090
H5    H     H_    0.736844 0.552691 0.997895 0.246093
H6    H     H_    0.833636 0.688819 0.944619 0.212247
H7    H     H_    0.110567 0.379392 0.082095 0.128965
H8    H     H_    0.889435 0.379390 0.082095 0.128965
N1    N     N_1   0.500000 0.500000 0.076820 -0.107383
N2    N     N_1   0.500000 0.500000 0.923180 -0.080147
N3    N     N_3   0.213254 0.597623 0.896140 -0.568822
N4    N     N_3   0.786747 0.597621 0.896141 -0.568823
O1    O     O_R   0.500000 0.288390 0.642760 -0.495793
O2    O     O_R   0.500000 0.711610 0.642760 -0.482596
O3    O     O_R   0.500000 0.288370 0.357190 -0.494029
O4    O     O_R   0.500000 0.711630 0.357190 -0.502178
O5    O     O_R   0.319650 0.500000 0.642810 -0.464011
O6    O     O_R   0.680350 0.500000 0.642810 -0.464014
O7    O     O_R   0.319630 0.500000 0.357240 -0.528229
O8    O     O_R   0.680370 0.500000 0.357240 -0.528228

loop_
_geom_bond_atom_site_label_1
_geom_bond_atom_site_label_2
_ccdc_geom_bond_type
C4    C16   A    
C11   O8    A    
C10   O5    A    
C5    H1    S    
H4    N3    S    
C12   N3    S    
C6    H2    S    
C2    C12   A    
C2    C3    A    
Cu2   O8    S    
C1    O3    A    
C7    C8    T    
C3    C10   S    
C4    C11   S    
Cu2   O4    S    
C5    C6    A    
C10   O7    A    
C11   O6    A    
Cu1   O6    S    
Cu2   O7    S    
C12   C14   A    
Cu1   Cu2   S    
C13   C15   A    
C14   H7    S    
C9    O4    A    
Cu1   O1    S    
Cu2   O3    S    
H6    N4    S    
H5    N4    S    
C13   N4    S    
C1    O1    A    
C2    C16   A    
C4    C6    A    
C13   C16   A    
N1    N2    T    
Cu1   O2    S    
C14   C15   A    
C15   H8    S    
Cu1   O5    S    
C9    O2    A    
C1    C7    S    
Cu1   N2    S    
H3    N3    S    
Cu2   N1    S    
C8    C9    S    
C3    C5    A    
