data_mof_unit_55052.cif
_audit_creation_date              2012-10-26T21:11:07-0400
_audit_creation_method            fapswitch 2.2
_symmetry_space_group_name_H-M    P1
_symmetry_Int_Tables_number       1
_space_group_crystal_system       triclinic
_cell_length_a                    10.914109
_cell_length_b                    10.891006
_cell_length_c                    13.120468
_cell_angle_alpha                 90.350867
_cell_angle_beta                  90.080089
_cell_angle_gamma                 89.309259
_cell_volume                      1559.42870997

loop_
_atom_site_label
_atom_site_type_symbol
_atom_type_description
_atom_site_fract_x
_atom_site_fract_y
_atom_site_fract_z
_atom_type_partial_charge
C1    C     C_R   0.493273 0.259714 0.499509 0.590470
C2    C     C_R   0.696515 0.822228 0.692492 0.228416
C3    C     C_R   0.419589 0.117981 0.313881 -0.040030
C4    C     C_R   0.580413 0.882019 0.686115 -0.040036
C5    C     C_R   0.494111 0.110740 0.226935 -0.100124
C6    C     C_R   0.505889 0.889249 0.773060 -0.100108
C7    C     C_R   0.457066 0.162620 0.134477 0.301480
C8    C     C_R   0.542937 0.837368 0.865515 0.301483
C9    C     C_R   0.342129 0.223275 0.128091 0.210218
C10   C     C_R   0.657878 0.776718 0.871898 0.210224
C11   C     C_R   0.475480 0.933296 0.411415 -0.154542
C12   C     C_R   0.506726 0.740286 0.500490 0.590450
C13   C     C_R   0.524516 0.066704 0.588584 -0.154555
C14   C     C_R   0.507628 0.872870 0.501402 0.011038
C15   C     C_R   0.492370 0.127130 0.498597 0.011040
C16   C     C_R   0.259588 0.502968 0.499770 0.639740
C17   C     C_R   0.740412 0.497031 0.500230 0.639760
C18   C     C_R   0.535387 0.939948 0.590678 -0.043243
C19   C     C_R   0.464612 0.060053 0.409320 -0.043235
C20   C     C_1   0.500115 0.500092 0.173572 0.172553
C21   C     C_1   0.499885 0.499908 0.826428 0.172545
C22   C     C_1   0.500123 0.500065 0.050685 0.056626
C23   C     C_R   0.873009 0.497972 0.500788 0.041551
C24   C     C_1   0.499878 0.499934 0.949315 0.056625
C25   C     C_R   0.215434 0.825232 0.281838 -0.143371
C26   C     C_R   0.784512 0.174856 0.718254 -0.143340
C27   C     C_R   0.162538 0.758542 0.361781 0.259319
C28   C     C_R   0.837404 0.241508 0.638282 0.259307
C29   C     C_R   0.125749 0.636996 0.343607 0.018410
C30   C     C_R   0.874249 0.363048 0.656427 0.018419
C31   C     C_R   0.143426 0.583267 0.247141 -0.054985
C32   C     C_R   0.856623 0.416813 0.752890 -0.054964
C33   C     C_R   0.198143 0.648953 0.168454 0.247777
C34   C     C_R   0.126991 0.502024 0.499212 0.041549
C35   C     C_R   0.801905 0.351168 0.831604 0.247758
C36   C     C_R   0.234191 0.770750 0.186426 -0.133880
C37   C     C_R   0.765807 0.229373 0.813663 -0.133881
C38   C     C_R   0.932609 0.565771 0.425197 0.233785
C39   C     C_R   0.067392 0.434220 0.574800 0.233774
C40   C     C_R   0.938840 0.433060 0.576403 -0.032593
C41   C     C_R   0.061160 0.566942 0.423601 -0.032591
C42   C     C_R   0.267029 0.230279 0.215154 -0.069714
C43   C     C_R   0.732982 0.769729 0.784837 -0.069701
C44   C     C_R   0.303493 0.177784 0.307502 0.228416
Cu1   Cu    Cu3+1 0.499990 0.499990 0.592680 1.064734
Cu2   Cu    Cu3+1 0.500010 0.500010 0.407320 1.064729
H1    H     H_    0.275769 0.823886 0.126467 0.143495
H2    H     H_    0.758422 0.080341 0.706942 0.122830
H3    H     H_    0.176302 0.895035 0.457024 0.332992
H4    H     H_    0.823544 0.104992 0.543061 0.332974
H5    H     H_    0.113485 0.490302 0.232960 0.141779
H6    H     H_    0.886605 0.509775 0.767048 0.141784
H7    H     H_    0.253061 0.650816 0.027899 0.340250
H8    H     H_    0.747030 0.349365 0.972177 0.340223
H9    H     H_    0.912145 0.683835 0.312410 0.341761
H10   H     H_    0.087854 0.316086 0.687544 0.341739
H11   H     H_    0.223407 0.313827 0.045996 0.353500
H12   H     H_    0.724229 0.176267 0.873644 0.143515
H13   H     H_    0.776600 0.686154 0.953984 0.353535
H14   H     H_    0.178200 0.275281 0.210956 0.137852
H15   H     H_    0.821815 0.724735 0.789034 0.137858
H16   H     H_    0.251396 0.134410 0.444984 0.332935
H17   H     H_    0.748604 0.865607 0.555010 0.332948
H18   H     H_    0.582519 0.064614 0.231157 0.164461
H19   H     H_    0.417477 0.935368 0.768839 0.164462
H20   H     H_    0.499513 0.193076 0.992474 0.367561
H21   H     H_    0.500498 0.806919 0.007517 0.367572
H22   H     H_    0.455557 0.881338 0.342800 0.139171
H23   H     H_    0.544436 0.118662 0.657199 0.139165
H24   H     H_    0.241487 0.919748 0.293173 0.122867
N1    N     N_1   0.500030 0.500030 0.268070 -0.179373
N2    N     N_1   0.499970 0.499970 0.731930 -0.179374
O1    O     O_R   0.499980 0.319630 0.578260 -0.502684
O2    O     O_3   0.464030 0.848019 0.947402 -0.686026
O3    O     O_3   0.144040 0.810287 0.456939 -0.674778
O4    O     O_3   0.855846 0.189729 0.543125 -0.674804
O5    O     O_3   0.213404 0.592475 0.074917 -0.692217
O6    O     O_3   0.786690 0.407683 0.925136 -0.692223
O7    O     O_3   0.861348 0.631941 0.356533 -0.661706
O8    O     O_3   0.138655 0.368047 0.643461 -0.661679
O9    O     O_3   0.304873 0.274021 0.036761 -0.699484
O10   O     O_3   0.695133 0.725963 0.963223 -0.699471
O11   O     O_3   0.222140 0.185904 0.387952 -0.678481
O12   O     O_R   0.500020 0.680370 0.421740 -0.502687
O13   O     O_3   0.777871 0.814121 0.612044 -0.678439
O14   O     O_R   0.500000 0.319650 0.421740 -0.492763
O15   O     O_R   0.500000 0.680350 0.578260 -0.492771
O16   O     O_R   0.319630 0.500000 0.578260 -0.438236
O17   O     O_R   0.680370 0.500000 0.421740 -0.438241
O18   O     O_R   0.319650 0.500020 0.421740 -0.516542
O19   O     O_R   0.680350 0.499980 0.578260 -0.516538
O20   O     O_3   0.535972 0.151962 0.052590 -0.686019

loop_
_geom_bond_atom_site_label_1
_geom_bond_atom_site_label_2
_ccdc_geom_bond_type
H16   O11   S    
C16   O18   A    
C27   C29   A    
C14   C18   A    
H7    O5    S    
C17   O19   A    
H13   O10   S    
C44   O11   S    
C29   C41   S    
Cu2   O17   S    
Cu1   Cu2   S    
C15   C19   A    
C11   C19   A    
C9    C42   A    
C17   C23   S    
C13   C18   A    
C36   H1    S    
C31   H5    S    
C35   C37   A    
C11   C14   A    
C38   O7    S    
C23   C40   A    
C33   C36   A    
C12   O12   A    
C2    O13   S    
Cu1   O1    S    
C32   H6    S    
C16   C34   S    
C6    H19   S    
H3    O3    S    
C20   N1    T    
C3    C19   S    
C1    C15   S    
C37   H12   S    
C26   H2    S    
C4    C18   S    
H17   O13   S    
Cu1   N2    S    
C34   C41   A    
C42   C44   A    
C27   O3    S    
C8    O2    S    
C3    C44   A    
C21   N2    T    
C34   C39   A    
C32   C35   A    
Cu1   O16   S    
C17   O17   A    
C38   C41   A    
C4    C6    A    
C42   H14   S    
C39   C40   A    
C5    C7    A    
H20   O20   S    
C10   O10   S    
C5    H18   S    
C2    C4    A    
H4    O4    S    
H9    O7    S    
C2    C43   A    
C31   C33   A    
C30   C40   S    
H21   O2    S    
Cu2   N1    S    
Cu2   O12   S    
C12   C14   S    
C13   C15   A    
H11   O9    S    
C28   O4    S    
C11   H22   S    
C43   H15   S    
C1    O14   A    
C7    C9    A    
C12   O15   A    
Cu1   O15   S    
C10   C43   A    
C20   C22   S    
C3    C5    A    
C6    C8    A    
C26   C37   A    
Cu2   O18   S    
C25   C27   A    
C23   C38   A    
C35   O6    S    
C26   C28   A    
H10   O8    S    
C1    O1    A    
C39   O8    S    
C28   C30   A    
C29   C31   A    
C30   C32   A    
C33   O5    S    
C13   H23   S    
C7    O20   S    
C22   C24   T    
Cu1   O19   S    
C25   C36   A    
C8    C10   A    
C21   C24   S    
C16   O16   A    
C25   H24   S    
Cu2   O14   S    
C9    O9    S    
H8    O6    S    
