data_mof_unit_51570.cif
_audit_creation_date              2013-03-05T15:45:39-0500
_audit_creation_method            fapswitch 2.2
_symmetry_space_group_name_H-M    P1
_symmetry_Int_Tables_number       1
_space_group_crystal_system       triclinic
_cell_length_a                    25.908147
_cell_length_b                    25.879489
_cell_length_c                    18.294411
_cell_angle_alpha                 89.962034
_cell_angle_beta                  134.977793
_cell_angle_gamma                 90.098681
_cell_volume                      8676.86751517

loop_
_atom_site_label
_atom_site_type_symbol
_atom_site_description
_atom_site_fract_x
_atom_site_fract_y
_atom_site_fract_z
_atom_type_partial_charge
Zn1   Zn    Zn3+2 0.663270 0.706640 0.413250 1.023645
Zn2   Zn    Zn3+2 0.663270 0.293360 0.413250 0.997409
Zn3   Zn    Zn3+2 0.163270 0.206640 0.413250 1.039026
Zn4   Zn    Zn3+2 0.163270 0.793360 0.413250 1.023492
Zn5   Zn    Zn3+2 0.836780 0.706640 0.586750 1.019604
Zn6   Zn    Zn3+2 0.836780 0.293360 0.586750 1.038592
Zn7   Zn    Zn3+2 0.336780 0.206640 0.586750 0.995595
Zn8   Zn    Zn3+2 0.336780 0.793360 0.586750 1.016792
Zn9   Zn    Zn3+2 0.750020 0.793390 0.413240 1.031708
Zn10  Zn    Zn3+2 0.750020 0.206610 0.413240 1.039963
Zn11  Zn    Zn3+2 0.250020 0.293390 0.413240 1.039520
Zn12  Zn    Zn3+2 0.250020 0.706610 0.413240 1.040255
Zn13  Zn    Zn3+2 0.750010 0.793400 0.586760 0.979804
Zn14  Zn    Zn3+2 0.750010 0.206600 0.586760 0.960205
Zn15  Zn    Zn3+2 0.250010 0.293400 0.586760 0.958202
Zn16  Zn    Zn3+2 0.250010 0.706600 0.586760 0.964104
O1    O     O_3   0.750020 0.750020 0.500000 -0.499718
O2    O     O_3   0.750020 0.249980 0.500000 -0.496032
O3    O     O_3   0.250020 0.250020 0.500000 -0.497012
O4    O     O_3   0.250020 0.749980 0.500000 -0.499297
O5    O     O_R   0.835450 0.780390 0.731600 -0.632375
O6    O     O_R   0.835450 0.219610 0.731600 -0.636628
O7    O     O_R   0.335450 0.280390 0.731600 -0.661198
O8    O     O_R   0.335450 0.719610 0.731600 -0.654328
O9    O     O_R   0.603870 0.719650 0.268400 -0.596501
O10   O     O_R   0.603870 0.280350 0.268400 -0.621181
O11   O     O_R   0.103870 0.219650 0.268400 -0.605091
O12   O     O_R   0.103870 0.780350 0.268400 -0.616424
O13   O     O_R   0.810750 0.634210 0.560720 -0.633332
O14   O     O_R   0.810750 0.365790 0.560720 -0.609698
O15   O     O_R   0.310750 0.134210 0.560720 -0.632931
O16   O     O_R   0.310750 0.865790 0.560720 -0.622884
O17   O     O_R   0.750010 0.865820 0.439280 -0.623674
O18   O     O_R   0.750010 0.134180 0.439280 -0.603712
O19   O     O_R   0.250010 0.365820 0.439280 -0.613222
O20   O     O_R   0.250010 0.634180 0.439280 -0.608144
O21   O     O_R   0.896180 0.719650 0.560720 -0.626635
O22   O     O_R   0.896180 0.280350 0.560720 -0.610929
O23   O     O_R   0.396180 0.219650 0.560720 -0.624819
O24   O     O_R   0.396180 0.780350 0.560720 -0.602174
O25   O     O_R   0.664570 0.780390 0.560720 -0.648954
O26   O     O_R   0.664570 0.219610 0.560720 -0.659101
O27   O     O_R   0.164570 0.280390 0.560720 -0.641519
O28   O     O_R   0.164570 0.719610 0.560720 -0.638911
O29   O     O_R   0.835460 0.780370 0.439280 -0.621988
O30   O     O_R   0.835460 0.219630 0.439280 -0.621649
O31   O     O_R   0.335460 0.280370 0.439280 -0.642517
O32   O     O_R   0.335460 0.719630 0.439280 -0.647461
O33   O     O_R   0.603860 0.719660 0.439280 -0.644996
O34   O     O_R   0.603860 0.280340 0.439280 -0.645504
O35   O     O_R   0.103860 0.219660 0.439280 -0.648379
O36   O     O_R   0.103860 0.780340 0.439280 -0.648897
O37   O     O_R   0.689310 0.634210 0.439280 -0.601398
O38   O     O_R   0.689310 0.365790 0.439280 -0.625493
O39   O     O_R   0.189310 0.134210 0.439280 -0.600745
O40   O     O_R   0.189310 0.865790 0.439280 -0.616775
O41   O     O_R   0.750010 0.865830 0.560720 -0.630271
O42   O     O_R   0.750010 0.134170 0.560720 -0.642308
O43   O     O_R   0.250010 0.365830 0.560720 -0.642302
O44   O     O_R   0.250010 0.634170 0.560720 -0.641716
O45   O     O_R   0.896180 0.719660 0.731600 -0.650999
O46   O     O_R   0.896180 0.280340 0.731600 -0.650310
O47   O     O_R   0.396180 0.219660 0.731600 -0.649505
O48   O     O_R   0.396180 0.780340 0.731600 -0.644770
O49   O     O_R   0.664580 0.780370 0.268400 -0.656662
O50   O     O_R   0.664580 0.219630 0.268400 -0.642474
O51   O     O_R   0.164580 0.280370 0.268400 -0.622643
O52   O     O_R   0.164580 0.719630 0.268400 -0.627601
C1    C     C_R   0.889054 0.749251 0.779912 0.793795
C2    C     C_R   0.889847 0.250158 0.779917 0.781608
C3    C     C_R   0.389522 0.249613 0.779892 0.765225
C4    C     C_R   0.389649 0.750348 0.779871 0.764684
C5    C     C_R   0.610657 0.749583 0.219940 0.818916
C6    C     C_R   0.610239 0.250033 0.220079 0.807669
C7    C     C_R   0.110094 0.250101 0.220015 0.826399
C8    C     C_R   0.109874 0.749640 0.220078 0.833799
C9    C     C_R   0.749789 0.610084 0.499370 0.870801
C10   C     C_R   0.750291 0.389917 0.499524 0.890114
C11   C     C_R   0.249810 0.110045 0.499735 0.869132
C12   C     C_R   0.250112 0.889854 0.499029 0.884658
C13   C     C_R   0.748945 0.889964 0.499024 0.890179
C14   C     C_R   0.750399 0.110017 0.500267 0.858471
C15   C     C_R   0.251220 0.389966 0.501210 0.883013
C16   C     C_R   0.251642 0.610009 0.501706 0.874960
C17   C     C_R   0.890695 0.750811 0.501330 0.857396
C18   C     C_R   0.891226 0.248863 0.502410 0.862703
C19   C     C_R   0.391116 0.251078 0.502145 0.835789
C20   C     C_R   0.389987 0.750036 0.499891 0.842961
C21   C     C_R   0.609998 0.749961 0.500027 0.756171
C22   C     C_R   0.611142 0.250957 0.502311 0.764196
C23   C     C_R   0.111334 0.248840 0.502748 0.782486
C24   C     C_R   0.110971 0.750800 0.501994 0.781964
H1    H     H_    0.477924 0.791007 0.360813 0.136203
H2    H     H_    0.468210 0.258759 0.342364 0.160242
H3    H     H_    0.968778 0.237933 0.343687 0.162317
H4    H     H_    0.967630 0.752696 0.340801 0.155322
C25   C     C_R   0.634579 0.695423 0.662026 -0.177009
C26   C     C_R   0.653640 0.253055 0.700398 -0.175901
C27   C     C_R   0.153748 0.251319 0.701415 -0.173663
C28   C     C_R   0.152477 0.757701 0.699000 -0.175589
H5    H     H_    0.676913 0.693549 0.663304 0.107226
H6    H     H_    0.697836 0.255450 0.705942 0.153924
H7    H     H_    0.198247 0.249317 0.707692 0.154556
H8    H     H_    0.196859 0.758144 0.704767 0.150050
C29   C     C_R   0.645912 0.669399 0.739206 -0.153299
C30   C     C_R   0.672902 0.251277 0.793204 -0.138739
C31   C     C_R   0.172621 0.255540 0.793768 -0.145703
C32   C     C_R   0.171089 0.760782 0.791268 -0.136773
H9    H     H_    0.695937 0.648098 0.797973 0.136630
H10   H     H_    0.729739 0.249991 0.865843 0.151011
H11   H     H_    0.229226 0.259287 0.866227 0.152285
H12   H     H_    0.227675 0.761124 0.864323 0.150081
C33   C     C_R   0.593038 0.670697 0.740903 -0.132627
C34   C     C_R   0.619304 0.252118 0.792975 -0.135103
C35   C     C_R   0.119036 0.253861 0.793493 -0.126442
C36   C     C_R   0.117044 0.764444 0.789879 -0.132667
H13   H     H_    0.134175 0.255910 0.865633 0.130713
H14   H     H_    0.131889 0.769211 0.861249 0.134113
H15   H     H_    0.602351 0.650735 0.801410 0.126661
H16   H     H_    0.634670 0.251621 0.865266 0.129047
C37   C     C_R   0.527794 0.697190 0.664208 -0.175610
C38   C     C_R   0.546031 0.254412 0.700051 -0.175165
C39   C     C_R   0.046085 0.248797 0.700768 -0.141442
C40   C     C_R   0.043912 0.762820 0.696712 -0.137399
H17   H     H_    0.487667 0.696709 0.667455 0.106616
H18   H     H_    0.507230 0.257997 0.705275 0.142785
H19   H     H_    0.007512 0.244531 0.706302 0.145640
H20   H     H_    0.004198 0.767495 0.700085 0.145364
C41   C     C_R   0.514543 0.723004 0.584168 0.085778
C42   C     C_R   0.524639 0.253241 0.604258 0.087115
C43   C     C_R   0.024813 0.248314 0.604986 0.097877
C44   C     C_R   0.023411 0.756692 0.602180 0.094641
C45   C     C_R   0.569000 0.722528 0.583652 0.109280
C46   C     C_R   0.579441 0.252803 0.604395 0.099047
C47   C     C_R   0.079672 0.249010 0.605236 0.103749
C48   C     C_R   0.078481 0.755291 0.602918 0.097464
C49   C     C_R   0.555522 0.748143 0.503209 -0.040151
C50   C     C_R   0.558218 0.253740 0.508556 -0.063696
C51   C     C_R   0.058589 0.246035 0.509456 -0.072653
C52   C     C_R   0.057571 0.753121 0.507370 -0.068708
C53   C     C_R   0.488495 0.772034 0.423140 -0.228829
C54   C     C_R   0.484649 0.257530 0.415715 -0.226178
C55   C     C_R   0.985165 0.240596 0.416904 -0.194694
C56   C     C_R   0.983859 0.753751 0.414017 -0.194863
H21   H     H_    0.383374 0.791027 0.360538 0.171446
H22   H     H_    0.374501 0.258808 0.342180 0.166851
H23   H     H_    0.875079 0.238129 0.343312 0.159163
H24   H     H_    0.873546 0.752598 0.340366 0.158271
C57   C     C_R   0.434896 0.772037 0.423016 -0.166403
C58   C     C_R   0.431257 0.257608 0.415588 -0.194492
C59   C     C_R   0.931754 0.240640 0.416675 -0.164002
C60   C     C_R   0.930297 0.753791 0.413665 -0.173907
C61   C     C_R   0.447708 0.748366 0.503274 -0.066931
C62   C     C_R   0.450248 0.254121 0.508354 -0.090562
C63   C     C_R   0.950530 0.245736 0.509089 -0.068754
C64   C     C_R   0.949329 0.753855 0.506603 -0.079005
C65   C     C_R   0.468550 0.791537 0.109800 -0.157532
C66   C     C_R   0.466525 0.211198 0.109773 -0.165102
C67   C     C_R   0.967965 0.292673 0.108843 -0.116046
C68   C     C_R   0.959632 0.729918 0.109766 -0.122977
H25   H     H_    0.508544 0.791507 0.193316 0.117818
H26   H     H_    0.507116 0.209889 0.193284 0.120355
H27   H     H_    0.008142 0.293319 0.192377 0.136804
H28   H     H_    0.999942 0.726186 0.192875 0.142578
C69   C     C_R   0.401411 0.814575 0.057095 -0.147137
C70   C     C_R   0.397374 0.191937 0.056882 -0.138065
C71   C     C_R   0.900177 0.314821 0.055494 -0.108681
C72   C     C_R   0.886952 0.723504 0.057305 -0.129096
H29   H     H_    0.390673 0.830731 0.099750 0.140510
H30   H     H_    0.385884 0.176882 0.099413 0.129779
H31   H     H_    0.889210 0.331335 0.097742 0.143267
H32   H     H_    0.873004 0.716431 0.099994 0.136082
C73   C     C_R   0.348721 0.817728 0.949872 -0.159688
C74   C     C_R   0.343392 0.191351 0.949508 -0.171821
C75   C     C_R   0.846968 0.316470 0.948075 -0.162555
C76   C     C_R   0.832348 0.725751 0.950188 -0.138794
H33   H     H_    0.297594 0.837138 0.909535 0.138067
H34   H     H_    0.290208 0.175424 0.908819 0.146581
H35   H     H_    0.794885 0.334525 0.906994 0.139108
H36   H     H_    0.776023 0.720962 0.909963 0.146778
C77   C     C_R   0.361671 0.796015 0.894364 -0.165220
C78   C     C_R   0.357946 0.210505 0.894298 -0.178506
C79   C     C_R   0.860682 0.295072 0.893281 -0.164963
C80   C     C_R   0.850160 0.733445 0.894770 -0.165167
H37   H     H_    0.319315 0.799341 0.811033 0.109948
H38   H     H_    0.314898 0.208484 0.810923 0.121896
H39   H     H_    0.818130 0.297612 0.809867 0.110262
H40   H     H_    0.805815 0.732842 0.811548 0.141081
C81   C     C_R   0.429217 0.772261 0.946191 0.105574
C82   C     C_R   0.427575 0.230299 0.946262 0.107085
C83   C     C_R   0.928872 0.272209 0.945765 0.103331
C84   C     C_R   0.923551 0.740914 0.946371 0.094417
C85   C     C_R   0.484038 0.770836 0.055375 0.073255
C86   C     C_R   0.482787 0.230561 0.055453 0.074095
C87   C     C_R   0.983634 0.271451 0.054965 0.067199
C88   C     C_R   0.979078 0.740017 0.055544 0.075220
C89   C     C_R   0.553917 0.751135 0.107365 -0.115192
C90   C     C_R   0.553292 0.248845 0.107582 -0.123848
C91   C     C_R   0.053378 0.251262 0.107503 -0.109487
C92   C     C_R   0.052641 0.748004 0.107642 -0.115612
C93   C     C_R   0.570789 0.735820 0.051742 0.074903
C94   C     C_R   0.569821 0.265609 0.052318 0.057361
C95   C     C_R   0.069871 0.233613 0.052620 0.081892
C96   C     C_R   0.071806 0.754576 0.052346 0.082159
H41   H     H_    0.523860 0.722102 0.897901 0.134846
H42   H     H_    0.524547 0.277119 0.898990 0.132340
H43   H     H_    0.024079 0.220122 0.899437 0.134510
H44   H     H_    0.028374 0.757892 0.899217 0.143681
C97   C     C_R   0.514464 0.735303 0.943760 -0.215916
C98   C     C_R   0.514455 0.264397 0.944312 -0.217344
C99   C     C_R   0.014267 0.233873 0.944558 -0.193108
C100  C     C_R   0.016162 0.753287 0.944478 -0.185135
C101  C     C_R   0.444562 0.752029 0.891821 -0.087153
C102  C     C_R   0.444199 0.248118 0.891974 -0.082920
C103  C     C_R   0.944609 0.251796 0.891927 -0.083398
C104  C     C_R   0.943258 0.747726 0.892048 -0.096993
C105  C     C_R   0.624881 0.946710 0.431354 -0.203662
C106  C     C_R   0.624018 0.054149 0.425800 -0.197294
C107  C     C_R   0.363914 0.446012 0.692585 -0.203792
C108  C     C_R   0.363225 0.553359 0.694088 -0.204561
H45   H     H_    0.623224 0.904921 0.430811 0.130134
H46   H     H_    0.621585 0.095887 0.420448 0.131488
H47   H     H_    0.367876 0.404387 0.694323 0.142890
H48   H     H_    0.366573 0.595033 0.696901 0.143854
C109  C     C_R   0.563778 0.973454 0.396755 0.131198
C110  C     C_R   0.562883 0.028086 0.392424 0.143654
C111  C     C_R   0.415866 0.472088 0.786983 0.139219
C112  C     C_R   0.415143 0.526682 0.787849 0.130640
C113  C     C_R   0.686381 0.027382 0.463407 0.035342
C114  C     C_R   0.686563 0.972974 0.465094 0.027614
C115  C     C_R   0.308495 0.527084 0.599231 0.032126
C116  C     C_R   0.308528 0.472644 0.598699 0.029080
C117  C     C_R   0.747834 0.946085 0.498496 -0.225114
C118  C     C_R   0.747927 0.053904 0.497126 -0.221980
C119  C     C_R   0.253977 0.446070 0.503959 -0.224810
C120  C     C_R   0.254433 0.553853 0.504572 -0.225065
C121  C     C_R   0.808316 0.972818 0.530146 0.215824
C122  C     C_R   0.808345 0.026850 0.529674 0.209578
C123  C     C_R   0.201505 0.473076 0.410288 0.204012
C124  C     C_R   0.202095 0.526947 0.410641 0.212146
C125  C     C_R   0.751453 0.554193 0.361471 0.354530
C126  C     C_R   0.772160 0.446954 0.383029 0.345024
C127  C     C_R   0.263127 0.054494 0.373772 0.360496
C128  C     C_R   0.272721 0.946524 0.383407 0.360108
C129  C     C_R   0.764648 0.527541 0.310032 -0.262020
C130  C     C_R   0.775940 0.474944 0.321903 -0.246741
C131  C     C_R   0.280318 0.027813 0.327306 -0.261235
C132  C     C_R   0.285641 0.974751 0.332828 -0.239763
H49   H     H_    0.764758 0.547887 0.258363 0.181498
H50   H     H_    0.786405 0.455276 0.281178 0.180531
H51   H     H_    0.285449 0.048307 0.281053 0.170683
H52   H     H_    0.296117 0.954932 0.292302 0.175015
C133  C     C_R   0.758490 0.472729 0.437615 -0.092497
C134  C     C_R   0.752096 0.527583 0.431051 -0.084899
C135  C     C_R   0.259736 0.972563 0.438644 -0.094444
C136  C     C_R   0.256795 0.027601 0.435810 -0.083265
C137  C     C_R   0.748328 0.553918 0.495581 -0.100723
C138  C     C_R   0.751668 0.446043 0.498766 -0.113627
C139  C     C_R   0.248285 0.053837 0.495283 -0.097876
C140  C     C_R   0.250254 0.945895 0.496811 -0.107395
C141  C     C_R   0.745370 0.527077 0.560098 0.072754
C142  C     C_R   0.746419 0.472562 0.561053 0.068201
C143  C     C_R   0.239348 0.026795 0.553060 0.069502
C144  C     C_R   0.240951 0.972319 0.554607 0.069934
N1    N     N_R   0.870176 0.945162 0.563538 0.238186
O53   O     O_R   0.901404 0.909150 0.633318 -0.401092
O54   O     O_R   0.897019 0.957115 0.526744 -0.320305
N2    N     N_R   0.872070 0.054242 0.569051 0.222825
O55   O     O_R   0.869848 0.081646 0.507241 -0.349574
O56   O     O_R   0.934306 0.047069 0.663992 -0.350494
N3    N     N_R   0.144333 0.445820 0.315422 0.235410
O57   O     O_R   0.136527 0.450835 0.237301 -0.314533
O58   O     O_R   0.101192 0.414779 0.307914 -0.404918
N4    N     N_R   0.145652 0.554415 0.316161 0.239883
O59   O     O_R   0.097351 0.580576 0.304395 -0.398808
O60   O     O_R   0.147561 0.558193 0.247200 -0.318102
C145  C     C_3   0.501282 0.942307 0.365890 -0.427692
C146  C     C_3   0.443961 0.930322 0.249814 -0.362370
C147  C     C_3   0.377618 0.903272 0.216353 -0.876303
H53   H     H_    0.393865 0.866162 0.258298 0.261295
H54   H     H_    0.351674 0.928327 0.232124 0.267182
H55   H     H_    0.336963 0.895205 0.132134 0.247606
H56   H     H_    0.425683 0.966501 0.204469 0.225904
H57   H     H_    0.468438 0.904952 0.231898 0.218135
H58   H     H_    0.522104 0.905211 0.409312 0.206296
H59   H     H_    0.476528 0.962858 0.388246 0.214798
C148  C     C_3   0.498116 0.060344 0.351603 -0.473269
C149  C     C_3   0.512990 0.086409 0.440288 -0.349210
C150  C     C_3   0.447821 0.118658 0.399649 -0.799262
H60   H     H_    0.435248 0.148853 0.345802 0.251317
H61   H     H_    0.399156 0.093646 0.358511 0.263512
H62   H     H_    0.460585 0.137764 0.465245 0.272793
H63   H     H_    0.524288 0.056431 0.493644 0.234636
H64   H     H_    0.561513 0.112085 0.484494 0.236444
H65   H     H_    0.487306 0.090407 0.298663 0.194502
H66   H     H_    0.447359 0.037212 0.304599 0.212639
C151  C     C_3   0.469886 0.439995 0.884512 -0.471401
C152  C     C_3   0.433087 0.415899 0.914896 -0.337104
C153  C     C_3   0.489286 0.392082 0.022602 -0.819834
H67   H     H_    0.461105 0.370548 0.038712 0.258114
H68   H     H_    0.524979 0.365085 0.028018 0.268895
H69   H     H_    0.523627 0.422818 0.081826 0.263589
H70   H     H_    0.402191 0.445932 0.914404 0.233112
H71   H     H_    0.394158 0.385393 0.858138 0.240799
H72   H     H_    0.492116 0.408834 0.871363 0.185579
H73   H     H_    0.517642 0.462990 0.950153 0.225240
C154  C     C_3   0.467094 0.557484 0.887259 -0.418372
C155  C     C_3   0.542003 0.563761 0.925647 -0.405583
C156  C     C_3   0.600169 0.577955 0.040050 -0.803077
H74   H     H_    0.584187 0.613632 0.053570 0.290142
H75   H     H_    0.607048 0.546075 0.087033 0.269553
H76   H     H_    0.653178 0.584540 0.065244 0.244080
H77   H     H_    0.558897 0.527608 0.914608 0.226785
H78   H     H_    0.538768 0.594671 0.880294 0.211420
H79   H     H_    0.444667 0.596642 0.875866 0.203042
H80   H     H_    0.471808 0.538695 0.946427 0.219617
C157  C     C_3   0.741657 0.557282 0.628288 -0.453506
C158  C     C_3   0.818402 0.570263 0.733543 -0.332804
C159  C     C_3   0.814843 0.600949 0.801049 -0.859980
H81   H     H_    0.785328 0.637791 0.762517 0.234979
H82   H     H_    0.786468 0.578227 0.815661 0.262003
H83   H     H_    0.870961 0.609998 0.876272 0.273274
H84   H     H_    0.849782 0.534239 0.774653 0.234035
H85   H     H_    0.848550 0.593494 0.722576 0.243997
H86   H     H_    0.709948 0.593473 0.589779 0.192862
H87   H     H_    0.710505 0.536059 0.639442 0.211439
C160  C     C_3   0.744957 0.441913 0.631418 -0.439188
C161  C     C_3   0.666710 0.427728 0.575752 -0.334306
C162  C     C_3   0.666452 0.391031 0.640905 -0.868826
H88   H     H_    0.694889 0.354489 0.655295 0.238794
H89   H     H_    0.694024 0.409264 0.716036 0.260780
H90   H     H_    0.609336 0.381656 0.599168 0.258431
H91   H     H_    0.635922 0.463184 0.559403 0.219722
H92   H     H_    0.637614 0.408753 0.500726 0.249480
H93   H     H_    0.778188 0.406241 0.659913 0.191209
H94   H     H_    0.772207 0.463010 0.703726 0.212531
C163  C     C_3   0.230042 0.056488 0.615417 -0.434645
C164  C     C_3   0.304313 0.068607 0.724638 -0.357101
C165  C     C_3   0.295548 0.084851 0.795440 -0.879381
H95   H     H_    0.258963 0.118896 0.762756 0.255686
H96   H     H_    0.272162 0.052620 0.804666 0.266080
H97   H     H_    0.349758 0.094953 0.872735 0.266250
H98   H     H_    0.340524 0.034240 0.758760 0.231356
H99   H     H_    0.331407 0.100340 0.721073 0.233494
H100  H     H_    0.199539 0.093028 0.576716 0.191332
H101  H     H_    0.194978 0.034908 0.619045 0.221621
C166  C     C_3   0.236190 0.941699 0.621650 -0.454751
C167  C     C_3   0.157119 0.927026 0.561570 -0.324353
C168  C     C_3   0.154351 0.891259 0.625158 -0.834492
H102  H     H_    0.184748 0.855053 0.644192 0.230538
H103  H     H_    0.178626 0.910611 0.697897 0.263194
H104  H     H_    0.096775 0.881136 0.580036 0.269443
H105  H     H_    0.124760 0.962232 0.541079 0.228009
H106  H     H_    0.130652 0.907152 0.488407 0.252934
H107  H     H_    0.270071 0.906230 0.652622 0.185742
H108  H     H_    0.260964 0.963076 0.692671 0.215239
N5    N     N_R   0.731736 0.607372 0.334416 0.168218
O61   O     O_R   0.778634 0.640026 0.354416 -0.453182
O62   O     O_R   0.662994 0.619722 0.266942 -0.429674
N6    N     N_R   0.786060 0.392783 0.391230 0.179394
O63   O     O_R   0.731431 0.361063 0.329908 -0.473593
O64   O     O_R   0.850947 0.377270 0.437662 -0.389945
N7    N     N_R   0.244434 0.107753 0.346565 0.168424
O65   O     O_R   0.291734 0.139760 0.366125 -0.462908
O66   O     O_R   0.175884 0.120605 0.279284 -0.416186
N8    N     N_R   0.271281 0.891560 0.373954 0.173373
O67   O     O_R   0.208650 0.868396 0.304073 -0.437731
O68   O     O_R   0.330010 0.867897 0.411174 -0.435234
C169  C     C_3   0.648778 0.720669 0.109147 -0.366551
C170  C     C_3   0.661719 0.706741 0.041319 -0.396323
C171  C     C_3   0.741325 0.692506 0.107205 -0.850691
H109  H     H_    0.777358 0.725975 0.155241 0.257418
H110  H     H_    0.757530 0.659254 0.158236 0.280640
H111  H     H_    0.748526 0.681574 0.056163 0.241240
H112  H     H_    0.627194 0.673310 0.990917 0.225199
H113  H     H_    0.647611 0.740274 0.991928 0.236872
H114  H     H_    0.685387 0.753651 0.158815 0.227306
H115  H     H_    0.665464 0.687413 0.160239 0.251493
C172  C     C_3   0.645686 0.286746 0.110882 -0.367183
C173  C     C_3   0.656448 0.309842 0.045130 -0.407130
C174  C     C_3   0.733286 0.331884 0.113141 -0.820310
H116  H     H_    0.742788 0.363463 0.162678 0.279948
H117  H     H_    0.774698 0.301142 0.162983 0.259056
H118  H     H_    0.739778 0.347760 0.063602 0.238296
H119  H     H_    0.648469 0.279148 0.995742 0.221215
H120  H     H_    0.616426 0.341408 0.995685 0.220941
H121  H     H_    0.657437 0.317768 0.162574 0.245522
H122  H     H_    0.686218 0.255322 0.159188 0.225466
C175  C     C_3   0.147088 0.215491 0.111525 -0.363478
C176  C     C_3   0.157409 0.189614 0.047039 -0.368115
C177  C     C_3   0.235522 0.170197 0.115726 -0.837022
H123  H     H_    0.274908 0.202674 0.160334 0.252551
H124  H     H_    0.248280 0.140374 0.170261 0.288600
H125  H     H_    0.241790 0.152713 0.066945 0.241742
H126  H     H_    0.119458 0.156269 0.003674 0.245578
H127  H     H_    0.146016 0.217992 0.991706 0.212278
H128  H     H_    0.184398 0.249320 0.152157 0.215031
H129  H     H_    0.164280 0.187322 0.170848 0.261970
C178  C     C_3   0.151467 0.764123 0.110528 -0.356935
C179  C     C_3   0.165965 0.776177 0.044286 -0.391826
C180  C     C_3   0.246377 0.788728 0.111543 -0.863949
H130  H     H_    0.262793 0.823273 0.160064 0.278056
H131  H     H_    0.281186 0.755485 0.162357 0.267558
H132  H     H_    0.255295 0.796987 0.061555 0.244818
H133  H     H_    0.151352 0.741682 0.996646 0.226210
H134  H     H_    0.132773 0.809887 0.993476 0.238369
H135  H     H_    0.172428 0.797052 0.164391 0.241071
H136  H     H_    0.183755 0.729191 0.156705 0.233606

loop_
_geom_bond_atom_site_label_1
_geom_bond_atom_site_label_2
_geom_bond_distance
_ccdc_geom_bond_type
C157  H87   1.107174 S    
C177  H125  1.110487 S    
C27   H7    1.076129 S    
C45   C49   1.414286 A    
N5    O61   1.301055 A    
Zn5   O21   1.934550 S    
O23   C19   1.275750 A    
C107  C116  1.414874 A    
C48   C52   1.418952 A    
C69   H29   1.081156 S    
C163  C164  1.535232 S    
C129  H49   1.083488 S    
C47   C51   1.421840 A    
C158  H84   1.110427 S    
C137  C141  1.417087 A    
C139  C143  1.416005 A    
O42   C14   1.276968 A    
C176  H127  1.108404 S    
N3    O57   1.300586 A    
C136  C139  1.426203 A    
C28   H8    1.077888 S    
O46   C2    1.273588 A    
C121  N1    1.439910 S    
N4    O59   1.301018 A    
C154  H79   1.112913 S    
C151  H72   1.112494 S    
C113  C118  1.414400 A    
C57   C61   1.397062 A    
C7    C91   1.456443 S    
C180  H131  1.110903 S    
H22   C58   1.084055 S    
C133  C138  1.427513 A    
O34   C22   1.278779 A    
C60   C64   1.396000 A    
Zn3   O3    1.944654 S    
C115  C120  1.418975 A    
C149  H64   1.112015 S    
Zn16  O28   1.936986 S    
O28   C24   1.275842 A    
C162  H88   1.110976 S    
C140  C144  1.416151 A    
C68   C88   1.418382 A    
C25   C29   1.395283 A    
C55   C59   1.380845 A    
C4    C101  1.449597 S    
C129  C130  1.377220 A    
Zn4   O40   1.933432 S    
C42   C46   1.418090 A    
C119  C123  1.407668 A    
O11   C7    1.277102 A    
C160  H93   1.110344 S    
C160  H94   1.107154 S    
C82   C86   1.413192 A    
C105  H45   1.082027 S    
C70   C74   1.389643 A    
C35   C39   1.390685 A    
C172  C173  1.534454 S    
C71   H31   1.082620 S    
C26   H6    1.077421 S    
C97   C101  1.392681 A    
C95   C175  1.529170 S    
C106  C113  1.412616 A    
C161  H91   1.110211 S    
H4    C56   1.084200 S    
C111  C112  1.413266 A    
Zn16  O4    1.943663 S    
Zn12  O4    1.944584 S    
C94   C172  1.526584 S    
Zn13  O5    1.934977 S    
Zn2   O10   1.933449 S    
C144  C166  1.536160 S    
C126  C130  1.392234 A    
C41   C45   1.417652 A    
Zn6   O14   1.935027 S    
O47   C3    1.275927 A    
Zn7   O3    1.948058 S    
C174  H116  1.111169 S    
C125  C129  1.390901 A    
C152  C153  1.525837 S    
C96   C178  1.531872 S    
C84   C88   1.413282 A    
C75   C79   1.393790 A    
C76   C80   1.393311 A    
C3    C102  1.451370 S    
C175  H128  1.111580 S    
C26   C30   1.391418 A    
C11   C139  1.455857 S    
O24   C20   1.275890 A    
C122  N2    1.436167 S    
C54   C58   1.381666 A    
Zn10  O2    1.944584 S    
Zn11  O19   1.934394 S    
C167  C168  1.526928 S    
C148  H65   1.112667 S    
C68   C72   1.392378 A    
Zn9   O49   1.934306 S    
C155  H77   1.111015 S    
Zn4   O4    1.947906 S    
C120  C124  1.407399 A    
Zn7   O23   1.934550 S    
Zn8   O24   1.935582 S    
C112  C154  1.514044 S    
C106  C110  1.402195 A    
C132  H52   1.082526 S    
C173  C174  1.527092 S    
O25   C21   1.276727 A    
C159  H82   1.110732 S    
C168  H102  1.110795 S    
C25   C45   1.411906 A    
C74   C78   1.394681 A    
C170  C171  1.526426 S    
C167  H106  1.108370 S    
C67   C87   1.416040 A    
Zn12  O52   1.935023 S    
O22   C18   1.275011 A    
C29   C33   1.392445 A    
C118  C122  1.407318 A    
C141  C142  1.410982 A    
Zn13  O41   1.933737 S    
C164  H98   1.111334 S    
O50   C6    1.275200 A    
C40   C44   1.414090 A    
Zn16  O44   1.934349 S    
Zn1   O37   1.935072 S    
C117  C121  1.408363 A    
Zn2   O34   1.934848 S    
Zn3   O39   1.935072 S    
C169  H115  1.109162 S    
C6    C90   1.456278 S    
C67   C71   1.394686 A    
C90   C94   1.415848 A    
C174  H118  1.110508 S    
C161  H92   1.109165 S    
Zn6   O22   1.935582 S    
H41   C97   1.081308 S    
C166  H108  1.107711 S    
C92   C96   1.417166 A    
O35   C23   1.280135 A    
C147  H54   1.109673 S    
C9    C137  1.454393 S    
C121  C122  1.398351 A    
H43   C99   1.081655 S    
C162  H89   1.110780 S    
C95   C99   1.399135 A    
C138  C142  1.417173 A    
C1    C104  1.452448 S    
C93   C97   1.398870 A    
N6    O63   1.299307 A    
C22   C50   1.456064 S    
C113  C114  1.408294 A    
C87   C91   1.417456 A    
Zn10  O50   1.935023 S    
C142  C160  1.534646 S    
C28   C32   1.391971 A    
C173  H120  1.112094 S    
H2    C54   1.084058 S    
C65   C69   1.393776 A    
C134  C137  1.425452 A    
C145  H58   1.112964 S    
O5    C1    1.275544 A    
O26   C22   1.275819 A    
O31   C19   1.278585 A    
H23   C59   1.084166 S    
C37   H17   1.082466 S    
C105  C114  1.413927 A    
C82   C102  1.409959 A    
H42   C98   1.081673 S    
C39   H19   1.078791 S    
C44   C48   1.417780 A    
C171  H111  1.110676 S    
O32   C20   1.275672 A    
C150  H60   1.110594 S    
C128  N8    1.430253 S    
Zn5   O45   1.933494 S    
C42   C62   1.418861 A    
N1    O54   1.301243 A    
Zn7   O47   1.933494 S    
C81   C101  1.407817 A    
Zn8   O48   1.933806 S    
C163  H101  1.106806 S    
C70   H30   1.082804 S    
C168  H104  1.110579 S    
C59   C63   1.396345 A    
C146  H56   1.110947 S    
O51   C7    1.273003 A    
C180  H132  1.110704 S    
O8    C4    1.276135 A    
C71   C75   1.390857 A    
C157  H86   1.109998 S    
C177  H124  1.110864 S    
C29   H9    1.082291 S    
C135  C140  1.427234 A    
C108  C115  1.415668 A    
C31   H11   1.081113 S    
H24   C60   1.083349 S    
C161  C162  1.527240 S    
C125  N5    1.429712 S    
C131  H51   1.083118 S    
O52   C8    1.274797 A    
C78   C82   1.411924 A    
Zn1   O1    1.944654 S    
O40   C12   1.275713 A    
C158  H85   1.109755 S    
C107  C111  1.400666 A    
Zn14  O6    1.934261 S    
Zn3   O11   1.933761 S    
Zn15  O27   1.935770 S    
C56   C60   1.383158 A    
C41   C61   1.413954 A    
C86   C90   1.415994 A    
C44   C64   1.414918 A    
C127  N7    1.429222 S    
O9    C5    1.279042 A    
C152  H70   1.112136 S    
C153  H69   1.110919 S    
C83   C87   1.413336 A    
C81   C85   1.413497 A    
C76   H36   1.080636 S    
C165  H97   1.110012 S    
O13   C9    1.278907 A    
C126  C133  1.438521 A    
C109  C145  1.514548 S    
C146  C147  1.525815 S    
O18   C14   1.272452 A    
O6    C2    1.276150 A    
C28   C48   1.415929 A    
C105  C109  1.404421 A    
Zn9   O17   1.934394 S    
H3    C55   1.084094 S    
C172  H122  1.111371 S    
Zn11  O31   1.937028 S    
C123  C124  1.394196 A    
Zn12  O32   1.935811 S    
Zn13  O25   1.935770 S    
C143  C144  1.410163 A    
Zn15  O3    1.944878 S    
Zn11  O3    1.943369 S    
C66   C86   1.416551 A    
C2    C103  1.450424 S    
C68   H28   1.080342 S    
C16   C120  1.454277 S    
O43   C15   1.274250 A    
C130  H50   1.083612 S    
Zn5   O1    1.948058 S    
C171  H109  1.110174 S    
C150  H62   1.110482 S    
C108  C112  1.402901 A    
C72   C76   1.387795 A    
C78   H38   1.080838 S    
N8    O67   1.300717 A    
C179  H134  1.111807 S    
C83   C103  1.408744 A    
C33   H15   1.082835 S    
C77   C81   1.413042 A    
C35   H13   1.080124 S    
N7    O65   1.301109 A    
C80   C84   1.416127 A    
C67   H27   1.081841 S    
C74   H34   1.082167 S    
C170  H112  1.109628 S    
C88   C92   1.419341 A    
C40   H20   1.080422 S    
C73   C77   1.393751 A    
N5    O62   1.300532 A    
C91   C95   1.416727 A    
C180  H130  1.110909 S    
Zn14  O42   1.934349 S    
C154  C155  1.535727 S    
O7    C3    1.276999 A    
C93   C169  1.530271 S    
C50   C54   1.396896 A    
O33   C21   1.275211 A    
C176  H126  1.111791 S    
Zn3   O35   1.935881 S    
C179  C180  1.527789 S    
C127  C136  1.435693 A    
C32   H12   1.079654 S    
C17   C64   1.454531 S    
O37   C9    1.273136 A    
C153  H67   1.110453 S    
C79   H39   1.081783 S    
O39   C11   1.273947 A    
C170  H113  1.111878 S    
C165  H95   1.110498 S    
C10   C138  1.453187 S    
C19   C62   1.455932 S    
C141  C157  1.532234 S    
C149  H63   1.111853 S    
C155  H78   1.111905 S    
C23   C51   1.457543 S    
C143  C163  1.529907 S    
Zn4   O36   1.934848 S    
C21   C49   1.453785 S    
C14   C118  1.452866 S    
Zn2   O38   1.933432 S    
O36   C24   1.278758 A    
C24   C52   1.456033 S    
C65   H25   1.081676 S    
C166  C167  1.537454 S    
H1    C53   1.083744 S    
C66   C70   1.393343 A    
C49   C53   1.396469 A    
O19   C15   1.275045 A    
C36   C40   1.389717 A    
C39   C43   1.417460 A    
Zn15  O43   1.933737 S    
C52   C56   1.397652 A    
C37   C41   1.413185 A    
C176  C177  1.527998 S    
Zn13  O1    1.944878 S    
C27   C31   1.392033 A    
C32   C36   1.385769 A    
C43   C63   1.418734 A    
C147  H53   1.110017 S    
C160  C161  1.536537 S    
C20   C61   1.453075 S    
C133  C134  1.424614 A    
C164  H99   1.110915 S    
Zn9   O29   1.937028 S    
C124  N4    1.435296 S    
C107  H47   1.080592 S    
C159  H81   1.109199 S    
C128  C132  1.392135 A    
C72   H32   1.082842 S    
C169  H114  1.110723 S    
N2    O55   1.300752 A    
C174  H117  1.111084 S    
H21   C57   1.083714 S    
C166  H107  1.110452 S    
C34   H16   1.078608 S    
C178  C179  1.532833 S    
O38   C10   1.279304 A    
C99   C103  1.394641 A    
Zn2   O2    1.947906 S    
C151  C152  1.534086 S    
Zn14  O2    1.943663 S    
C18   C63   1.455059 S    
N6    O64   1.300768 A    
C53   C57   1.387054 A    
C177  H123  1.111033 S    
C156  H74   1.109733 S    
C175  H129  1.106514 S    
Zn8   O4    1.944805 S    
C30   C34   1.385864 A    
O21   C17   1.277486 A    
C43   C47   1.418130 A    
C126  N6    1.429205 S    
O16   C12   1.274989 A    
C69   C73   1.390217 A    
O49   C5    1.272297 A    
C148  H66   1.107473 S    
C114  C117  1.417553 A    
C147  H55   1.110135 S    
O10   C6    1.277440 A    
C65   C85   1.416240 A    
C171  H110  1.111046 S    
C128  C135  1.439008 A    
C5    C89   1.457507 S    
Zn10  O30   1.935811 S    
C89   C93   1.419015 A    
C12   C140  1.450942 S    
Zn12  O20   1.933782 S    
N1    O53   1.301454 A    
N4    O60   1.300642 A    
H44   C100  1.081651 S    
Zn14  O26   1.936986 S    
C163  H100  1.109399 S    
Zn15  O7    1.934977 S    
C159  H83   1.110540 S    
Zn16  O8    1.934261 S    
C146  H57   1.111850 S    
Zn1   O9    1.933761 S    
N7    O66   1.300384 A    
C96   C100  1.397096 A    
C51   C55   1.396947 A    
C94   C98   1.398556 A    
Zn4   O12   1.933449 S    
Zn11  O51   1.934306 S    
C167  H105  1.109681 S    
C106  H46   1.082442 S    
Zn5   O13   1.933387 S    
Zn6   O2    1.944805 S    
Zn7   O15   1.933387 S    
C27   C47   1.417305 A    
Zn8   O16   1.935027 S    
C100  C104  1.395148 A    
C110  C148  1.517483 S    
C8    C92   1.455921 S    
C77   H37   1.082085 S    
C75   H35   1.082598 S    
C98   C102  1.393389 A    
C116  C119  1.417668 A    
O27   C23   1.274043 A    
C80   H40   1.079535 S    
O14   C10   1.272867 A    
C38   H18   1.079089 S    
O29   C17   1.275853 A    
C158  C159  1.525410 S    
C73   H33   1.082344 S    
C109  C110  1.415350 A    
C33   C37   1.394963 A    
Zn10  O18   1.933782 S    
C152  H71   1.112017 S    
C153  H68   1.107117 S    
C31   C35   1.385352 A    
C36   H14   1.076135 S    
C111  C151  1.517891 S    
Zn9   O1    1.943369 S    
C178  H136  1.110514 S    
C165  H96   1.110859 S    
C179  H133  1.110544 S    
C148  C149  1.533808 S    
C162  H90   1.110555 S    
O41   C13   1.272754 A    
C135  C136  1.425463 A    
C151  H73   1.106815 S    
C108  H48   1.080186 S    
C155  C156  1.525340 S    
C169  C170  1.539881 S    
C30   H10   1.081305 S    
C156  H76   1.109979 S    
O45   C1    1.278183 A    
N3    O58   1.301363 A    
C172  H121  1.106652 S    
N2    O56   1.301012 A    
C15   C119  1.452735 S    
C79   C83   1.413496 A    
C46   C50   1.419239 A    
C131  C132  1.376853 A    
O15   C11   1.279053 A    
C125  C134  1.436573 A    
C145  H59   1.110723 S    
C26   C46   1.416760 A    
C127  C131  1.390976 A    
C123  N3    1.437884 S    
Zn6   O46   1.933806 S    
C149  C150  1.526261 S    
O44   C16   1.274301 A    
C175  C176  1.536036 S    
C156  H75   1.110979 S    
O17   C13   1.276463 A    
O20   C16   1.276027 A    
C85   C89   1.417926 A    
C178  H135  1.111368 S    
C150  H61   1.109718 S    
C38   C42   1.416430 A    
C173  H119  1.107434 S    
C13   C117  1.452624 S    
O48   C4    1.273097 A    
C157  C158  1.536309 S    
N8    O68   1.300705 A    
C66   H26   1.081656 S    
C34   C38   1.391164 A    
C168  H103  1.110780 S    
C164  C165  1.524110 S    
C58   C62   1.396384 A    
C115  C116  1.408918 A    
C154  H80   1.111599 S    
C145  C146  1.533697 S    
Zn1   O33   1.935881 S    
C84   C104  1.412878 A    
C25   H5    1.081586 S    
O30   C18   1.277558 A    
O12   C8    1.277923 A    
