data_mof_unit_18094.cif
_audit_creation_date              2013-03-05T15:42:34-0500
_audit_creation_method            fapswitch 2.2
_symmetry_space_group_name_H-M    P1
_symmetry_Int_Tables_number       1
_space_group_crystal_system       triclinic
_cell_length_a                    10.843822
_cell_length_b                    10.759226
_cell_length_c                    9.824985
_cell_angle_alpha                 89.313712
_cell_angle_beta                  88.240901
_cell_angle_gamma                 91.307995
_cell_volume                      1145.3611589

loop_
_atom_site_label
_atom_site_type_symbol
_atom_site_description
_atom_site_fract_x
_atom_site_fract_y
_atom_site_fract_z
_atom_type_partial_charge
O1    O     O_R   0.500020 0.321960 0.617040 -0.473616
O2    O     O_R   0.499980 0.321920 0.382900 -0.554314
C1    C     C_R   0.510522 0.265655 0.501362 0.754662
O3    O     O_R   0.319670 0.500020 0.617100 -0.567769
O4    O     O_R   0.319630 0.499980 0.382950 -0.531577
C2    C     C_R   0.262422 0.487684 0.503059 0.852945
Cu1   Cu    Cu3+1 0.500020 0.500020 0.638630 1.196106
Cu2   Cu    Cu3+1 0.499980 0.499980 0.361370 1.188904
O5    O     O_R   0.500020 0.678080 0.617100 -0.502638
O6    O     O_R   0.499980 0.678040 0.382960 -0.538862
O7    O     O_R   0.680370 0.500020 0.617050 -0.546997
O8    O     O_R   0.680330 0.499980 0.382900 -0.506321
C3    C     C_R   0.492147 0.735774 0.498840 0.827909
C4    C     C_R   0.738306 0.509786 0.496485 0.909629
C5    C     C_R   0.099888 0.527095 0.755920 0.441586
C6    C     C_R   0.061925 0.629329 0.832419 -0.328867
H1    H     H_    0.101796 0.647143 0.929983 0.229328
C7    C     C_R   0.972436 0.708427 0.782786 0.289611
C8    C     C_R   0.907284 0.672240 0.667520 0.644064
C9    C     C_R   0.940659 0.564204 0.597707 -0.191083
C10   C     C_R   0.055736 0.514208 0.623360 -0.158276
C11   C     C_R   0.126567 0.471711 0.510183 -0.204146
C12   C     C_R   0.067191 0.445409 0.388746 0.571569
C13   C     C_R   0.943712 0.475598 0.373339 0.312753
C14   C     C_R   0.875188 0.521010 0.486473 -0.192059
C15   C     C_2   0.500957 0.945704 0.387498 0.104297
C16   C     C_2   0.471430 0.871047 0.498273 0.138656
C17   C     C_2   0.563354 0.069456 0.399163 0.194179
C18   C     C_2   0.543431 0.135282 0.510489 0.446001
C19   C     C_2   0.495396 0.401076 0.926919 0.684205
N1    N     N_2   0.498640 0.498660 0.846910 -0.144298
C20   C     C_2   0.518756 0.402812 0.077415 0.650308
N2    N     N_2   0.498610 0.498630 0.153040 -0.274955
H2    H     H_    0.438196 0.561223 0.114843 0.226979
F1    F     F_    0.131607 0.394997 0.282933 -0.577886
F2    F     F_    0.604963 0.101721 0.623404 -0.531349
F3    F     F_    0.470577 0.287884 0.873603 -0.524321
S1    S     S_3+6 0.572901 0.635421 0.901318 0.119405
O9    O     O_2   0.476099 0.723293 0.950806 -0.227469
O10   O     O_2   0.663248 0.611119 0.010174 -0.252723
O11   O     O_3   0.657497 0.708464 0.779199 -0.424089
H3    H     H_    0.656809 0.797595 0.803337 0.435144
F4    F     F_    0.560609 0.297178 0.134010 -0.564585
S2    S     S_3+6 0.151873 0.395047 0.844873 0.116899
O12   O     O_2   0.222341 0.308856 0.753632 -0.192947
O13   O     O_2   0.230424 0.436028 0.960086 -0.292518
O14   O     O_3   0.026828 0.316775 0.908993 -0.435434
H4    H     H_    0.059376 0.255942 0.974621 0.422098
S3    S     S_3+6 0.941124 0.848147 0.868338 0.147063
O15   O     O_2   0.890550 0.942476 0.772118 -0.100889
O16   O     O_2   0.847770 0.822795 0.982019 -0.189692
O17   O     O_3   0.071477 0.906690 0.933707 -0.469851
H5    H     H_    0.079626 0.862769 0.022058 0.364283
F5    F     F_    0.827997 0.751163 0.608996 -0.593813
S4    S     S_3+6 0.893760 0.498009 0.205518 0.119024
O18   O     O_2   0.828084 0.619204 0.199220 -0.203008
O19   O     O_2   0.002132 0.505225 0.107237 -0.222618
O20   O     O_3   0.799475 0.380178 0.162021 -0.410279
H6    H     H_    0.796595 0.385332 0.061425 0.396179
S5    S     S_3+6 0.481365 0.895848 0.218034 0.133607
O21   O     O_2   0.594503 0.828170 0.171846 -0.111296
O22   O     O_2   0.369427 0.811461 0.209769 -0.275597
O23   O     O_3   0.463937 0.019341 0.114387 -0.358146
H7    H     H_    0.390296 0.061605 0.151729 0.365570
S6    S     S_3+6 0.376556 0.923232 0.636561 0.101696
O24   O     O_2   0.453949 0.949249 0.757796 -0.123823
O25   O     O_2   0.308382 0.037959 0.598229 -0.237456
O26   O     O_3   0.272278 0.809847 0.678574 -0.533744
H8    H     H_    0.268176 0.807060 0.779438 0.399882
S7    S     S_3+6 0.715317 0.081291 0.326787 0.172727
O27   O     O_2   0.710724 0.095917 0.174748 -0.115024
O28   O     O_2   0.784351 0.190691 0.383796 -0.242107
O29   O     O_3   0.789841 0.950311 0.364213 -0.428703
H9    H     H_    0.854769 0.943210 0.291423 0.397875

loop_
_geom_bond_atom_site_label_1
_geom_bond_atom_site_label_2
_geom_bond_distance
_ccdc_geom_bond_type
O4    Cu2   1.960663 S    
C19   C20   1.508067 S    
S4    O18   1.501508 D    
S2    O14   1.681506 S    
S3    O16   1.502447 D    
S7    O27   1.502638 D    
C16   S6    1.782840 S    
O29   H9    0.992902 S    
C15   C17   1.486959 S    
C8    C9    1.405587 A    
S6    O25   1.503213 D    
N1    S1    1.757997 S    
Cu2   O8    1.973535 S    
S6    O26   1.683324 S    
C20   N2    1.296637 D    
S3    O17   1.682875 S    
S7    O29   1.682869 S    
N2    H2    1.026030 S    
O20   H6    0.990732 S    
Cu1   Cu2   2.724094 S    
C10   C11   1.418181 A    
O17   H5    0.990659 S    
C13   S4    1.766775 S    
S1    O10   1.497117 D    
C18   F2    1.361321 S    
C1    C18   1.457672 S    
C15   C16   1.370470 D    
C19   N1    1.303211 D    
S5    O21   1.501942 D    
S5    O23   1.681963 S    
C8    F5    1.357523 S    
S5    O22   1.503946 D    
C17   C18   1.325013 D    
C20   F4    1.353072 S    
S2    O13   1.501768 D    
C5    S2    1.771189 S    
O2    C1    1.314766 A    
C12   F1    1.359833 S    
Cu2   N2    2.047573 S    
S4    O19   1.497930 D    
C4    C14   1.486625 S    
O4    C2    1.320025 A    
O7    C4    1.325593 A    
C17   S7    1.775844 S    
O3    C2    1.304193 A    
Cu1   N1    2.045818 S    
C9    C14   1.399682 A    
C12   C13   1.397294 A    
O23   H7    0.990790 S    
C2    C11   1.478695 S    
O14   H4    0.991526 S    
Cu1   O5    1.924911 S    
C5    C10   1.408648 A    
S1    O9    1.502365 D    
C13   C14   1.416070 A    
C19   F3    1.356095 S    
S1    O11   1.666021 S    
C6    C7    1.400199 A    
S6    O24   1.503356 D    
O11   H3    0.990766 S    
S4    O20   1.678045 S    
S3    O15   1.502920 D    
C7    C8    1.407264 A    
O5    C3    1.316760 A    
C11   C12   1.401815 A    
C3    C16   1.477702 S    
Cu1   O7    1.960661 S    
S7    O28   1.503629 D    
O3    Cu1   1.973535 S    
C9    C10   1.398846 A    
O1    Cu1   1.930019 S    
C15   S5    1.772830 S    
O26   H8    0.990689 S    
Cu2   O6    1.930018 S    
O2    Cu2   1.924912 S    
S2    O12   1.502567 D    
C5    C6    1.402058 A    
C7    S3    1.765702 S    
O8    C4    1.301782 A    
C6    H1    1.080998 S    
O1    C1    1.297448 A    
O6    C3    1.304879 A    
