data_mof_unit_42720.cif
_audit_creation_date              2013-03-05T16:01:09-0500
_audit_creation_method            fapswitch 2.2
_symmetry_space_group_name_H-M    P1
_symmetry_Int_Tables_number       1
_space_group_crystal_system       triclinic
_cell_length_a                    7.163612
_cell_length_b                    37.271526
_cell_length_c                    41.105117
_cell_angle_alpha                 90.003841
_cell_angle_beta                  90.021943
_cell_angle_gamma                 89.982467
_cell_volume                      10975.0135518

loop_
_atom_site_label
_atom_site_type_symbol
_atom_site_description
_atom_site_fract_x
_atom_site_fract_y
_atom_site_fract_z
_atom_type_partial_charge
O1    O     O_R   0.564240 0.782760 0.216890 -0.556585
O2    O     O_R   0.435760 0.217240 0.783110 -0.575592
O3    O     O_R   0.435760 0.217240 0.716890 -0.566904
O4    O     O_R   0.564240 0.782760 0.283110 -0.573342
O5    O     O_R   0.064240 0.717240 0.283110 -0.572728
O6    O     O_R   0.935760 0.282760 0.716890 -0.567312
O7    O     O_R   0.935760 0.282760 0.783110 -0.560729
O8    O     O_R   0.064240 0.717240 0.216890 -0.574554
O9    O     O_R   0.234510 0.787070 0.282870 -0.568401
O10   O     O_R   0.765490 0.212930 0.717130 -0.580507
O11   O     O_R   0.765490 0.212930 0.782870 -0.568966
O12   O     O_R   0.234510 0.787070 0.217130 -0.603372
O13   O     O_R   0.734510 0.712930 0.217130 -0.566808
O14   O     O_R   0.265490 0.287070 0.782870 -0.577799
O15   O     O_R   0.265490 0.287070 0.717130 -0.578081
O16   O     O_R   0.734510 0.712930 0.282870 -0.569232
C1    C     C_R   0.403309 0.795428 0.294084 1.058820
C2    C     C_R   0.596637 0.204092 0.706366 1.054477
C3    C     C_R   0.596643 0.203867 0.793471 1.065976
C4    C     C_R   0.403321 0.795815 0.206132 1.030506
C5    C     C_R   0.903419 0.703801 0.206579 1.065573
C6    C     C_R   0.096547 0.295735 0.793897 1.046258
C7    C     C_R   0.096613 0.295910 0.706370 1.057105
C8    C     C_R   0.903345 0.704623 0.294127 1.058520
O17   O     O_3   0.397750 0.727090 0.250000 -0.279753
O18   O     O_3   0.602250 0.272910 0.750000 -0.281472
O19   O     O_3   0.897750 0.772910 0.250000 -0.286919
O20   O     O_3   0.102250 0.227090 0.750000 -0.286977
V1    V     V_3+5 0.122890 0.754250 0.250000 1.253592
V2    V     V_3+5 0.877110 0.245750 0.750000 1.267333
V3    V     V_3+5 0.622890 0.745750 0.250000 1.271966
V4    V     V_3+5 0.377110 0.254250 0.750000 1.261951
C9    C     C_R   0.933851 0.613312 0.430880 0.667012
C10   C     C_R   0.984589 0.389694 0.573089 0.676475
C11   C     C_R   0.079161 0.388579 0.929592 0.671073
C12   C     C_R   0.028851 0.610683 0.073916 0.679171
C13   C     C_R   0.431106 0.888857 0.070597 0.672687
C14   C     C_R   0.475626 0.110994 0.926577 0.679106
C15   C     C_R   0.483983 0.111475 0.572505 0.676373
C16   C     C_R   0.434885 0.887740 0.430326 0.669065
O21   O     O_2   0.882894 0.647597 0.436384 -0.386950
O22   O     O_2   0.968642 0.354132 0.567929 -0.380790
O23   O     O_2   0.125738 0.354054 0.935059 -0.389486
O24   O     O_2   0.039145 0.646406 0.069271 -0.382330
O25   O     O_2   0.381618 0.854473 0.065190 -0.392444
O26   O     O_2   0.464654 0.146695 0.931325 -0.382045
O27   O     O_2   0.470493 0.147114 0.567589 -0.380180
O28   O     O_2   0.386689 0.853384 0.436199 -0.387455
N1    N     N_R   0.951558 0.601681 0.399450 -0.173414
N2    N     N_R   0.024142 0.401464 0.603885 -0.172203
N3    N     N_R   0.063189 0.400373 0.898205 -0.171624
N4    N     N_R   0.991706 0.598130 0.104572 -0.173460
N5    N     N_R   0.448742 0.900629 0.101962 -0.166735
N6    N     N_R   0.511547 0.098542 0.895835 -0.173539
N7    N     N_R   0.521168 0.099327 0.603298 -0.173706
N8    N     N_R   0.449795 0.899153 0.398807 -0.171876
C17   C     C_R   0.989464 0.566466 0.392668 0.545583
C18   C     C_R   0.033023 0.437311 0.610899 0.553226
C19   C     C_R   0.030993 0.435812 0.891502 0.544487
C20   C     C_R   0.989958 0.562120 0.111023 0.556482
C21   C     C_R   0.485280 0.935917 0.108677 0.533708
C22   C     C_R   0.513509 0.062547 0.889295 0.555940
C23   C     C_R   0.525800 0.063389 0.610027 0.553904
C24   C     C_R   0.483865 0.934445 0.391744 0.542208
C25   C     C_R   0.789893 0.625840 0.350858 0.058349
C26   C     C_R   0.910718 0.373152 0.654518 0.061379
C27   C     C_R   0.217793 0.375327 0.849308 0.053297
C28   C     C_R   0.096841 0.626400 0.155800 0.061641
C29   C     C_R   0.290099 0.876100 0.150652 0.099272
C30   C     C_R   0.404441 0.126747 0.844700 0.062035
C31   C     C_R   0.409498 0.127230 0.654240 0.059649
C32   C     C_R   0.288976 0.874569 0.350326 0.056202
C33   C     C_R   0.778500 0.650761 0.324870 -0.028130
C34   C     C_R   0.931178 0.348079 0.680092 -0.032485
C35   C     C_R   0.225316 0.349995 0.823606 -0.026328
C36   C     C_R   0.071989 0.651457 0.181271 -0.033302
C37   C     C_R   0.278182 0.850872 0.176179 -0.044931
C38   C     C_R   0.428616 0.151676 0.819116 -0.032140
C39   C     C_R   0.430829 0.152077 0.679968 -0.029079
C40   C     C_R   0.278089 0.849484 0.324471 -0.027371
C41   C     C_R   0.061472 0.680063 0.344775 0.371766
C42   C     C_R   0.219776 0.326364 0.655311 0.351653
C43   C     C_R   0.936994 0.322784 0.843604 0.370913
C44   C     C_R   0.780535 0.671383 0.156264 0.363307
C45   C     C_R   0.564017 0.822318 0.156419 0.389620
C46   C     C_R   0.719941 0.171895 0.843959 0.362777
C47   C     C_R   0.719583 0.173725 0.655231 0.351048
C48   C     C_R   0.561132 0.820373 0.344607 0.370901
C49   C     C_R   0.075605 0.654285 0.369651 0.391274
C50   C     C_R   0.202367 0.352522 0.630713 0.402729
C51   C     C_R   0.928698 0.348635 0.868521 0.390418
C52   C     C_R   0.803097 0.645364 0.131662 0.399127
C53   C     C_R   0.576673 0.848341 0.131706 0.392959
C54   C     C_R   0.698259 0.145958 0.868646 0.399168
C55   C     C_R   0.701473 0.147741 0.630493 0.404792
C56   C     C_R   0.574947 0.846344 0.369331 0.393354
C57   C     C_R   0.938958 0.627442 0.373084 -0.000020
C58   C     C_R   0.046501 0.375537 0.629924 0.004897
C59   C     C_R   0.070156 0.374550 0.871816 0.006242
C60   C     C_R   0.963111 0.623442 0.130912 0.002995
C61   C     C_R   0.438369 0.874846 0.128337 -0.009932
C62   C     C_R   0.538751 0.123921 0.869511 0.002548
C63   C     C_R   0.544912 0.124914 0.629573 0.001626
C64   C     C_R   0.437844 0.873157 0.372611 0.002725
C65   C     C_R   0.983320 0.552615 0.450609 -0.132339
C66   C     C_R   0.981554 0.451474 0.553828 -0.123089
C67   C     C_R   0.038593 0.449449 0.949488 -0.124975
C68   C     C_R   0.041069 0.549308 0.053742 -0.128892
C69   C     C_R   0.476740 0.949544 0.050677 -0.110330
C70   C     C_R   0.465865 0.049564 0.946610 -0.130849
C71   C     C_R   0.475957 0.049854 0.552847 -0.128907
C72   C     C_R   0.478570 0.948761 0.449586 -0.125428
C73   C     C_R   0.965877 0.589645 0.457205 -0.234226
C74   C     C_R   0.963326 0.414394 0.547063 -0.233201
C75   C     C_R   0.048997 0.412270 0.955921 -0.234285
C76   C     C_R   0.053100 0.586562 0.047484 -0.230918
C77   C     C_R   0.461705 0.912440 0.044234 -0.235910
C78   C     C_R   0.453443 0.086786 0.952989 -0.230814
C79   C     C_R   0.462413 0.087026 0.546237 -0.232218
C80   C     C_R   0.467261 0.911679 0.456382 -0.235289
C81   C     C_R   0.995162 0.601752 0.489444 0.513561
C82   C     C_R   0.914033 0.403847 0.514986 0.516854
C83   C     C_R   0.014442 0.400095 0.987965 0.512820
C84   C     C_R   0.099472 0.597872 0.015514 0.519331
C85   C     C_R   0.492499 0.900183 0.012091 0.510643
C86   C     C_R   0.408511 0.097949 0.985069 0.518997
C87   C     C_R   0.416810 0.097915 0.514101 0.518469
C88   C     C_R   0.502644 0.899843 0.488505 0.512489
C89   C     C_R   0.002522 0.540810 0.418067 -0.080052
C90   C     C_R   0.001864 0.463290 0.586341 -0.083494
C91   C     C_R   0.025906 0.461650 0.916922 -0.092779
C92   C     C_R   0.026562 0.536981 0.086108 -0.078225
C93   C     C_R   0.496690 0.961625 0.083193 -0.120918
C94   C     C_R   0.478435 0.037333 0.914198 -0.078037
C95   C     C_R   0.490777 0.037916 0.585332 -0.078215
C96   C     C_R   0.490976 0.960566 0.416907 -0.092013
C97   C     C_R   0.914441 0.678202 0.321589 -0.342459
C98   C     C_R   0.084082 0.323907 0.680355 -0.342959
C99   C     C_R   0.086015 0.323081 0.820712 -0.350838
C100  C     C_R   0.916840 0.675122 0.181123 -0.352714
C101  C     C_R   0.414396 0.823135 0.179246 -0.371760
C102  C     C_R   0.583541 0.175371 0.819084 -0.353247
C103  C     C_R   0.584041 0.176152 0.680303 -0.342895
C104  C     C_R   0.414171 0.822028 0.321400 -0.342864
C105  C     C_R   0.970781 0.514129 0.535203 -0.038004
C106  C     C_R   0.998021 0.490350 0.469887 -0.039036
C107  C     C_R   0.053949 0.486903 0.034431 -0.036446
C108  C     C_R   0.028081 0.511544 0.969302 -0.040974
C109  C     C_R   0.454365 0.987106 0.965795 -0.034907
C110  C     C_R   0.487960 0.011653 0.030852 -0.073417
C111  C     C_R   0.490249 0.011060 0.468790 -0.040905
C112  C     C_R   0.464665 0.987196 0.534151 -0.036661
C113  C     C_R   0.969732 0.465163 0.495501 0.077511
C114  C     C_R   0.983457 0.539695 0.509332 0.072388
C115  C     C_R   0.053179 0.536492 0.995262 0.080147
C116  C     C_R   0.037198 0.461783 0.008311 0.070079
C117  C     C_R   0.458959 0.036610 0.005056 0.078234
C118  C     C_R   0.472465 0.961925 0.991845 0.070911
C119  C     C_R   0.481228 0.961772 0.508272 0.069952
C120  C     C_R   0.464854 0.036321 0.494488 0.080330
C121  C     C_R   0.977422 0.476975 0.528112 0.017912
C122  C     C_R   0.985217 0.527491 0.476653 0.015347
C123  C     C_R   0.046692 0.524177 0.027737 0.017905
C124  C     C_R   0.038352 0.474326 0.975732 0.016161
C125  C     C_R   0.462491 0.024363 0.972552 0.021615
C126  C     C_R   0.475715 0.974448 0.024430 0.014972
C127  C     C_R   0.479735 0.973935 0.475583 0.015847
C128  C     C_R   0.471298 0.024403 0.527090 0.017838
C129  C     C_R   0.932120 0.523986 0.567760 0.396274
C130  C     C_R   0.057326 0.480007 0.438337 0.389709
C131  C     C_R   0.096397 0.476567 0.066816 0.393090
C132  C     C_R   0.974157 0.522358 0.937628 0.392669
C133  C     C_R   0.409422 0.976896 0.933475 0.392130
C134  C     C_R   0.548807 0.022264 0.062206 0.455344
C135  C     C_R   0.544393 0.021465 0.437024 0.392778
C136  C     C_R   0.422631 0.977217 0.566634 0.392964
C137  C     C_R   0.975081 0.500226 0.593392 -0.010416
C138  C     C_R   0.048756 0.504445 0.412239 -0.022783
C139  C     C_R   0.064160 0.500484 0.092715 -0.018099
C140  C     C_R   0.993273 0.498675 0.911032 -0.004889
C141  C     C_R   0.440382 0.000864 0.907570 -0.017855
C142  C     C_R   0.541702 0.998336 0.088519 -0.030814
C143  C     C_R   0.524901 0.997474 0.410655 -0.005764
C144  C     C_R   0.454508 0.001455 0.592293 -0.018256
O29   O     O_2   0.071861 0.447502 0.641637 -0.558233
O30   O     O_2   0.014102 0.556530 0.361415 -0.551118
O31   O     O_2   0.950716 0.550811 0.141433 -0.543188
O32   O     O_2   0.001082 0.445636 0.860365 -0.557293
O33   O     O_2   0.551521 0.051322 0.858808 -0.543376
O34   O     O_2   0.509956 0.945717 0.139930 -0.590303
O35   O     O_2   0.513252 0.943854 0.360491 -0.558214
O36   O     O_2   0.565897 0.052480 0.640532 -0.543927
C145  C     C_R   0.019123 0.576695 0.514804 -0.080184
C146  C     C_R   0.910253 0.429469 0.489715 -0.075856
C147  C     C_R   0.993408 0.425088 0.013428 -0.076128
C148  C     C_R   0.107234 0.572634 0.989937 -0.080121
C149  C     C_R   0.513470 0.925135 0.986598 -0.076872
C150  C     C_R   0.403466 0.072618 0.010595 -0.083612
C151  C     C_R   0.410333 0.072371 0.488764 -0.080026
C152  C     C_R   0.524831 0.925117 0.513711 -0.075735
Cl1   Cl    Cl    0.225441 0.715686 0.344685 -0.464940
Cl2   Cl    Cl    0.407999 0.295676 0.653037 -0.484694
Cl3   Cl    Cl    0.760424 0.289524 0.842862 -0.469232
Cl4   Cl    Cl    0.583058 0.699807 0.154405 -0.480123
Cl5   Cl    Cl    0.736236 0.788193 0.156923 -0.472499
Cl6   Cl    Cl    0.916201 0.200623 0.845765 -0.481239
Cl7   Cl    Cl    0.908412 0.204264 0.653081 -0.486050
Cl8   Cl    Cl    0.725522 0.784803 0.344708 -0.464724
Cl9   Cl    Cl    0.268170 0.655242 0.396609 -0.491605
Cl10  Cl    Cl    0.377015 0.356709 0.600572 -0.494381
Cl11  Cl    Cl    0.737550 0.348946 0.895792 -0.497876
Cl12  Cl    Cl    0.629848 0.639978 0.101391 -0.503964
Cl13  Cl    Cl    0.769600 0.848179 0.104810 -0.497502
Cl14  Cl    Cl    0.872072 0.140812 0.898856 -0.503183
Cl15  Cl    Cl    0.876121 0.143550 0.600346 -0.497344
Cl16  Cl    Cl    0.767917 0.845699 0.396211 -0.489615
Cl17  Cl    Cl    0.031376 0.647760 0.498457 -0.423060
Cl18  Cl    Cl    0.842273 0.359554 0.505396 -0.418511
Cl19  Cl    Cl    0.967288 0.354339 0.996455 -0.420614
Cl20  Cl    Cl    0.162709 0.642762 0.006423 -0.419896
Cl21  Cl    Cl    0.535155 0.854294 0.003440 -0.422088
Cl22  Cl    Cl    0.343525 0.142701 0.994352 -0.418215
Cl23  Cl    Cl    0.353452 0.142668 0.504446 -0.419782
Cl24  Cl    Cl    0.549345 0.854149 0.497356 -0.420508
N9    N     N_3   0.798752 0.347562 0.706319 -0.186766
H1    H     H_    0.665939 0.342356 0.696927 0.163213
H2    H     H_    0.797895 0.372701 0.717577 0.091615
N10   N     N_3   0.630839 0.647868 0.301395 -0.185594
H3    H     H_    0.502729 0.650327 0.313352 0.157428
H4    H     H_    0.637828 0.622649 0.290352 0.092781
N11   N     N_3   0.201561 0.652296 0.207943 -0.187258
H5    H     H_    0.335279 0.657621 0.199038 0.165371
H6    H     H_    0.201943 0.627206 0.219300 0.091293
N12   N     N_3   0.372048 0.352082 0.799898 -0.183537
H7    H     H_    0.500553 0.349375 0.811687 0.161296
H8    H     H_    0.366718 0.377163 0.788575 0.092669
N13   N     N_3   0.298395 0.152397 0.792542 -0.186904
H9    H     H_    0.165176 0.157994 0.801528 0.165605
H10   H     H_    0.296716 0.127179 0.781438 0.087344
N14   N     N_3   0.128417 0.854913 0.199078 -0.208574
H11   H     H_    0.034861 0.833637 0.196354 0.194964
H12   H     H_    0.182742 0.855255 0.222688 0.100251
N15   N     N_3   0.130858 0.852240 0.300897 -0.188123
H13   H     H_    0.138079 0.877379 0.289714 0.090853
H14   H     H_    0.002512 0.849872 0.312788 0.158681
N16   N     N_3   0.298868 0.152473 0.706264 -0.186728
H15   H     H_    0.297432 0.127203 0.717268 0.087175
H16   H     H_    0.166059 0.157938 0.696990 0.163601
N17   N     N_3   0.751397 0.396444 0.653097 -0.178203
H17   H     H_    0.630560 0.380784 0.652603 0.163254
H18   H     H_    0.749058 0.412349 0.674027 0.135432
N18   N     N_3   0.650957 0.598495 0.354953 -0.184193
H19   H     H_    0.520493 0.610683 0.357459 0.162161
H20   H     H_    0.649082 0.582353 0.334172 0.136181
N19   N     N_3   0.258871 0.603788 0.154755 -0.179106
H21   H     H_    0.377873 0.619959 0.154513 0.166650
H22   H     H_    0.261649 0.587932 0.175712 0.132286
N20   N     N_3   0.359261 0.402296 0.852795 -0.183521
H23   H     H_    0.489007 0.389777 0.854987 0.165828
H24   H     H_    0.360240 0.418231 0.831883 0.134735
N21   N     N_3   0.242641 0.104103 0.845921 -0.179009
H25   H     H_    0.123474 0.120243 0.846061 0.166330
H26   H     H_    0.239954 0.088074 0.825071 0.132799
N22   N     N_3   0.150607 0.903446 0.147169 -0.182268
H27   H     H_    0.020358 0.891070 0.145020 0.172338
H28   H     H_    0.149795 0.918969 0.168354 0.145723
N23   N     N_3   0.149747 0.901915 0.354210 -0.184889
H29   H     H_    0.148132 0.917933 0.333351 0.135447
H30   H     H_    0.019327 0.889727 0.356706 0.164516
N24   N     N_3   0.249489 0.104136 0.652717 -0.180648
H31   H     H_    0.247092 0.088022 0.673512 0.133063
H32   H     H_    0.129084 0.119937 0.652426 0.164121
N25   N     N_3   0.979186 0.512912 0.626511 -0.145079
H33   H     H_    0.119026 0.512841 0.633806 0.172570
H34   H     H_    0.938172 0.539684 0.628326 0.185082
N26   N     N_3   0.094899 0.492502 0.380024 -0.139692
H35   H     H_    0.010414 0.470535 0.374234 0.172550
H36   H     H_    0.234547 0.484377 0.379620 0.182569
N27   N     N_3   0.086340 0.488393 0.125652 -0.142135
H37   H     H_    0.225364 0.480911 0.129342 0.182712
H38   H     H_    0.001280 0.465930 0.129161 0.175678
N28   N     N_3   0.977674 0.511924 0.878182 -0.139265
H39   H     H_    0.109604 0.509389 0.867540 0.158582
H40   H     H_    0.949151 0.539339 0.877393 0.186511
N29   N     N_3   0.416090 0.988881 0.874646 -0.142255
H41   H     H_    0.276751 0.981499 0.871184 0.182642
H42   H     H_    0.500604 0.966371 0.870933 0.175318
N30   N     N_3   0.590914 0.012097 0.119980 -0.145626
H43   H     H_    0.476420 0.009878 0.135593 0.185401
H44   H     H_    0.705828 0.997968 0.129024 0.184530
N31   N     N_3   0.541108 0.010290 0.377676 -0.139875
H45   H     H_    0.408963 0.007948 0.367065 0.158700
H46   H     H_    0.571467 0.037615 0.376601 0.186745
N32   N     N_3   0.432886 0.989726 0.625346 -0.142357
H47   H     H_    0.294059 0.982194 0.629132 0.182399
H48   H     H_    0.518476 0.967365 0.629056 0.175446
Cl25  Cl    Cl    0.773094 0.559467 0.575652 -0.635842
Cl26  Cl    Cl    0.186323 0.439876 0.432418 -0.643922
Cl27  Cl    Cl    0.237170 0.438403 0.074802 -0.640601
Cl28  Cl    Cl    0.830204 0.560800 0.932785 -0.635238
Cl29  Cl    Cl    0.266712 0.938966 0.925689 -0.642200
Cl30  Cl    Cl    0.681153 0.062027 0.067747 -0.609474
Cl31  Cl    Cl    0.688492 0.059813 0.431853 -0.635664
Cl32  Cl    Cl    0.282394 0.939101 0.575010 -0.641464
N33   N     N_3   0.106415 0.587977 0.544595 -0.172350
H49   H     H_    0.030366 0.609196 0.554639 0.231455
H50   H     H_    0.240209 0.597415 0.539121 0.181294
N34   N     N_3   0.820520 0.420802 0.459418 -0.171091
H51   H     H_    0.680695 0.414725 0.464192 0.185798
H52   H     H_    0.883249 0.398004 0.449426 0.234085
N35   N     N_3   0.899048 0.414418 0.042738 -0.168459
H53   H     H_    0.967344 0.392292 0.052866 0.234814
H54   H     H_    0.763600 0.406455 0.036590 0.180373
N36   N     N_3   0.194245 0.582386 0.959685 -0.174228
H55   H     H_    0.332873 0.589447 0.964423 0.187412
H56   H     H_    0.126484 0.604808 0.949990 0.231016
N37   N     N_3   0.605182 0.914257 0.957093 -0.168223
H57   H     H_    0.534915 0.892292 0.947098 0.234698
H58   H     H_    0.740529 0.905970 0.962966 0.180451
N38   N     N_3   0.316356 0.081996 0.040938 -0.169517
H59   H     H_    0.176921 0.088554 0.036308 0.186884
H60   H     H_    0.381840 0.104681 0.050591 0.234549
N39   N     N_3   0.323999 0.081720 0.458334 -0.174323
H61   H     H_    0.391754 0.104040 0.448470 0.231232
H62   H     H_    0.185147 0.088784 0.462865 0.187378
N40   N     N_3   0.620001 0.914745 0.543044 -0.168467
H63   H     H_    0.755195 0.906659 0.536859 0.179901
H64   H     H_    0.551898 0.892752 0.553425 0.234568

loop_
_geom_bond_atom_site_label_1
_geom_bond_atom_site_label_2
_geom_bond_distance
_ccdc_geom_bond_type
C30   N21   1.434886 S    
N19   H22   1.044872 S    
N31   H45   1.045810 S    
C10   O22   1.347165 S    
C88   Cl24  1.773227 S    
C84   Cl20  1.773365 S    
C21   C93   1.422111 A    
O15   V4    1.989986 S    
O16   V3    1.989983 S    
C19   C91   1.421435 A    
N28   H39   1.045816 S    
C130  C138  1.408628 A    
C135  C143  1.411996 A    
C34   N9    1.436432 S    
C16   O28   1.348140 S    
C113  C146  1.417103 A    
C55   C63   1.408420 A    
C134  Cl30  1.774208 S    
C11   C75   1.413323 A    
N40   H63   1.045654 S    
C44   Cl4   1.768736 S    
C20   C92   1.412609 A    
N12   H8    1.044973 S    
C82   C146  1.411323 A    
N10   H4    1.044968 S    
N10   H3    1.045222 S    
N6    C62   1.450530 S    
C54   Cl14  1.768593 S    
C75   C83   1.415129 A    
C69   C77   1.412193 A    
N39   H61   1.045232 S    
C39   N16   1.436328 S    
C116  C147  1.418989 A    
C53   C61   1.405684 A    
C72   C80   1.412420 A    
N36   H55   1.045644 S    
C6    C99   1.503075 S    
C113  C121  1.411977 A    
C90   C137  1.419807 A    
C106  C122  1.414897 A    
O10   V2    1.990175 S    
O12   C4    1.331798 A    
C80   C88   1.414946 A    
O13   C5    1.329690 A    
C119  C152  1.419049 A    
O6    V2    1.983091 S    
C56   C64   1.407478 A    
C11   N3    1.367751 A    
N24   H32   1.044328 S    
C12   O24   1.347135 S    
C45   C101  1.425116 A    
C15   O27   1.347067 S    
C66   C90   1.414546 A    
O1    C4    1.326821 A    
O2    C3    1.325665 A    
C29   C61   1.404431 A    
O7    C6    1.325550 A    
C43   C51   1.407384 A    
C89   C138  1.415597 A    
C56   Cl16  1.769490 S    
C143  N31   1.442057 S    
C42   C98   1.419098 A    
C33   C97   1.418928 A    
O10   C2    1.329357 A    
C111  C127  1.413661 A    
C96   C143  1.420476 A    
C119  C127  1.418156 A    
C120  C128  1.412572 A    
C37   C101  1.426907 A    
C27   N20   1.434726 S    
C69   C126  1.423274 A    
N1    C57   1.450717 S    
C13   C77   1.412573 A    
C54   C62   1.407893 A    
N29   H42   1.045658 S    
C136  Cl32  1.774025 S    
C9    N1    1.368594 A    
N30   H44   1.045326 S    
N18   H19   1.044133 S    
O17   V3    1.756576 S    
C24   C96   1.421315 A    
O18   V4    1.756577 S    
C110  C117  1.425689 A    
O12   V1    1.990702 S    
O19   V1    1.756185 S    
C29   C37   1.411645 A    
C134  C142  1.402852 A    
C31   C39   1.413941 A    
C45   Cl5   1.771787 S    
N17   H17   1.044359 S    
C105  C121  1.415867 A    
C1    C104  1.499809 S    
O8    V1    1.982743 S    
C65   C73   1.412030 A    
C2    C103  1.496737 S    
N31   H46   1.042403 S    
N21   H25   1.044196 S    
C23   O36   1.349030 S    
C110  C126  1.414334 A    
O1    V3    1.982691 S    
N1    C17   1.368920 A    
O2    V4    1.982688 S    
C117  C150  1.418027 A    
C66   C121  1.421905 A    
C42   Cl2   1.770364 S    
C115  C148  1.418767 A    
N4    C20   1.368148 A    
N5    C21   1.369166 A    
C39   C103  1.417956 A    
N22   H27   1.044679 S    
C40   C104  1.418773 A    
N7    C23   1.368116 A    
C37   N14   1.435382 S    
N8    C24   1.369052 A    
C108  C115  1.426657 A    
C11   O23   1.348130 S    
C109  C118  1.429763 A    
N21   H26   1.044857 S    
C12   N4    1.370403 A    
C13   N5    1.367673 A    
C86   C150  1.411996 A    
N27   H38   1.045665 S    
C112  C119  1.429494 A    
N13   H9    1.044431 S    
C131  C139  1.407556 A    
C145  N33   1.437672 S    
C72   C96   1.416354 A    
C129  C137  1.410235 A    
N34   H52   1.045213 S    
N9    H1    1.044844 S    
C120  C151  1.418763 A    
N2    C58   1.450852 S    
C108  C124  1.414041 A    
C109  C125  1.417301 A    
C51   Cl11  1.770008 S    
C117  C125  1.412114 A    
C49   Cl9   1.769445 S    
C115  C123  1.412437 A    
C72   C127  1.422073 A    
C142  N30   1.435035 S    
N4    C60   1.450602 S    
C135  Cl31  1.776181 S    
C47   C55   1.410178 A    
N39   H62   1.045649 S    
N38   H60   1.045195 S    
C28   C60   1.405608 A    
C151  N39   1.437999 S    
C47   Cl7   1.770355 S    
C136  C144  1.407295 A    
C84   C148  1.411782 A    
C111  C120  1.426590 A    
C105  C114  1.430857 A    
N35   H54   1.045661 S    
O14   C6    1.332143 A    
C52   Cl12  1.768579 S    
C27   C35   1.417866 A    
C140  N28   1.442075 S    
C12   C76   1.420835 A    
C44   C100  1.419972 A    
C83   Cl19  1.773375 S    
N16   H15   1.044910 S    
C81   Cl17  1.773444 S    
C4    C101  1.504911 S    
C114  C122  1.418257 A    
C87   C151  1.411767 A    
C10   N2    1.369263 A    
N23   H29   1.044877 S    
C85   Cl21  1.773347 S    
C8    C97   1.500104 S    
C28   C36   1.414212 A    
N28   H40   1.042468 S    
C40   N15   1.435670 S    
C26   C58   1.406006 A    
N13   H10   1.044915 S    
N20   H23   1.043739 S    
C32   C40   1.417580 A    
C35   C99   1.420135 A    
C28   N19   1.434851 S    
C15   C79   1.421260 A    
N14   H11   1.044416 S    
N25   H34   1.042773 S    
C129  Cl25  1.775159 S    
C68   C92   1.411436 A    
C70   C94   1.411011 A    
C133  C141  1.407680 A    
C73   C81   1.415446 A    
N26   H35   1.045689 S    
C25   N18   1.434718 S    
C149  N37   1.437821 S    
N40   H64   1.045198 S    
C44   C52   1.410370 A    
C51   C59   1.406652 A    
C146  N34   1.438019 S    
C79   C87   1.419867 A    
C48   C56   1.406915 A    
C7    C98   1.496801 S    
C43   C99   1.423372 A    
C137  N25   1.441407 S    
C41   C97   1.421889 A    
C34   C98   1.418084 A    
O11   C3    1.329547 A    
C48   Cl8   1.772968 S    
C38   C102  1.418520 A    
N32   H47   1.045154 S    
C70   C125  1.421297 A    
N36   H56   1.045230 S    
N15   H13   1.044981 S    
C35   N12   1.435782 S    
N37   H58   1.045656 S    
C31   C63   1.406135 A    
C114  C145  1.420475 A    
C15   N7    1.370365 A    
O11   V2    1.990700 S    
N5    C61   1.450739 S    
C16   N8    1.367893 A    
N27   H37   1.045159 S    
C141  N29   1.435665 S    
C27   C59   1.405745 A    
C41   C49   1.406753 A    
C132  C140  1.411715 A    
C148  N36   1.437968 S    
O7    V2    1.982740 S    
C18   O29   1.348250 S    
C83   C147  1.409190 A    
C81   C145  1.410059 A    
C112  C128  1.417637 A    
C22   O33   1.348978 S    
C68   C123  1.421776 A    
C105  C129  1.415207 A    
C111  C135  1.416455 A    
C53   Cl13  1.770181 S    
N2    C18   1.368322 A    
N8    C64   1.451030 S    
C43   Cl3   1.771587 S    
C144  N32   1.435738 S    
C131  Cl27  1.773968 S    
C41   Cl1   1.772995 S    
C32   C64   1.406557 A    
C69   C93   1.417501 A    
C88   C152  1.409267 A    
N29   H41   1.045148 S    
C14   N6    1.370562 A    
C91   C140  1.420358 A    
C150  N38   1.437906 S    
N11   H6    1.045223 S    
C107  C116  1.429559 A    
C17   O30   1.348595 S    
C147  N35   1.437854 S    
O4    C1    1.324967 A    
C16   C80   1.413117 A    
C38   N13   1.436414 S    
C21   O34   1.347151 S    
C10   C74   1.419574 A    
N12   H7    1.045016 S    
C24   O35   1.348333 S    
C118  C126  1.418564 A    
N18   H20   1.044867 S    
C138  N26   1.435647 S    
C76   C84   1.419682 A    
C9    C73   1.414748 A    
O13   V3    1.990290 S    
O14   V4    1.990288 S    
C33   N10   1.435610 S    
C30   C62   1.405734 A    
N6    C22   1.368302 A    
C42   C50   1.410106 A    
C9    O21   1.348020 S    
C68   C76   1.414797 A    
N30   H43   1.044938 S    
C20   O31   1.348960 S    
N23   H30   1.044090 S    
C71   C95   1.411449 A    
C106  C113  1.425211 A    
C18   C90   1.416407 A    
C31   N24   1.434983 S    
C74   C82   1.420331 A    
O3    V4    1.982785 S    
O4    V3    1.982782 S    
C152  N40   1.437816 S    
C14   C78   1.420688 A    
N22   H28   1.045488 S    
N33   H49   1.045248 S    
N24   H31   1.044866 S    
C107  C123  1.417208 A    
C71   C128  1.421910 A    
C5    C100  1.498851 S    
C26   C34   1.414148 A    
N35   H53   1.045202 S    
C132  Cl28  1.776214 S    
C133  Cl29  1.773879 S    
C30   C38   1.414095 A    
C55   Cl15  1.768143 S    
C46   Cl6   1.769021 S    
C66   C74   1.415765 A    
C17   C89   1.418851 A    
N7    C63   1.450754 S    
C118  C149  1.418761 A    
C25   C33   1.417929 A    
O3    C2    1.324923 A    
C46   C54   1.410225 A    
N9    H2    1.045008 S    
N15   H14   1.045198 S    
C130  Cl26  1.774731 S    
O9    V1    1.990173 S    
O15   C7    1.329317 A    
C26   N17   1.434933 S    
C85   C149  1.409185 A    
O16   C8    1.331227 A    
C45   C53   1.407523 A    
C95   C144  1.412950 A    
C107  C131  1.418650 A    
C29   N22   1.434265 S    
O5    V1    1.983088 S    
C36   C100  1.418706 A    
N3    C59   1.450963 S    
N16   H16   1.044788 S    
N17   H18   1.044861 S    
C14   O26   1.347135 S    
C46   C102  1.419912 A    
C67   C91   1.416656 A    
C50   Cl10  1.768037 S    
C65   C89   1.414850 A    
N33   H50   1.045644 S    
C32   N23   1.434782 S    
C49   C57   1.407060 A    
C23   C95   1.412273 A    
N20   H24   1.044887 S    
C36   N11   1.436577 S    
N14   H12   1.045540 S    
O8    C5    1.325779 A    
C19   O32   1.348322 S    
C70   C78   1.414640 A    
C67   C75   1.412690 A    
C71   C79   1.415160 A    
O9    C1    1.330985 A    
C110  C134  1.416694 A    
N26   H36   1.045267 S    
C106  C130  1.418177 A    
N3    C19   1.368803 A    
C94   C141  1.412889 A    
N19   H21   1.044227 S    
N34   H51   1.045657 S    
C52   C60   1.407807 A    
C82   Cl18  1.773512 S    
C86   Cl22  1.773159 S    
C87   Cl23  1.773468 S    
C3    C102  1.498545 S    
N38   H59   1.045652 S    
C22   C94   1.412276 A    
O20   V2    1.756186 S    
C25   C57   1.406342 A    
N32   H48   1.045663 S    
O5    C8    1.324935 A    
C77   C85   1.415326 A    
O6    C7    1.325048 A    
C108  C132  1.416463 A    
C48   C104  1.421747 A    
C109  C133  1.418829 A    
N37   H57   1.045187 S    
C92   C139  1.412973 A    
C139  N27   1.435670 S    
C112  C136  1.418563 A    
C93   C142  1.422777 A    
C67   C124  1.422431 A    
C116  C124  1.418462 A    
N11   H5    1.044666 S    
C65   C122  1.422397 A    
C78   C86   1.419768 A    
C47   C103  1.419079 A    
C13   O25   1.348175 S    
C50   C58   1.408188 A    
N25   H33   1.045568 S    
