data_mof_unit_37209.cif
_audit_creation_date              2012-12-10T17:05:10-0500
_audit_creation_method            fapswitch 2.2
_symmetry_space_group_name_H-M    P1
_symmetry_Int_Tables_number       1
_space_group_crystal_system       triclinic
_cell_length_a                    10.75724
_cell_length_b                    11.024539
_cell_length_c                    9.879724
_cell_angle_alpha                 110.949848
_cell_angle_beta                  98.554264
_cell_angle_gamma                 91.806426
_cell_volume                      1077.48326614

loop_
_atom_site_label
_atom_site_type_symbol
_atom_type_description
_atom_site_fract_x
_atom_site_fract_y
_atom_site_fract_z
_atom_type_partial_charge
C1    C     C_R   0.489770 0.254184 0.440748 0.870585
C2    C     C_3   0.877061 0.496226 0.499027 0.046912
C3    C     C_3   0.926530 0.621499 0.479736 -0.372223
C4    C     C_3   0.904164 0.374925 0.368538 -0.191680
C5    C     C_2   0.480655 0.114634 0.407717 -0.302865
C6    C     C_2   0.493995 0.069642 0.516998 -0.144162
C7    C     C_2   0.511516 0.885267 0.592811 -0.348611
C8    C     C_2   0.484868 0.930404 0.484553 -0.102449
C9    C     C_2   0.512677 0.509147 0.080413 0.044119
C10   C     C_2   0.486699 0.491971 0.919436 -0.107929
C11   C     C_R   0.259822 0.498034 0.499652 0.744455
C12   C     C_R   0.508093 0.745766 0.559320 0.861119
C13   C     C_R   0.739634 0.499019 0.499595 0.769840
C14   C     C_3   0.091950 0.497489 0.646952 -0.410511
C15   C     C_3   0.949422 0.495773 0.647695 -0.330920
C16   C     C_3   0.070606 0.623066 0.477685 -0.151414
C17   C     C_3   0.048925 0.367930 0.375485 -0.149637
C18   C     C_3   0.121025 0.496696 0.496690 -0.016678
Cu1   Cu    Cu3+1 0.522160 0.521810 0.644910 0.957088
Cu2   Cu    Cu3+1 0.477840 0.478190 0.355090 0.972703
H1    H     H_    0.140434 0.585973 0.738756 0.194991
H2    H     H_    0.863356 0.389560 0.265497 0.100589
H3    H     H_    0.872472 0.629317 0.379246 0.212480
H4    H     H_    0.457759 0.864495 0.370760 0.216062
H5    H     H_    0.513395 0.135696 0.631452 0.178526
H6    H     H_    0.537140 0.951606 0.706654 0.154948
H7    H     H_    0.462267 0.048237 0.293462 0.166839
H8    H     H_    0.408212 0.423966 0.848025 0.156573
H9    H     H_    0.631335 0.617528 0.929139 0.219421
H10   H     H_    0.127733 0.411337 0.668663 0.186948
H11   H     H_    0.368573 0.384161 0.067719 0.206077
H12   H     H_    0.916006 0.409246 0.669496 0.222508
H13   H     H_    0.931423 0.583336 0.740387 0.182799
H14   H     H_    0.116493 0.707880 0.576116 0.114402
H15   H     H_    0.908089 0.708820 0.572485 0.158533
H16   H     H_    0.078195 0.286372 0.411222 0.196627
N1    N     N_2   0.444530 0.445420 0.137360 -0.318912
N2    N     N_2   0.555520 0.554510 0.862630 -0.281071
O1    O     O_R   0.511820 0.332340 0.577400 -0.579088
O2    O     O_R   0.474400 0.295500 0.332650 -0.561088
O3    O     O_R   0.336400 0.518400 0.622370 -0.581013
O4    O     O_R   0.298980 0.481560 0.377620 -0.576188
O5    O     O_R   0.525600 0.704500 0.667350 -0.569714
O6    O     O_R   0.488180 0.667660 0.422600 -0.554147
O7    O     O_R   0.701020 0.518440 0.622380 -0.575646
O8    O     O_R   0.663600 0.481600 0.377630 -0.619204
C19   C     C_2   0.107458 0.650570 0.348067 0.351053
H17   H     H_    0.204903 0.682851 0.352841 0.096859
O9    O     O_2   0.030465 0.640632 0.239617 -0.562585
C20   C     C_2   0.623471 0.597336 0.171783 0.493935
H18   H     H_    0.713398 0.557845 0.184178 0.045123
O10   O     O_2   0.617463 0.715030 0.221625 -0.562423
C21   C     C_2   0.080835 0.334622 0.222783 0.360434
H19   H     H_    0.055111 0.395280 0.159629 0.125133
O11   O     O_2   0.134334 0.237358 0.167890 -0.538167
C22   C     C_2   0.838220 0.247789 0.359154 0.355333
H20   H     H_    0.759598 0.200154 0.270770 0.083752
O12   O     O_2   0.870159 0.198813 0.450441 -0.538439

loop_
_geom_bond_atom_site_label_1
_geom_bond_atom_site_label_2
_ccdc_geom_bond_type
H9    N2    S    
Cu2   O4    S    
Cu1   O7    S    
C11   C18   S    
C11   O3    A    
C8    H4    S    
C17   H16   S    
Cu2   N1    S    
C22   O12   D    
C4    H2    S    
C9    C10   S    
C14   C18   S    
C3    H3    S    
C19   H17   S    
C3    H15   S    
C10   N2    D    
Cu1   Cu2   S    
C9    N1    D    
C17   C18   S    
C15   H12   S    
C19   O9    D    
C5    H7    S    
C21   H19   S    
C4    C22   S    
C13   O7    A    
C2    C15   S    
C5    C6    D    
C7    H6    S    
Cu1   O1    S    
C14   H10   S    
C1    C5    S    
C4    C17   S    
C16   C19   S    
Cu2   O6    S    
Cu1   O5    S    
C2    C3    S    
C12   O5    A    
C21   O11   D    
C7    C12   S    
Cu2   O2    S    
C6    H5    S    
C1    O1    A    
C2    C4    S    
C17   C21   S    
C7    C8    D    
Cu1   N2    S    
C22   H20   S    
C14   H1    S    
C11   O4    A    
C16   C18   S    
C10   H8    S    
C20   O10   D    
C2    C13   S    
C13   O8    A    
C12   O6    A    
C6    C8    S    
C20   H18   S    
C1    O2    A    
C16   H14   S    
C14   C15   S    
C15   H13   S    
Cu2   O8    S    
C3    C16   S    
Cu1   O3    S    
H11   N1    S    
C9    C20   S    
