data_mof_unit_54666.cif
_audit_creation_date              2013-03-05T15:52:30-0500
_audit_creation_method            fapswitch 2.2
_symmetry_space_group_name_H-M    P1
_symmetry_Int_Tables_number       1
_space_group_crystal_system       triclinic
_cell_length_a                    11.19036
_cell_length_b                    11.345652
_cell_length_c                    18.677242
_cell_angle_alpha                 89.943129
_cell_angle_beta                  89.984912
_cell_angle_gamma                 58.170581
_cell_volume                      2014.70648113

loop_
_atom_site_label
_atom_site_type_symbol
_atom_site_description
_atom_site_fract_x
_atom_site_fract_y
_atom_site_fract_z
_atom_type_partial_charge
O1    O     O_R   0.748670 0.497520 0.427970 -0.513394
O2    O     O_R   0.476470 0.723930 0.429450 -0.489483
C1    C     C_R   0.355754 0.776210 0.399972 0.523261
O3    O     O_R   0.264730 0.744140 0.416740 -0.548032
O4    O     O_R   0.309440 0.472410 0.418220 -0.496529
C2    C     C_R   0.385415 0.357069 0.386430 0.533616
O5    O     O_R   0.501630 0.260530 0.414310 -0.531910
O6    O     O_R   0.727920 0.305730 0.428950 -0.508281
C3    C     C_R   0.784921 0.373803 0.405787 0.520724
O7    O     O_R   0.738670 0.496020 0.588600 -0.524170
O8    O     O_R   0.467190 0.722540 0.578350 -0.509727
C4    C     C_R   0.347001 0.761262 0.606336 0.545485
O9    O     O_R   0.254720 0.742640 0.577370 -0.520493
O10   O     O_R   0.300170 0.471020 0.567120 -0.508504
C5    C     C_R   0.368479 0.350925 0.594928 0.557023
O11   O     O_R   0.491630 0.259030 0.574940 -0.523681
O12   O     O_R   0.718640 0.304340 0.577850 -0.513311
C6    C     C_R   0.763932 0.375875 0.609321 0.545612
Cr1   Cr    Cr6+3 0.601740 0.606840 0.505840 1.011311
Cr2   Cr    Cr6+3 0.291500 0.601560 0.495070 1.012864
Cr3   Cr    Cr6+3 0.606780 0.291630 0.499130 0.999934
O13   O     O_3   0.500010 0.500010 0.500020 -0.259866
C7    C     C_R   0.756276 0.815215 0.100971 -0.130712
C8    C     C_R   0.820932 0.888432 0.116171 -0.014395
C9    C     C_R   0.745860 0.009735 0.157564 -0.147103
C10   C     C_R   0.599798 0.071060 0.173615 0.039671
H1    H     H_    0.542165 0.139259 0.306663 0.138439
C11   C     C_R   0.377016 0.325242 0.158479 0.006639
C12   C     C_R   0.470980 0.229170 0.274648 -0.126711
C13   C     C_R   0.492814 0.218296 0.200596 -0.000684
C14   C     C_R   0.126207 0.695572 0.315490 -0.030429
C15   C     C_R   0.004753 0.816238 0.340539 -0.098029
C16   C     C_R   0.554545 0.978759 0.172520 0.227378
C17   C     C_R   0.630997 0.853587 0.134062 -0.081604
C18   C     C_R   0.271891 0.446228 0.191134 -0.179482
C19   C     C_R   0.255135 0.458182 0.264715 -0.043403
C20   C     C_R   0.873262 0.833220 0.330727 -0.122632
C21   C     C_R   0.863358 0.735594 0.290708 -0.101138
C22   C     C_R   0.985962 0.617302 0.266176 -0.117147
C23   C     C_R   0.120713 0.585134 0.289067 0.018680
C24   C     C_R   0.361375 0.348041 0.308597 -0.001584
H2    H     H_    0.594106 0.785867 0.125098 0.122985
H3    H     H_    0.010603 0.898258 0.365889 0.123890
H4    H     H_    0.804952 0.722426 0.068651 0.115886
H5    H     H_    0.812255 0.037365 0.183488 0.116288
H6    H     H_    0.225223 0.687911 0.310105 0.143761
H7    H     H_    0.188860 0.526178 0.158910 0.130169
H8    H     H_    0.779173 0.926219 0.349291 0.110679
H9    H     H_    0.761244 0.754623 0.275648 0.131984
H10   H     H_    0.972409 0.561547 0.224153 0.121356
C25   C     C_R   0.953326 0.293828 0.195576 0.003057
C26   C     C_R   0.874203 0.244204 0.221729 0.003209
C27   C     C_R   0.850512 0.238189 0.293693 -0.006726
C28   C     C_R   0.975742 0.349245 0.320085 -0.148285
C29   C     C_R   0.020945 0.328447 0.247341 -0.162440
C30   C     C_3   0.733820 0.281467 0.199371 -0.274290
C31   C     C_3   0.715522 0.251006 0.276466 -0.248832
C32   C     C_R   0.877255 0.314606 0.342188 0.000654
H11   H     H_    0.012182 0.396843 0.357189 0.144767
H12   H     H_    0.101612 0.346569 0.230829 0.135864
H13   H     H_    0.728037 0.231403 0.150656 0.148832
H14   H     H_    0.673717 0.388089 0.186541 0.145244
H15   H     H_    0.624855 0.336792 0.304304 0.157128
H16   H     H_    0.731111 0.147689 0.286238 0.129928
C33   C     C_R   0.318038 0.864868 0.180953 0.058065
C34   C     C_R   0.443754 0.771131 0.211260 0.003459
C35   C     C_R   0.460223 0.757366 0.284420 0.057343
C36   C     C_R   0.217005 0.933908 0.301138 -0.160428
C37   C     C_R   0.201484 0.943840 0.226968 -0.122329
C38   C     C_3   0.525172 0.623733 0.197072 -0.334864
C39   C     C_3   0.547277 0.604297 0.276962 -0.258823
C40   C     C_R   0.346073 0.833785 0.330137 0.026402
H17   H     H_    0.127437 0.997059 0.335200 0.116749
H18   H     H_    0.099674 0.015089 0.205038 0.147449
H19   H     H_    0.622759 0.594206 0.167045 0.137816
H20   H     H_    0.459354 0.585462 0.174816 0.131190
H21   H     H_    0.493748 0.555717 0.301982 0.126065
H22   H     H_    0.657802 0.563134 0.292901 0.165483
C41   C     C_R   0.302053 0.308598 0.809459 0.026118
C42   C     C_R   0.378607 0.190575 0.766701 0.048394
C43   C     C_R   0.384970 0.199809 0.693856 0.018274
C44   C     C_R   0.220936 0.447296 0.702183 -0.158353
C45   C     C_R   0.215472 0.436916 0.776456 -0.168412
C46   C     C_3   0.529335 0.076190 0.772343 -0.265657
C47   C     C_3   0.535919 0.082438 0.691894 -0.272495
C48   C     C_R   0.316133 0.329968 0.661249 0.018510
H23   H     H_    0.163175 0.549363 0.678306 0.133976
H24   H     H_    0.151800 0.529466 0.808056 0.110475
H25   H     H_    0.543028 0.978141 0.792012 0.139179
H26   H     H_    0.594957 0.109013 0.800210 0.133328
H27   H     H_    0.611547 0.111482 0.674628 0.158733
H28   H     H_    0.548779 0.989380 0.664738 0.129821
C49   C     C_R   0.853518 0.319263 0.828528 0.022410
C50   C     C_R   0.895759 0.392824 0.786446 0.053562
C51   C     C_R   0.886168 0.396513 0.713474 0.025042
C52   C     C_R   0.804544 0.237680 0.719422 -0.166910
C53   C     C_R   0.815944 0.233796 0.794249 -0.179105
C54   C     C_3   0.855261 0.540541 0.792088 -0.265197
C55   C     C_3   0.848611 0.544687 0.711418 -0.269807
C56   C     C_R   0.828647 0.328623 0.679018 0.018278
H29   H     H_    0.765555 0.178970 0.694192 0.128224
H30   H     H_    0.790899 0.168664 0.825019 0.116297
H31   H     H_    0.939712 0.552327 0.814543 0.147840
H32   H     H_    0.751046 0.606689 0.817947 0.130363
H33   H     H_    0.741363 0.619055 0.691865 0.160164
H34   H     H_    0.932015 0.555652 0.686165 0.135009
C57   C     C_R   0.319018 0.815974 0.832036 0.018508
C58   C     C_R   0.226228 0.790291 0.794874 0.015984
C59   C     C_R   0.232848 0.778813 0.721299 0.032847
C60   C     C_R   0.438556 0.794721 0.720357 -0.155052
C61   C     C_R   0.435303 0.800741 0.794988 -0.157694
C62   C     C_3   0.069096 0.866199 0.794281 -0.269284
C63   C     C_3   0.076815 0.855281 0.713431 -0.274936
C64   C     C_R   0.331032 0.793109 0.682327 0.023426
H35   H     H_    0.522149 0.796140 0.692434 0.117217
H36   H     H_    0.515734 0.807568 0.823055 0.114777
H37   H     H_    0.020194 0.974037 0.813562 0.174708
H38   H     H_    0.028841 0.805033 0.819540 0.121878
H39   H     H_    0.038963 0.789555 0.691883 0.129008
H40   H     H_    0.033870 0.956840 0.686012 0.144691
O14   O     O_R   0.186620 0.923750 0.087000 -0.568847
O15   O     O_R   0.957350 0.194160 0.084660 -0.512044
C65   C     C_R   0.976388 0.287495 0.117453 0.559803
O16   O     O_R   0.935120 0.407280 0.085350 -0.532995
O17   O     O_R   0.203800 0.365060 0.067090 -0.534685
C66   C     C_R   0.333212 0.293723 0.090286 0.540654
O18   O     O_R   0.417470 0.174910 0.067830 -0.506818
O19   O     O_R   0.375160 0.946380 0.070880 -0.495803
C67   C     C_R   0.304270 0.899607 0.105131 0.529962
O20   O     O_R   0.160500 0.919670 0.926690 -0.543761
O21   O     O_R   0.933140 0.190380 0.936050 -0.502558
C68   C     C_R   0.887827 0.308376 0.903896 0.552198
O22   O     O_R   0.909010 0.403210 0.925030 -0.521697
O23   O     O_R   0.179590 0.361290 0.918480 -0.512821
C69   C     C_R   0.295226 0.286905 0.884986 0.543367
O24   O     O_R   0.391360 0.170840 0.907510 -0.522541
O25   O     O_R   0.350950 0.942600 0.922260 -0.507058
C70   C     C_R   0.278168 0.891180 0.899456 0.536206
Cr4   Cr    Cr6+3 0.062440 0.063060 0.008240 0.968236
Cr5   Cr    Cr6+3 0.062950 0.375000 0.998920 0.971286
Cr6   Cr    Cr6+3 0.374550 0.061770 0.992470 1.014137
O26   O     O_3   0.166650 0.166610 0.999880 -0.264188
C71   C     C_3   0.970392 0.838372 0.093137 -0.250238
C72   C     C_3   0.039504 0.709523 0.044303 -0.300190
C73   C     C_3   0.194679 0.654884 0.030204 -0.420110
H41   H     H_    0.206039 0.728191 0.996901 0.199826
H42   H     H_    0.253130 0.638867 0.080847 0.139043
H43   H     H_    0.243136 0.554997 0.000860 0.151360
H44   H     H_    0.033164 0.624997 0.069848 0.181431
H45   H     H_    0.982801 0.735199 0.992278 0.142611
H46   H     H_    0.967488 0.924681 0.063531 0.194716
H47   H     H_    0.035407 0.815978 0.142172 0.157043
N1    N     N_R   0.439812 0.006340 0.217230 -0.306361
O27   O     O_R   0.315410 0.116072 0.208241 -0.000097
O28   O     O_R   0.315427 0.116087 0.208220 -0.000097

loop_
_geom_bond_atom_site_label_1
_geom_bond_atom_site_label_2
_geom_bond_distance
_ccdc_geom_bond_type
C41   C45   1.396029 A    
C49   C50   1.397274 A    
C49   C53   1.399423 A    
H1    C12   1.083795 S    
C25   C65   1.476898 S    
C1    C40   1.436475 S    
C18   C19   1.384076 A    
C17   H2    1.060013 S    
C42   C46   1.493723 S    
C18   H7    1.076366 S    
O19   C67   1.327863 A    
C73   H41   1.097836 S    
C47   H27   1.105712 S    
C65   O16   1.325255 A    
O4    Cr2   1.985282 S    
C34   C38   1.445902 S    
C58   C59   1.378752 A    
O8    Cr1   1.934419 S    
C12   C13   1.398661 A    
C46   H26   1.112584 S    
Cr3   O13   2.009444 S    
Cr5   O26   2.010701 S    
O15   Cr4   1.947023 S    
C3    C32   1.482780 S    
O23   Cr5   1.941734 S    
C62   H37   1.104820 S    
C42   C43   1.369182 A    
Cr4   O26   2.051628 S    
C51   C55   1.502971 S    
C50   C54   1.491462 S    
C8    C71   1.517600 S    
C5    O11   1.269070 A    
C14   C23   1.378342 A    
C35   C40   1.394708 A    
O18   Cr6   2.124563 S    
C60   C61   1.395165 A    
C72   H45   1.111950 S    
C63   H39   1.109656 S    
C11   C18   1.392153 A    
C36   C37   1.393215 A    
C2    C24   1.491872 S    
C54   H31   1.104753 S    
C57   C58   1.401696 A    
C38   C39   1.509388 S    
N1    O28   1.299140 A    
C49   C68   1.447106 S    
O19   Cr6   1.960987 S    
C60   C64   1.405800 A    
C25   C29   1.405793 A    
C43   C48   1.394132 A    
C59   C63   1.491662 S    
C30   H14   1.055690 S    
O24   Cr6   2.079950 S    
C71   H46   1.109541 S    
C45   H24   1.081876 S    
N1    O27   1.299135 A    
C52   H29   1.078616 S    
C19   C24   1.441576 A    
C6    C56   1.447753 S    
O20   Cr4   2.071653 S    
C62   C63   1.513964 S    
C73   H42   1.109113 S    
C47   H28   1.110602 S    
C11   C66   1.475301 S    
C31   H15   1.098261 S    
C4    C64   1.452481 S    
C28   H11   1.082282 S    
O17   Cr5   1.982773 S    
C21   C22   1.397209 A    
C55   H33   1.103251 S    
O1    Cr1   2.051416 S    
C25   C26   1.365500 A    
O10   Cr2   1.964283 S    
C69   O24   1.254284 A    
Cr1   O13   2.057317 S    
O1    C3    1.306487 A    
C8    C9    1.407046 A    
C22   C23   1.417507 A    
C21   H9    1.082268 S    
C27   C31   1.474783 S    
C51   C56   1.394968 A    
O6    C3    1.307425 A    
C36   H17   1.079720 S    
C44   C48   1.413216 A    
C14   H6    1.069467 S    
O12   Cr3   1.985236 S    
C7    H4    1.079644 S    
C58   C62   1.495442 S    
C20   C21   1.388863 A    
C63   H40   1.111657 S    
C10   C16   1.383080 A    
C14   C15   1.406650 A    
C19   C23   1.503268 S    
O7    Cr1   2.069620 S    
C36   C40   1.392273 A    
C7    C17   1.375939 A    
C52   C53   1.401935 A    
O12   C6    1.302339 A    
C37   H18   1.071158 S    
C15   C20   1.391710 A    
C46   C47   1.507786 S    
C20   H8    1.082054 S    
C61   H36   1.079235 S    
C59   C64   1.396647 A    
C5    C48   1.442213 S    
C71   H47   1.112450 S    
Cr2   O13   1.986104 S    
C10   C13   1.539359 S    
C38   H20   1.114290 S    
O17   C66   1.305100 A    
C44   H23   1.080405 S    
C30   C31   1.519288 S    
C1    O3    1.287844 A    
O20   C70   1.283770 A    
C9    H5    1.063435 S    
C39   H21   1.108407 S    
C73   H43   1.109790 S    
C26   C27   1.378478 A    
C31   H16   1.105299 S    
C28   C32   1.412729 A    
C55   H34   1.109569 S    
O25   Cr6   1.999433 S    
C28   C29   1.425435 A    
O9    Cr2   2.098551 S    
C12   C24   1.407766 A    
O2    Cr1   1.948984 S    
O10   C5    1.269180 A    
C57   C61   1.401621 A    
O16   Cr5   2.057572 S    
C53   H30   1.082782 S    
O14   C67   1.242042 A    
C72   C73   1.527616 S    
O21   C68   1.300975 A    
O6    Cr3   1.951601 S    
C33   C67   1.455867 S    
C27   C32   1.391774 A    
O11   Cr3   2.074310 S    
C2    O5    1.287967 A    
C41   C69   1.440620 S    
O25   C70   1.298827 A    
O23   C69   1.275451 A    
O14   Cr4   2.067092 S    
C57   C70   1.453643 S    
C11   C13   1.452714 A    
O2    C1    1.278412 A    
C9    C10   1.430433 A    
C16   N1    1.421215 S    
C34   C35   1.376526 A    
O5    Cr3   2.111582 S    
Cr6   O26   1.981858 S    
C62   H38   1.111778 S    
O4    C2    1.271061 A    
O7    C6    1.296289 A    
C66   O18   1.241908 A    
C33   C37   1.418047 A    
C52   C56   1.413769 A    
C15   H3    1.076820 S    
C16   C17   1.408853 A    
C68   O22   1.280465 A    
C35   C39   1.483356 S    
C33   C34   1.360767 A    
C50   C51   1.366030 A    
C72   H44   1.105976 S    
O21   Cr4   1.946976 S    
C7    C8    1.388763 A    
C41   C42   1.398756 A    
O3    Cr2   2.081177 S    
C26   C30   1.456168 S    
C22   H10   1.068386 S    
C4    O9    1.278420 A    
O22   Cr5   2.096027 S    
C54   C55   1.507997 S    
C46   H25   1.102424 S    
C38   H19   1.110616 S    
C30   H13   1.092934 S    
C44   C45   1.396129 A    
O15   C65   1.334624 A    
C29   H12   1.071318 S    
C60   H35   1.078374 S    
C54   H32   1.110756 S    
C39   H22   1.107749 S    
C43   C47   1.501801 S    
C71   C72   1.541709 S    
O8    C4    1.285298 A    
