data_mof_unit_38125.cif
_audit_creation_date              2012-12-10T17:42:17-0500
_audit_creation_method            fapswitch 2.2
_symmetry_space_group_name_H-M    P1
_symmetry_Int_Tables_number       1
_space_group_crystal_system       triclinic
_cell_length_a                    15.083053
_cell_length_b                    13.690756
_cell_length_c                    10.730812
_cell_angle_alpha                 89.994626
_cell_angle_beta                  90.018559
_cell_angle_gamma                 90.028601
_cell_volume                      2215.89508904

loop_
_atom_site_label
_atom_site_type_symbol
_atom_type_description
_atom_site_fract_x
_atom_site_fract_y
_atom_site_fract_z
_atom_type_partial_charge
C1    C     C_R   0.328448 0.499980 0.499995 0.811571
C2    C     C_R   0.046275 0.677975 0.497489 -0.205032
C3    C     C_R   0.092899 0.589437 0.498200 0.104751
C4    C     C_R   0.499950 0.499838 0.259635 0.767975
C5    C     C_R   0.046430 0.499966 0.498308 0.067041
C6    C     C_R   0.092799 0.410482 0.498928 0.106055
C7    C     C_R   0.046062 0.321956 0.498943 -0.211807
C8    C     C_R   0.953623 0.321970 0.498614 -0.176435
C9    C     C_R   0.185265 0.588805 0.498862 -0.243712
C10   C     C_R   0.231588 0.499953 0.499561 -0.080985
C11   C     C_R   0.185177 0.411100 0.499576 -0.245225
C12   C     C_3   0.585068 0.549190 0.928167 -0.360199
C13   C     C_R   0.452380 0.793869 0.587037 0.008294
C14   C     C_R   0.451928 0.206080 0.586518 0.008756
C15   C     C_R   0.546841 0.792474 0.410637 0.119595
C16   C     C_R   0.549306 0.207679 0.413251 0.113357
C17   C     C_R   0.547072 0.896135 0.404262 -0.193549
C18   C     C_R   0.552796 0.103990 0.410155 -0.194035
C19   C     C_R   0.671522 0.500016 0.499554 0.824916
C20   C     C_R   0.500925 0.948262 0.497103 0.026207
C21   C     C_R   0.501405 0.051805 0.497540 0.028071
C22   C     C_R   0.452082 0.896725 0.588189 0.044318
C23   C     C_R   0.814655 0.411164 0.498688 -0.207284
C24   C     C_R   0.451622 0.103252 0.587640 0.047029
C25   C     C_R   0.592333 0.948561 0.309137 0.341992
C26   C     C_R   0.604470 0.051535 0.321663 0.337982
C27   C     C_R   0.402946 0.051122 0.677157 -0.186925
C28   C     C_R   0.403500 0.948801 0.677780 -0.184868
C29   C     C_R   0.499884 0.499849 0.740402 0.758837
C30   C     C_3   0.418209 0.555772 0.071897 -0.359088
C31   C     C_3   0.496015 0.392884 0.071388 -0.352994
C32   C     C_3   0.417814 0.555218 0.928111 -0.378558
C33   C     C_3   0.496541 0.392903 0.928714 -0.355630
C34   C     C_R   0.768352 0.500026 0.498646 -0.093434
C35   C     C_3   0.585552 0.548201 0.072005 -0.355996
C36   C     C_3   0.499914 0.499232 0.121792 0.115029
C37   C     C_3   0.499833 0.499304 0.878281 0.129007
C38   C     C_R   0.814750 0.588871 0.497735 -0.224651
C39   C     C_R   0.907117 0.589473 0.497521 0.103428
C40   C     C_R   0.953485 0.499983 0.497982 0.058887
C41   C     C_R   0.907012 0.410514 0.498332 0.097342
C42   C     C_R   0.953841 0.677993 0.497114 -0.185580
Cu1   Cu    Cu3+1 0.499990 0.597420 0.500010 0.947083
Cu2   Cu    Cu3+1 0.499990 0.402580 0.500010 0.945861
H1    H     H_    0.419562 0.632645 0.105637 0.204657
H2    H     H_    0.585631 0.749472 0.346417 0.187692
H3    H     H_    0.583868 0.250984 0.344803 0.190378
H4    H     H_    0.364654 0.089545 0.747080 0.137350
H5    H     H_    0.365572 0.910341 0.748109 0.140671
H6    H     H_    0.356079 0.521730 0.107254 0.151804
H7    H     H_    0.434863 0.355767 0.105179 0.173693
H8    H     H_    0.355893 0.520065 0.893762 0.152118
H9    H     H_    0.435983 0.355053 0.894070 0.164215
H10   H     H_    0.418107 0.631838 0.893370 0.179882
H11   H     H_    0.555088 0.350958 0.895104 0.194565
H12   H     H_    0.553909 0.350253 0.105861 0.207990
H13   H     H_    0.590871 0.624340 0.107290 0.226035
H14   H     H_    0.644820 0.507748 0.106001 0.164236
H15   H     H_    0.588704 0.626043 0.894662 0.194634
H16   H     H_    0.644777 0.510452 0.892563 0.159634
H17   H     H_    0.778968 0.342400 0.499298 0.192079
H18   H     H_    0.779136 0.657660 0.497419 0.167729
H19   H     H_    0.918911 0.747151 0.496678 0.160685
H20   H     H_    0.648110 0.925328 0.975894 0.370078
H21   H     H_    0.809872 0.073831 0.138237 0.373231
H22   H     H_    0.081283 0.747122 0.497323 0.149750
H23   H     H_    0.220943 0.657590 0.498824 0.158666
H24   H     H_    0.220792 0.342316 0.500112 0.157192
H25   H     H_    0.080987 0.252798 0.499319 0.149777
H26   H     H_    0.918596 0.252827 0.498728 0.173711
H27   H     H_    0.414814 0.753519 0.655907 0.123178
H28   H     H_    0.413664 0.246387 0.654617 0.120701
N1    N     N_R   0.499930 0.743810 0.499950 -0.204740
N2    N     N_R   0.499930 0.256190 0.499950 -0.204124
O1    O     O_R   0.370250 0.582280 0.500040 -0.585733
O2    O     O_2   0.549513 0.814587 0.135539 -0.361527
O3    O     O_3   0.629139 0.965840 0.047555 -0.446675
O4    O     O_2   0.652130 0.164906 0.128870 -0.293157
O5    O     O_2   0.734981 0.186347 0.323287 -0.347458
O6    O     O_3   0.769670 0.034346 0.191060 -0.445502
O7    O     O_R   0.370250 0.417720 0.500040 -0.588445
O8    O     O_R   0.499970 0.582270 0.317700 -0.582205
O9    O     O_R   0.499970 0.417730 0.317700 -0.597739
O10   O     O_R   0.629730 0.582260 0.499980 -0.589456
O11   O     O_R   0.629730 0.417740 0.499980 -0.576887
O12   O     O_R   0.500000 0.582270 0.682320 -0.590651
O13   O     O_R   0.500000 0.417730 0.682320 -0.591545
O14   O     O_2   0.707052 0.834526 0.184899 -0.282649
S1    S     S_3+6 0.620609 0.887412 0.167584 0.019053
S2    S     S_3+6 0.691123 0.112819 0.239351 0.025713

loop_
_geom_bond_atom_site_label_1
_geom_bond_atom_site_label_2
_ccdc_geom_bond_type
C27   H4    S    
C33   H11   S    
C4    C36   S    
Cu1   N1    S    
C18   C21   A    
H20   O3    S    
C30   H1    S    
C35   C36   S    
C18   C26   A    
C24   C27   A    
Cu2   O9    S    
C7    C8    A    
O4    S2    D    
O3    S1    S    
C35   H14   S    
C16   N2    A    
C14   N2    A    
C38   C39   A    
C1    O7    A    
C17   C20   A    
C14   C24   A    
C12   C37   S    
C32   H8    S    
O5    S2    D    
C12   H15   S    
C31   C33   S    
C31   H12   S    
Cu2   O13   S    
C9    C10   A    
O2    S1    D    
C30   H6    S    
H21   O6    S    
C22   C28   A    
C33   H9    S    
Cu1   O10   S    
C14   H28   S    
C19   O11   A    
C16   H3    S    
C32   H10   S    
C39   C42   A    
Cu1   O1    S    
C1    O1    A    
C8    C41   A    
Cu2   O7    S    
C6    C11   A    
C13   H27   S    
C3    C5    A    
C25   C26   A    
C33   C37   S    
Cu1   Cu2   S    
C9    H23   S    
C3    C9    A    
C28   H5    S    
C23   C34   A    
C32   C37   S    
O14   S1    D    
C12   C35   S    
Cu2   N2    S    
C29   O12   A    
C40   C41   A    
C15   N1    A    
C13   N1    A    
C21   C24   A    
C20   C22   A    
C19   O10   A    
C39   C40   A    
C11   H24   S    
C15   C17   A    
C34   C38   A    
Cu1   O12   S    
C25   S1    S    
C1    C10   S    
C31   H7    S    
C2    H22   S    
C19   C34   S    
C7    H25   S    
C6    C7    A    
C26   S2    S    
C8    H26   S    
C23   C41   A    
C30   C36   S    
C35   H13   S    
C17   C25   A    
C2    C3    A    
C30   C32   S    
C5    C6    A    
C4    O9    A    
C2    C42   A    
C13   C22   A    
O6    S2    S    
C29   O13   A    
C10   C11   A    
C12   H16   S    
C23   H17   S    
C4    O8    A    
C20   C21   A    
C16   C18   A    
C5    C40   A    
C29   C37   S    
C27   C28   A    
Cu1   O8    S    
C31   C36   S    
C15   H2    S    
C42   H19   S    
Cu2   O11   S    
C38   H18   S    
