data_mof_unit_11182.cif
_audit_creation_date              2013-03-05T15:40:01-0500
_audit_creation_method            fapswitch 2.2
_symmetry_space_group_name_H-M    P1
_symmetry_Int_Tables_number       1
_space_group_crystal_system       triclinic
_cell_length_a                    24.536014
_cell_length_b                    17.267757
_cell_length_c                    15.681893
_cell_angle_alpha                 89.999984
_cell_angle_beta                  129.102984
_cell_angle_gamma                 90.000021
_cell_volume                      5155.93858543

loop_
_atom_site_label
_atom_site_type_symbol
_atom_site_description
_atom_site_fract_x
_atom_site_fract_y
_atom_site_fract_z
_atom_type_partial_charge
C1    C     C_R   0.334432 0.391540 0.201474 -0.083922
C2    C     C_R   0.665568 0.391540 0.798526 -0.083922
C3    C     C_R   0.850335 0.860761 0.241471 -0.073711
C4    C     C_R   0.149665 0.860761 0.758529 -0.073712
H1    H     H_    0.281571 0.392919 0.172779 0.171547
H2    H     H_    0.718429 0.392919 0.827222 0.171548
H3    H     H_    0.802269 0.845923 0.225494 0.162043
H4    H     H_    0.197731 0.845923 0.774507 0.162043
N1    N     N_R   0.389060 0.424180 0.294540 -0.059603
N2    N     N_R   0.610940 0.424180 0.705460 -0.059603
N3    N     N_R   0.889060 0.924180 0.294540 -0.047936
N4    N     N_R   0.110940 0.924180 0.705460 -0.047936
C5    C     C_R   0.608640 0.379671 0.410557 0.304734
C6    C     C_R   0.391360 0.379671 0.589443 0.304735
C7    C     C_R   0.112610 0.888670 0.410254 0.245565
C8    C     C_R   0.887389 0.888672 0.589746 0.245562
N5    N     N_R   0.579670 0.423790 0.443360 -0.119148
N6    N     N_R   0.420330 0.423790 0.556640 -0.119148
N7    N     N_R   0.079670 0.923790 0.443360 -0.118868
N8    N     N_R   0.920330 0.923790 0.556640 -0.118868
C9    C     C_R   0.682489 0.382681 0.593141 0.309010
C10   C     C_R   0.317511 0.382681 0.406860 0.309009
C11   C     C_R   0.185766 0.889955 0.592338 0.273236
C12   C     C_R   0.814233 0.889956 0.407663 0.273238
N9    N     N_R   0.625470 0.423490 0.556600 -0.117070
N10   N     N_R   0.374530 0.423490 0.443400 -0.117070
N11   N     N_R   0.125470 0.923490 0.556600 -0.117327
N12   N     N_R   0.874530 0.923490 0.443400 -0.117327
C13   C     C_R   0.575181 0.389775 0.798286 -0.058595
C14   C     C_R   0.424818 0.389776 0.201714 -0.058595
C15   C     C_R   0.059068 0.859768 0.758472 -0.052080
C16   C     C_R   0.940932 0.859768 0.241528 -0.052089
N13   N     N_R   0.555250 0.423100 0.705420 -0.065483
N14   N     N_R   0.444750 0.423100 0.294580 -0.065483
N15   N     N_R   0.055250 0.923100 0.705420 -0.048603
N16   N     N_R   0.944750 0.923100 0.294580 -0.048605
C17   C     C_R   0.355421 0.369789 0.141329 0.063969
C18   C     C_R   0.644579 0.369789 0.858671 0.063969
C19   C     C_R   0.882789 0.818426 0.209464 0.057952
C20   C     C_R   0.117211 0.818426 0.790536 0.057950
C21   C     C_R   0.673554 0.353911 0.503037 -0.175470
C22   C     C_R   0.326446 0.353911 0.496963 -0.175470
C23   C     C_R   0.178768 0.865001 0.502182 -0.167319
C24   C     C_R   0.821231 0.865003 0.497818 -0.167319
C25   C     C_R   0.339247 0.643570 0.407005 -0.077697
C26   C     C_R   0.660753 0.643570 0.592995 -0.077697
C27   C     C_R   0.835383 0.140659 0.407576 -0.082660
C28   C     C_R   0.164617 0.140659 0.592425 -0.082661
N17   N     N_R   0.375210 0.577180 0.443400 -0.046654
N18   N     N_R   0.624790 0.577180 0.556600 -0.046654
N19   N     N_R   0.875210 0.077180 0.443400 -0.045966
N20   N     N_R   0.124790 0.077180 0.556600 -0.045966
C29   C     C_R   0.422332 0.606910 0.197295 0.263144
C30   C     C_R   0.577668 0.606910 0.802705 0.263145
C31   C     C_R   0.929157 0.126818 0.214835 0.275155
C32   C     C_R   0.070843 0.126817 0.785165 0.275155
N21   N     N_R   0.445430 0.577570 0.294580 -0.098476
N22   N     N_R   0.554570 0.577570 0.705420 -0.098476
N23   N     N_R   0.945430 0.077570 0.294580 -0.096343
N24   N     N_R   0.054570 0.077570 0.705420 -0.096344
C33   C     C_R   0.667587 0.605742 0.800841 -0.176706
C34   C     C_R   0.332413 0.605742 0.199159 -0.176706
C35   C     C_R   0.160750 0.124639 0.783154 -0.151226
C36   C     C_R   0.839250 0.124640 0.216846 -0.151227
H5    H     H_    0.720371 0.602233 0.828052 0.143267
H6    H     H_    0.279629 0.602233 0.171948 0.143267
H7    H     H_    0.213912 0.128954 0.812421 0.145505
H8    H     H_    0.786088 0.128954 0.187580 0.145505
N25   N     N_R   0.611620 0.576500 0.705460 -0.067037
N26   N     N_R   0.388380 0.576500 0.294540 -0.067037
N27   N     N_R   0.111620 0.076500 0.705460 -0.061730
N28   N     N_R   0.888380 0.076500 0.294540 -0.061730
C37   C     C_R   0.413796 0.645100 0.590207 -0.034878
C38   C     C_R   0.586204 0.645100 0.409793 -0.034877
C39   C     C_R   0.909955 0.142287 0.590094 -0.083768
C40   C     C_R   0.090045 0.142287 0.409906 -0.083764
H9    H     H_    0.443512 0.663799 0.674126 0.139031
H10   H     H_    0.556488 0.663799 0.325874 0.139030
H11   H     H_    0.935426 0.158701 0.673227 0.155563
H12   H     H_    0.064575 0.158701 0.326773 0.155563
N29   N     N_R   0.421010 0.576890 0.556640 -0.046428
N30   N     N_R   0.578990 0.576890 0.443360 -0.046429
N31   N     N_R   0.921010 0.076890 0.556640 -0.056251
N32   N     N_R   0.078990 0.076890 0.443360 -0.056250
Ni1   Ni    Ni4+2 0.383200 0.500680 0.370150 0.259100
Ni2   Ni    Ni4+2 0.616800 0.500680 0.629850 0.259100
Ni3   Ni    Ni4+2 0.883200 0.000680 0.370150 0.279338
Ni4   Ni    Ni4+2 0.116800 0.000680 0.629850 0.279339
Ni5   Ni    Ni4+2 0.512440 0.500680 0.370150 0.304526
Ni6   Ni    Ni4+2 0.487560 0.500680 0.629850 0.304526
Ni7   Ni    Ni4+2 0.012440 0.000680 0.370150 0.313359
Ni8   Ni    Ni4+2 0.987560 0.000680 0.629850 0.313359
C41   C     C_R   0.363637 0.688283 0.497232 0.065327
C42   C     C_R   0.636363 0.688283 0.502768 0.065326
C43   C     C_R   0.858950 0.184579 0.497419 0.087403
C44   C     C_R   0.141050 0.184580 0.502581 0.087401
C45   C     C_R   0.351871 0.626234 0.136262 -0.004526
C46   C     C_R   0.648129 0.626234 0.863738 -0.004527
C47   C     C_R   0.865873 0.161324 0.172124 0.000766
C48   C     C_R   0.134127 0.161322 0.827877 0.000771
C49   C     C_2   0.647762 0.802040 0.422039 -0.111356
C50   C     C_2   0.352238 0.802040 0.577961 -0.111357
C51   C     C_2   0.152912 0.296925 0.421995 -0.108538
C52   C     C_2   0.847088 0.296924 0.578005 -0.108537
C53   C     C_2   0.664615 0.764404 0.510196 -0.195217
C54   C     C_2   0.335384 0.764403 0.489804 -0.195216
C55   C     C_2   0.170164 0.259602 0.510271 -0.208756
C56   C     C_2   0.829836 0.259602 0.489729 -0.208756
H13   H     H_    0.601244 0.787005 0.339771 0.166361
H14   H     H_    0.398756 0.787005 0.660229 0.166361
H15   H     H_    0.105650 0.282934 0.339899 0.175442
H16   H     H_    0.894350 0.282933 0.660101 0.175441
H17   H     H_    0.709342 0.783722 0.591900 0.168178
H18   H     H_    0.290657 0.783721 0.408100 0.168179
H19   H     H_    0.215458 0.278369 0.591920 0.158810
H20   H     H_    0.784542 0.278369 0.408080 0.158810
C57   C     C_2   0.206286 0.343881 0.432467 -0.035120
C58   C     C_2   0.793714 0.343880 0.567533 -0.035120
C59   C     C_2   0.700219 0.851973 0.432866 -0.034602
C60   C     C_2   0.299781 0.851972 0.567134 -0.034603
C61   C     C_2   0.273184 0.319002 0.497743 -0.049260
C62   C     C_2   0.726816 0.319002 0.502258 -0.049260
C63   C     C_2   0.767782 0.829531 0.498762 -0.041480
C64   C     C_2   0.232217 0.829529 0.501239 -0.041482
H21   H     H_    0.189397 0.392909 0.377832 0.178576
H22   H     H_    0.810603 0.392909 0.622168 0.178576
H23   H     H_    0.682345 0.900729 0.377456 0.176960
H24   H     H_    0.317654 0.900728 0.622542 0.176960
H25   H     H_    0.784152 0.366694 0.001368 0.151821
H26   H     H_    0.215848 0.366693 0.998633 0.151821
H27   H     H_    0.213736 0.720868 0.826098 0.153559
H28   H     H_    0.786264 0.720868 0.173902 0.153559
C65   C     C_2   0.688991 0.339418 0.970131 -0.139890
C66   C     C_2   0.311008 0.339418 0.029869 -0.139890
C67   C     C_2   0.141806 0.746348 0.853382 -0.170760
C68   C     C_2   0.858193 0.746348 0.146618 -0.170759
C69   C     C_2   0.758375 0.337588 0.028603 -0.099784
C70   C     C_2   0.241624 0.337587 0.971398 -0.099784
C71   C     C_2   0.193649 0.705733 0.868921 -0.099722
C72   C     C_2   0.806351 0.705733 0.131079 -0.099722
H29   H     H_    0.327495 0.683209 0.990168 0.195593
H30   H     H_    0.672505 0.683209 0.009832 0.195593
H31   H     H_    0.844398 0.239383 0.042935 0.200107
H32   H     H_    0.155601 0.239381 0.957066 0.200105
C73   C     C_2   0.304753 0.653906 0.022316 -0.089179
C74   C     C_2   0.695247 0.653906 0.977684 -0.089179
C75   C     C_2   0.835221 0.228760 0.101268 -0.100456
C76   C     C_2   0.164779 0.228759 0.898733 -0.100459
C77   C     C_2   0.235086 0.654045 0.963255 -0.134683
C78   C     C_2   0.764914 0.654045 0.036745 -0.134683
C79   C     C_2   0.797091 0.277771 0.110350 -0.155241
C80   C     C_2   0.202909 0.277770 0.889651 -0.155240
H33   H     H_    0.664090 0.308897 0.998174 0.162742
H34   H     H_    0.335909 0.308897 0.001825 0.162742
H35   H     H_    0.122328 0.731165 0.897174 0.156775
H36   H     H_    0.877672 0.731166 0.102826 0.156775
H37   H     H_    0.289941 0.269537 0.551883 0.160158
H38   H     H_    0.710059 0.269537 0.448117 0.160158
H39   H     H_    0.784933 0.779668 0.552359 0.160603
H40   H     H_    0.215067 0.779665 0.447643 0.160605
H41   H     H_    0.210243 0.627490 0.993695 0.145342
H42   H     H_    0.789756 0.627490 0.006305 0.145343
H43   H     H_    0.786849 0.267475 0.167522 0.145655
H44   H     H_    0.213151 0.267474 0.832480 0.145654
N33   N     N_R   0.589492 0.382916 0.303886 0.236836
O1    O     O_R   0.570412 0.319314 0.247174 -0.400510
O2    O     O_R   0.612766 0.439958 0.280735 -0.312676
N34   N     N_R   0.410507 0.382916 0.696114 0.236836
O3    O     O_R   0.429587 0.319314 0.752826 -0.400510
O4    O     O_R   0.387233 0.439958 0.719264 -0.312676
N35   N     N_R   0.093584 0.899797 0.304037 0.238713
O5    O     O_R   0.116902 0.853557 0.268014 -0.386113
O6    O     O_R   0.055784 0.959132 0.245080 -0.323715
N36   N     N_R   0.906417 0.899801 0.695964 0.238714
O7    O     O_R   0.883094 0.853567 0.731985 -0.386109
O8    O     O_R   0.944223 0.959132 0.754924 -0.323724
N37   N     N_R   0.747776 0.389597 0.701725 0.213571
O9    O     O_R   0.768799 0.457079 0.749148 -0.437490
O10   O     O_R   0.787437 0.329132 0.752312 -0.381974
N38   N     N_R   0.252223 0.389597 0.298275 0.213571
O11   O     O_R   0.231201 0.457079 0.250852 -0.437490
O12   O     O_R   0.212562 0.329133 0.247688 -0.381974
N39   N     N_R   0.250817 0.900820 0.700725 0.218804
O13   O     O_R   0.260373 0.962590 0.756219 -0.408628
O14   O     O_R   0.296036 0.844484 0.750053 -0.398301
N40   N     N_R   0.749183 0.900820 0.299275 0.218804
O15   O     O_R   0.739627 0.962590 0.243781 -0.408629
O16   O     O_R   0.703964 0.844485 0.249947 -0.398302
H45   H     H_    0.545976 0.391462 0.828340 0.191212
H46   H     H_    0.454023 0.391462 0.171660 0.191212
H47   H     H_    0.022836 0.843539 0.772257 0.151887
H48   H     H_    0.977163 0.843539 0.227741 0.151890
H49   H     H_    0.299753 0.659757 0.322045 0.119240
H50   H     H_    0.700247 0.659758 0.677955 0.119240
H51   H     H_    0.791884 0.154812 0.323986 0.110800
H52   H     H_    0.208116 0.154813 0.676015 0.110800
N41   N     N_R   0.457575 0.594588 0.152431 0.226945
O17   O     O_R   0.506341 0.542312 0.194895 -0.353454
O18   O     O_R   0.444310 0.637862 0.073448 -0.351132
N42   N     N_R   0.542425 0.594588 0.847569 0.226945
O19   O     O_R   0.493659 0.542312 0.805105 -0.353455
O20   O     O_R   0.555690 0.637862 0.926552 -0.351132
N43   N     N_R   0.955015 0.120488 0.155081 0.233748
O21   O     O_R   0.950197 0.054388 0.111240 -0.279097
O22   O     O_R   0.965593 0.182812 0.120714 -0.375360
N44   N     N_R   0.044986 0.120484 0.844921 0.233755
O23   O     O_R   0.049816 0.054386 0.888774 -0.279098
O24   O     O_R   0.034403 0.182807 0.879282 -0.375359

loop_
_geom_bond_atom_site_label_1
_geom_bond_atom_site_label_2
_geom_bond_distance
_ccdc_geom_bond_type
N35   O5    1.300645 A    
C42   C53   1.456011 S    
C65   C69   1.330738 D    
N33   O1    1.300418 A    
C31   N23   1.347822 A    
H30   C74   1.084616 S    
C33   C46   1.385642 A    
N6    N10   1.378072 A    
C3    N3    1.340594 A    
C37   C41   1.390319 A    
H32   C76   1.086741 S    
C36   N28   1.332628 A    
C25   C41   1.374108 A    
C40   N32   1.342958 A    
C5    C21   1.387152 A    
C30   N42   1.433693 S    
C51   C57   1.458823 S    
C7    N7    1.349016 A    
N31   Ni8   1.830681 S    
N35   O6    1.297337 A    
C16   H48   1.076091 S    
N30   Ni5   1.830678 S    
N21   Ni5   1.847338 S    
N11   Ni4   1.857315 S    
C54   H18   1.087926 S    
N5    Ni5   1.847436 S    
C65   H33   1.087837 S    
C16   N16   1.341113 A    
C53   H17   1.087926 S    
N3    N16   1.366141 A    
C3    H3    1.070750 S    
N39   O14   1.301172 A    
C68   H36   1.087557 S    
N44   O24   1.300943 A    
C18   C65   1.454302 S    
C8    N36   1.431249 S    
C15   H47   1.076091 S    
C67   H35   1.087555 S    
C15   C20   1.375797 A    
C34   N26   1.336777 A    
C12   N40   1.431642 S    
C58   C62   1.344293 D    
C16   C19   1.375795 A    
N17   N29   1.378071 A    
C4    H4    1.070746 S    
N20   N32   1.378073 A    
C57   C61   1.344292 D    
N36   O7    1.300645 A    
N9    Ni2   1.857315 S    
C47   C75   1.449885 S    
N1    Ni1   1.840278 S    
C74   C78   1.335150 D    
C68   C72   1.333513 D    
C36   C47   1.377572 A    
C4    C20   1.387298 A    
C13   N13   1.338943 A    
N3    Ni3   1.840278 S    
N42   O19   1.298021 A    
N37   O10   1.300999 A    
C13   C18   1.371569 A    
C10   C22   1.378645 A    
C40   H12   1.069004 S    
N32   Ni7   1.830678 S    
C11   N11   1.338743 A    
N21   N26   1.399507 A    
C4    N4    1.340596 A    
N7    N11   1.378073 A    
C8    C24   1.388655 A    
C1    C17   1.381521 A    
N23   N28   1.399507 A    
C6    C22   1.387150 A    
N15   Ni8   1.864038 S    
N34   O4    1.299856 A    
C3    C19   1.387299 A    
N33   O2    1.299856 A    
C61   H37   1.085885 S    
C28   H52   1.073475 S    
C49   C53   1.335458 D    
C2    H2    1.071933 S    
C6    N34   1.425049 S    
C38   N30   1.346567 A    
C37   N29   1.346567 A    
H25   C69   1.084327 S    
N38   O12   1.300998 A    
C26   N18   1.335416 A    
C26   H50   1.078733 S    
C52   C58   1.458824 S    
C19   C68   1.460930 S    
N24   Ni8   1.847336 S    
C25   H49   1.078733 S    
C78   H42   1.084751 S    
C20   C67   1.460930 S    
C35   H7    1.078166 S    
C14   N14   1.338942 A    
C39   C43   1.384681 A    
N6    Ni6   1.847437 S    
C76   C80   1.334126 D    
N20   Ni4   1.840383 S    
C1    N1    1.332903 A    
C10   N38   1.427953 S    
N19   Ni3   1.840383 S    
C52   H16   1.085047 S    
C34   H6    1.079804 S    
N44   O23   1.298802 A    
C27   N19   1.333999 A    
N8    N12   1.378072 A    
N24   N27   1.399506 A    
C70   C80   1.441017 S    
C71   C77   1.456541 S    
C32   N24   1.347820 A    
C14   C17   1.371567 A    
C30   C46   1.388879 A    
C49   C59   1.467371 S    
C21   C62   1.446190 S    
N19   N31   1.378071 A    
C75   C79   1.334126 D    
N39   O13   1.301003 A    
C11   N39   1.431643 S    
C35   C48   1.377572 A    
N17   Ni1   1.840383 S    
C41   C54   1.456011 S    
C34   C45   1.385641 A    
N43   O22   1.300944 A    
C2    C18   1.381519 A    
C5    N33   1.425050 S    
C26   C42   1.374108 A    
C25   N17   1.335416 A    
C8    N8    1.349014 A    
N4    Ni4   1.840276 S    
C31   N43   1.429166 S    
N12   Ni3   1.857316 S    
C62   H38   1.085884 S    
C7    N35   1.431248 S    
N23   Ni7   1.847338 S    
N4    N15   1.366142 A    
N22   Ni6   1.847336 S    
C55   H19   1.088371 S    
C80   H44   1.087551 S    
C72   C78   1.456541 S    
C9    C21   1.378645 A    
N29   Ni6   1.830681 S    
N16   Ni7   1.864039 S    
N34   O3    1.300419 A    
C44   C55   1.447213 S    
C35   N27   1.332629 A    
H31   C75   1.086737 S    
C79   H43   1.087553 S    
C10   N10   1.330762 A    
N1    N14   1.366141 A    
C12   C24   1.381235 A    
C1    H1    1.071932 S    
N8    Ni8   1.847437 S    
C77   H41   1.084753 S    
C32   C48   1.379396 A    
N40   O16   1.301174 A    
H26   C70   1.084325 S    
C36   H8    1.078166 S    
C52   C56   1.331061 D    
N28   Ni3   1.823806 S    
C50   C60   1.467370 S    
N38   O11   1.301191 A    
N18   N30   1.378073 A    
C30   N22   1.347114 A    
C27   H51   1.073475 S    
C9    N9    1.330763 A    
N2    Ni2   1.840276 S    
C29   N21   1.347113 A    
C28   C44   1.366349 A    
C39   H11   1.069003 S    
C11   C23   1.381234 A    
C45   C73   1.466963 S    
C6    N6    1.345925 A    
N7    Ni7   1.847436 S    
N10   Ni1   1.857316 S    
C12   N12   1.338743 A    
N5    N9    1.378073 A    
C66   C70   1.330738 D    
C60   H24   1.084192 S    
N22   N25   1.399506 A    
C51   H15   1.085048 S    
C59   C63   1.343589 D    
H28   C72   1.086130 S    
C46   C74   1.466963 S    
C67   C71   1.333515 D    
C24   C63   1.455914 S    
C27   C43   1.366349 A    
C5    N5    1.345924 A    
C33   N25   1.336779 A    
C56   H20   1.088371 S    
N41   O18   1.299966 A    
N14   Ni5   1.864039 S    
C29   N41   1.433697 S    
N13   Ni6   1.864038 S    
C40   C44   1.384681 A    
C39   N31   1.342957 A    
C66   H34   1.087840 S    
C57   H21   1.083831 S    
C48   C76   1.449883 S    
C50   H14   1.084929 S    
C64   H40   1.085690 S    
C9    N37   1.427952 S    
H29   C73   1.084616 S    
C29   C45   1.388879 A    
C50   C54   1.335457 D    
N2    N13   1.366142 A    
C15   N15   1.341113 A    
C14   H46   1.078175 S    
N41   O17   1.298021 A    
N36   O8    1.297340 A    
C63   H39   1.085690 S    
H27   C71   1.086131 S    
C43   C56   1.447214 S    
N18   Ni2   1.840383 S    
C7    C23   1.388655 A    
N27   Ni4   1.823807 S    
C33   H5    1.079803 S    
C28   N20   1.333998 A    
C32   N44   1.429167 S    
C13   H45   1.078172 S    
N42   O20   1.299966 A    
N37   O9    1.301190 A    
C38   H10   1.075817 S    
C31   C47   1.379397 A    
C38   C42   1.390320 A    
C37   H9    1.075816 S    
C17   C66   1.454301 S    
C69   C79   1.441018 S    
C51   C55   1.331063 D    
C58   H22   1.083831 S    
N43   O21   1.298809 A    
N40   O15   1.301004 A    
N26   Ni1   1.823806 S    
C49   H13   1.084929 S    
C23   C64   1.455916 S    
C73   C77   1.335148 D    
N25   Ni2   1.823807 S    
C60   C64   1.343590 D    
C22   C61   1.446192 S    
C59   H23   1.084192 S    
C2    N2    1.332904 A    
