data_mof_unit_67638.cif
_audit_creation_date              2012-10-26T20:13:55-0400
_audit_creation_method            fapswitch 2.2
_symmetry_space_group_name_H-M    P1
_symmetry_Int_Tables_number       1
_space_group_crystal_system       triclinic
_cell_length_a                    8.847418
_cell_length_b                    11.002265
_cell_length_c                    9.676468
_cell_angle_alpha                 90.622316
_cell_angle_beta                  97.736047
_cell_angle_gamma                 89.343952
_cell_volume                      933.248048897

loop_
_atom_site_label
_atom_site_type_symbol
_atom_type_description
_atom_site_fract_x
_atom_site_fract_y
_atom_site_fract_z
_atom_type_partial_charge
C1    C     C_R   0.500300 0.263436 0.498895 0.529103
C2    C     C_R   0.632894 0.504709 0.942808 0.090030
C3    C     C_3   0.744076 0.604055 0.948599 -0.241256
C4    C     C_R   0.204500 0.499294 0.464382 0.526217
C5    C     C_3   0.743744 0.609537 0.105366 0.126250
C6    C     C_R   0.498809 0.737483 0.499914 0.540465
C7    C     C_R   0.795601 0.500764 0.535831 0.521524
C8    C     C_2   0.039165 0.495443 0.445847 -0.164128
C9    C     C_2   0.961202 0.504566 0.555288 -0.182290
C10   C     C_R   0.499834 0.065416 0.614598 -0.043532
C11   C     C_R   0.494044 0.131609 0.494523 -0.058701
C12   C     C_R   0.480187 0.935732 0.367629 0.236427
C13   C     C_R   0.482946 0.065379 0.368587 -0.170557
C14   C     C_3   0.781242 0.813688 0.154140 0.058991
C15   C     C_3   0.837081 0.847921 0.306601 -0.236386
C16   C     C_3   0.841639 0.985806 0.331065 -0.471152
C17   C     C_3   0.368358 0.909780 0.136330 0.040322
C18   C     C_3   0.205685 0.903977 0.174513 -0.278256
C19   C     C_3   0.100591 0.973912 0.067383 -0.519014
C20   C     C_3   0.804081 0.922528 0.763946 -0.012512
C21   C     C_3   0.890336 0.805734 0.734000 -0.258361
C22   C     C_3   0.033440 0.828414 0.666485 -0.496131
C23   C     C_R   0.494018 0.871320 0.496105 -0.009822
C24   C     C_3   0.250350 0.106852 0.761093 -0.006596
C25   C     C_3   0.171305 0.216068 0.684596 -0.233647
C26   C     C_3   0.014053 0.182327 0.611887 -0.499809
C27   C     C_3   0.173019 0.345308 0.075614 -0.016593
C28   C     C_3   0.005242 0.359381 0.015398 -0.274245
C29   C     C_3   0.916756 0.241407 0.006492 -0.488188
C30   C     C_R   0.502298 0.941838 0.616543 -0.078806
C31   C     C_3   0.531697 0.940341 0.773124 0.165972
C32   C     C_3   0.523085 0.081093 0.768907 0.185359
C33   C     C_R   0.632938 0.507473 0.089465 0.127541
C34   C     C_R   0.370159 0.477511 0.056212 0.371621
C35   C     C_R   0.370244 0.482975 0.908863 0.025418
Cu1   Cu    Cu3+1 0.499990 0.499980 0.640670 0.935469
Cu2   Cu    Cu3+1 0.500010 0.500020 0.359330 1.035429
H1    H     H_    0.263417 0.474871 0.841465 0.113749
H2    H     H_    0.881315 0.794332 0.098278 0.097302
H3    H     H_    0.761797 0.807529 0.376150 0.215290
H4    H     H_    0.952351 0.807954 0.337984 0.114327
H5    H     H_    0.756232 0.035599 0.257720 0.159417
H6    H     H_    0.955942 0.021393 0.320598 0.128565
H7    H     H_    0.815610 0.006692 0.437428 0.136857
H8    H     H_    0.019450 0.514712 0.660968 0.115856
H9    H     H_    0.374006 0.847450 0.046105 0.169268
H10   H     H_    0.397199 0.000523 0.098837 0.133013
H11   H     H_    0.169173 0.807746 0.176459 0.171934
H12   H     H_    0.854416 0.574128 0.917234 0.078044
H13   H     H_    0.197713 0.945703 0.278151 0.154331
H14   H     H_    0.142877 0.068058 0.064913 0.146398
H15   H     H_    0.983365 0.979051 0.093150 0.150613
H16   H     H_    0.099463 0.928249 0.965165 0.138762
H17   H     H_    0.879186 0.982029 0.834796 0.129416
H18   H     H_    0.777205 0.973477 0.665841 0.120421
H19   H     H_    0.926455 0.758043 0.833313 0.157441
H20   H     H_    0.812755 0.746329 0.664117 0.185075
H21   H     H_    0.011940 0.896180 0.582516 0.143659
H22   H     H_    0.072208 0.742527 0.620938 0.159613
H23   H     H_    0.853830 0.586356 0.168511 0.092705
H24   H     H_    0.126728 0.859629 0.746086 0.126999
H25   H     H_    0.181749 0.081724 0.842471 0.129782
H26   H     H_    0.246410 0.027885 0.689042 0.116469
H27   H     H_    0.159906 0.291711 0.758676 0.157324
H28   H     H_    0.237995 0.247250 0.603762 0.197998
H29   H     H_    0.026890 0.106644 0.538621 0.136150
H30   H     H_    0.960577 0.259875 0.551240 0.161017
H31   H     H_    0.938452 0.155257 0.688279 0.132261
H32   H     H_    0.181665 0.295045 0.175465 0.160366
H33   H     H_    0.233734 0.289746 0.002872 0.128611
H34   H     H_    0.482296 0.114462 0.272513 0.132241
H35   H     H_    0.951160 0.421284 0.084759 0.164031
H36   H     H_    0.996931 0.399521 0.909847 0.152561
H37   H     H_    0.959738 0.179022 0.930171 0.136786
H38   H     H_    0.794588 0.260920 0.970251 0.156414
H39   H     H_    0.925403 0.198649 0.110690 0.145960
H40   H     H_    0.437164 0.897521 0.818996 0.123783
H41   H     H_    0.632803 0.126161 0.806504 0.132392
H42   H     H_    0.981266 0.481892 0.341185 0.123692
H43   H     H_    0.691434 0.683860 0.892504 0.225425
H44   H     H_    0.719845 0.891003 0.098559 0.206734
N1    N     N_R   0.500980 0.500930 0.148050 -0.196214
N2    N     N_R   0.500990 0.500890 0.852140 -0.257256
O1    O     O_R   0.500000 0.319640 0.618810 -0.482280
O2    O     O_3   0.478692 0.869319 0.244786 -0.508120
O3    O     O_3   0.676466 0.892410 0.831859 -0.612102
O4    O     O_3   0.398904 0.136830 0.827559 -0.589456
O5    O     O_3   0.232415 0.463334 0.104981 -0.560350
O6    O     O_R   0.500020 0.319680 0.381230 -0.522110
O7    O     O_R   0.274830 0.499980 0.591380 -0.534992
O8    O     O_R   0.274850 0.500020 0.353800 -0.441026
O9    O     O_R   0.499980 0.680320 0.618770 -0.509550
O10   O     O_R   0.500000 0.680360 0.381190 -0.408322
O11   O     O_R   0.725150 0.499980 0.646200 -0.512485
O12   O     O_R   0.725170 0.500020 0.408620 -0.507138
O13   O     O_3   0.676408 0.717189 0.148313 -0.493811

loop_
_geom_bond_atom_site_label_1
_geom_bond_atom_site_label_2
_ccdc_geom_bond_type
C9    H8    S    
C1    C11   S    
C4    C8    S    
C3    H12   S    
C29   H39   S    
C1    O1    A    
C12   C23   A    
C12   O2    S    
C10   C32   S    
C17   O2    S    
C26   H30   S    
Cu1   Cu2   S    
C18   C19   S    
C30   C31   S    
C3    H43   S    
Cu1   N2    S    
C15   C16   S    
Cu2   O12   S    
C34   C35   A    
C14   H2    S    
C19   H15   S    
C8    C9    D    
C20   O3    S    
C8    H42   S    
C1    O6    A    
C33   N1    A    
C16   H7    S    
C27   H32   S    
C4    O8    A    
C19   H16   S    
C31   O3    S    
C21   C22   S    
C2    N2    A    
C28   H35   S    
C20   H18   S    
C28   H36   S    
C14   O13   S    
C31   H40   S    
C4    O7    A    
Cu2   O8    S    
C26   H29   S    
C23   C30   A    
C35   H1    S    
C25   H28   S    
C17   H9    S    
C15   H4    S    
C20   H17   S    
C22   H22   S    
C35   N2    A    
C29   H37   S    
C13   H34   S    
C25   C26   S    
C32   O4    S    
C5    C33   S    
C25   H27   S    
C21   H20   S    
C19   H14   S    
C10   C30   A    
C31   C32   S    
C6    O10   A    
C20   C21   S    
C17   C18   S    
Cu2   O10   S    
C34   O5    S    
C24   C25   S    
C16   H6    S    
C27   H33   S    
C2    C33   A    
C24   H26   S    
Cu2   N1    S    
C16   H5    S    
C5    O13   S    
C18   H13   S    
Cu1   O7    S    
C7    C9    S    
C7    O11   A    
C28   C29   S    
C24   H25   S    
C5    H23   S    
C17   H10   S    
C3    C5    S    
C18   H11   S    
C22   H21   S    
C21   H19   S    
C29   H38   S    
C7    O12   A    
Cu2   O6    S    
C26   H31   S    
C2    C3    S    
C22   H24   S    
C11   C13   A    
Cu1   O9    S    
Cu1   O1    S    
C6    O9    A    
C6    C23   S    
C27   O5    S    
C24   O4    S    
C15   H3    S    
C10   C11   A    
C32   H41   S    
Cu1   O11   S    
C12   C13   A    
C27   C28   S    
C14   C15   S    
C34   N1    A    
C14   H44   S    
