data_mof_unit_15626.cif
_audit_creation_date              2013-03-05T16:34:33-0500
_audit_creation_method            fapswitch 2.2
_symmetry_space_group_name_H-M    P1
_symmetry_Int_Tables_number       1
_space_group_crystal_system       triclinic
_cell_length_a                    13.002046
_cell_length_b                    9.086241
_cell_length_c                    7.790473
_cell_angle_alpha                 90.06128
_cell_angle_beta                  96.049217
_cell_angle_gamma                 89.575925
_cell_volume                      915.214388515

loop_
_atom_site_label
_atom_site_type_symbol
_atom_site_description
_atom_site_fract_x
_atom_site_fract_y
_atom_site_fract_z
_atom_type_partial_charge
O1    O     O_R   0.500000 0.288400 0.642760 -0.546212
O2    O     O_R   0.500000 0.711600 0.357240 -0.546205
O3    O     O_R   0.500000 0.288400 0.357240 -0.596345
O4    O     O_R   0.500000 0.711600 0.642760 -0.596344
N1    N     N_1   0.499980 0.500000 0.076820 -0.029836
N2    N     N_1   0.500020 0.500000 0.923180 -0.029840
C1    C     C_R   0.499567 0.220061 0.499855 0.872351
C2    C     C_R   0.500433 0.779939 0.500145 0.872349
O5    O     O_R   0.349000 0.500000 0.619590 -0.556843
O6    O     O_R   0.651000 0.500000 0.380410 -0.556840
O7    O     O_R   0.348990 0.500000 0.334020 -0.569325
O8    O     O_R   0.651010 0.500000 0.665980 -0.569342
C3    C     C_R   0.300468 0.507089 0.468268 0.889128
C4    C     C_R   0.699532 0.492914 0.531732 0.889122
Cu1   Cu    Cu3+1 0.500010 0.500000 0.669080 1.065735
Cu2   Cu    Cu3+1 0.499990 0.500000 0.330920 1.065740
C5    C     C_R   0.811854 0.480124 0.549404 -0.168389
C6    C     C_R   0.188146 0.519884 0.450597 -0.168384
C7    C     C_R   0.027891 0.637351 0.335149 -0.268568
C8    C     C_R   0.972110 0.362663 0.664858 -0.268552
C9    C     C_R   0.135086 0.625716 0.339987 -0.088376
C10   C     C_R   0.864915 0.374300 0.660022 -0.088382
C11   C     C_R   0.133293 0.427384 0.553057 0.424669
C12   C     C_R   0.866707 0.572623 0.446941 0.424667
C13   C     C_R   0.026518 0.447457 0.555161 0.008394
C14   C     C_R   0.973482 0.552554 0.444842 0.008397
H1    H     H_    0.987427 0.717951 0.249907 0.186240
H2    H     H_    0.012573 0.282064 0.750104 0.186245
C15   C     C_1   0.499838 0.065391 0.499884 -0.140012
C16   C     C_1   0.500162 0.934609 0.500116 -0.140017
O9    O     O_3   0.814649 0.677960 0.341601 -0.574088
C17   C     C_3   0.807317 0.808420 0.438153 -0.311944
H3    H     H_    0.761424 0.791578 0.549202 0.149214
H4    H     H_    0.766622 0.893247 0.353482 0.202618
H5    H     H_    0.885197 0.851925 0.484239 0.156253
O10   O     O_3   0.185349 0.322039 0.658388 -0.574085
C18   C     C_3   0.192677 0.191585 0.561825 -0.311957
H6    H     H_    0.233354 0.106743 0.646497 0.202615
H7    H     H_    0.238587 0.208427 0.450796 0.149218
H8    H     H_    0.114797 0.148099 0.515707 0.156247
C19   C     C_2   0.813123 0.267615 0.766207 0.380193
H9    H     H_    0.855789 0.220108 0.880426 0.067899
O11   O     O_2   0.725363 0.225129 0.723633 -0.552743
C20   C     C_2   0.186877 0.732412 0.233811 0.380174
H10   H     H_    0.144199 0.779965 0.119632 0.067895
O12   O     O_2   0.274651 0.774855 0.276351 -0.552733

loop_
_geom_bond_atom_site_label_1
_geom_bond_atom_site_label_2
_geom_bond_distance
_ccdc_geom_bond_type
C15   C16   1.188300 T    
O1    Cu1   1.933334 S    
C5    C10   1.417682 A    
C9    C20   1.485354 S    
O2    Cu2   1.933333 S    
C19   H9    1.085860 S    
O9    C17   1.411221 S    
O8    Cu1   1.966001 S    
O4    C2    1.273912 A    
C2    C16   1.405346 S    
C17   H3    1.112820 S    
O4    Cu1   1.933767 S    
O5    Cu1   1.960661 S    
C12   O9    1.386615 S    
C18   H7    1.112819 S    
C13   C14   1.411795 A    
O6    Cu2   1.960661 S    
C20   O12   1.219629 D    
C6    C9    1.417688 A    
C19   O11   1.219641 D    
C4    C5    1.456163 S    
C18   H6    1.109339 S    
C3    C6    1.456168 S    
C1    C15   1.405346 S    
O10   C18   1.411221 S    
C7    C9    1.393524 A    
O8    C4    1.278402 A    
C18   H8    1.113332 S    
O3    C1    1.273912 A    
C11   C13   1.400681 A    
N1    N2    1.196984 T    
C12   C14   1.400681 A    
C10   C19   1.485339 S    
C8    C13   1.400458 A    
Cu1   Cu2   2.634400 S    
C5    C12   1.408014 A    
C17   H5    1.113331 S    
O7    C3    1.278401 A    
C7    H1    1.084360 S    
C20   H10   1.085857 S    
C11   O10   1.386615 S    
O6    C4    1.278606 A    
C7    C14   1.400456 A    
O5    C3    1.278606 A    
N1    Cu2   1.979545 S    
C8    H2    1.084358 S    
N2    Cu1   1.979545 S    
O1    C1    1.273691 A    
O7    Cu2   1.966001 S    
O2    C2    1.273691 A    
O3    Cu2   1.933768 S    
C6    C11   1.408015 A    
C8    C10   1.393524 A    
C17   H4    1.109338 S    
