data_mof_unit_46453.cif
_audit_creation_date              2012-12-10T19:25:48-0500
_audit_creation_method            fapswitch 2.2
_symmetry_space_group_name_H-M    P1
_symmetry_Int_Tables_number       1
_space_group_crystal_system       triclinic
_cell_length_a                    9.747431
_cell_length_b                    10.485722
_cell_length_c                    16.771555
_cell_angle_alpha                 90.1956
_cell_angle_beta                  84.843544
_cell_angle_gamma                 90.526238
_cell_volume                      1707.18621322

loop_
_atom_site_label
_atom_site_type_symbol
_atom_type_description
_atom_site_fract_x
_atom_site_fract_y
_atom_site_fract_z
_atom_type_partial_charge
C1    C     C_R   0.500704 0.742542 0.499913 0.854651
C2    C     C_R   0.499338 0.257456 0.499973 0.860240
C3    C     C_3   0.445662 0.956595 0.433924 -0.178441
C4    C     C_3   0.554573 0.043389 0.565723 -0.176376
C5    C     C_3   0.574796 0.042979 0.433921 -0.172704
C6    C     C_3   0.425492 0.957040 0.565687 -0.180006
C7    C     C_3   0.498174 0.122358 0.499889 0.031614
C8    C     C_3   0.502042 0.877647 0.499765 0.027969
C9    C     C_3   0.368903 0.038691 0.499883 -0.134243
C10   C     C_3   0.631339 0.961289 0.499765 -0.144106
C11   C     C_3   0.951646 0.614757 0.506059 -0.091477
C12   C     C_3   0.048371 0.385254 0.493949 -0.080864
C13   C     C_3   0.058589 0.565480 0.440707 -0.086872
C14   C     C_3   0.941437 0.434511 0.559299 -0.053300
C15   C     C_3   0.038939 0.549217 0.565425 -0.055885
C16   C     C_3   0.961079 0.450760 0.434588 -0.077984
C17   C     C_R   0.480419 0.493523 0.652697 0.886506
C18   C     C_R   0.519598 0.501759 0.346678 0.886542
C19   C     C_R   0.467772 0.454070 0.735803 -0.128680
C20   C     C_R   0.530837 0.503807 0.259308 -0.151057
C21   C     C_R   0.566993 0.370576 0.760991 -0.260470
C22   C     C_R   0.408957 0.512312 0.221012 -0.263911
C23   C     C_R   0.558934 0.329710 0.839609 -0.120907
C24   C     C_R   0.413097 0.505238 0.138680 -0.134302
C25   C     C_R   0.451910 0.372547 0.893383 0.110434
C26   C     C_R   0.538609 0.486440 0.093644 0.114326
C27   C     C_R   0.346380 0.447350 0.867635 -0.224988
C28   C     C_R   0.661644 0.484805 0.130067 -0.208659
C29   C     C_R   0.354690 0.490495 0.788760 0.467862
C30   C     C_R   0.659177 0.495678 0.213100 0.465598
C31   C     C_2   0.470840 0.371275 0.977733 0.076430
C32   C     C_2   0.539812 0.469511 0.008012 0.073469
H1    H     H_    0.652399 0.338724 0.720169 0.166132
H2    H     H_    0.309488 0.522126 0.254633 0.182395
H3    H     H_    0.906112 0.711413 0.511104 0.118983
H4    H     H_    0.093945 0.288618 0.488810 0.121356
H5    H     H_    0.076701 0.590272 0.620556 0.149694
H6    H     H_    0.923219 0.408629 0.379784 0.165409
H7    H     H_    0.264143 0.480672 0.910208 0.155739
H8    H     H_    0.759049 0.472757 0.094409 0.168501
H9    H     H_    0.317922 0.510382 0.110050 0.159617
H10   H     H_    0.641406 0.273110 0.859955 0.163740
H11   H     H_    0.635254 0.082941 0.380352 0.145743
H12   H     H_    0.365302 0.916702 0.619059 0.139895
H13   H     H_    0.401656 0.916260 0.380367 0.139378
H14   H     H_    0.598387 0.083725 0.619347 0.133281
H15   H     H_    0.261931 0.074234 0.500019 0.136303
H16   H     H_    0.738272 0.925662 0.499683 0.134810
H17   H     H_    0.113332 0.620810 0.391109 0.125465
H18   H     H_    0.887032 0.379372 0.609159 0.120065
N1    N     N_3   0.136700 0.499970 0.500060 -0.072927
N2    N     N_3   0.863300 0.500030 0.499940 -0.074584
O1    O     O_R   0.383390 0.686040 0.500000 -0.622230
O2    O     O_R   0.616610 0.313960 0.500000 -0.622418
O3    O     O_R   0.616650 0.686050 0.499970 -0.632479
O4    O     O_R   0.383350 0.313950 0.500030 -0.628023
O5    O     O_R   0.369590 0.500020 0.615820 -0.575314
O6    O     O_R   0.630410 0.499980 0.384180 -0.578937
O7    O     O_R   0.602840 0.500020 0.615790 -0.623821
O8    O     O_R   0.397160 0.499980 0.384210 -0.626230
Zn1   Zn    Zn3+2 0.344250 0.499990 0.500020 0.950006
Zn2   Zn    Zn3+2 0.655750 0.500010 0.499980 0.945954
O9    O     O_3   0.781775 0.490013 0.248386 -0.640091
C33   C     C_3   0.847617 0.611209 0.244430 0.075584
H19   H     H_    0.840306 0.652785 0.305722 0.165575
H20   H     H_    0.801620 0.681347 0.204560 0.132034
C34   C     C_3   0.999417 0.594749 0.214937 -0.352056
H21   H     H_    0.048213 0.528226 0.255122 0.218543
H22   H     H_    0.007332 0.552853 0.153743 0.232949
C35   C     C_3   0.076613 0.722213 0.212749 -0.955004
H23   H     H_    0.030842 0.789314 0.171639 0.281367
H24   H     H_    0.186165 0.707484 0.190843 0.270877
H25   H     H_    0.072146 0.764958 0.273599 0.254493
O10   O     O_3   0.253350 0.568519 0.763777 -0.643198
C36   C     C_3   0.280128 0.694968 0.787601 0.084625
H26   H     H_    0.384656 0.726984 0.762536 0.135549
H27   H     H_    0.272723 0.702612 0.854149 0.161861
C37   C     C_3   0.173389 0.783001 0.756078 -0.344133
H28   H     H_    0.182704 0.779443 0.689581 0.211756
H29   H     H_    0.068212 0.749684 0.778124 0.243962
C38   C     C_3   0.193065 0.920469 0.783422 -0.924685
H30   H     H_    0.177359 0.926905 0.849736 0.282767
H31   H     H_    0.116806 0.982484 0.757525 0.263853
H32   H     H_    0.298252 0.955618 0.763190 0.260565
I1    I     I_    0.639499 0.617731 0.936621 -0.429277
I2    I     I_    0.382304 0.215944 0.046309 -0.383833

loop_
_geom_bond_atom_site_label_1
_geom_bond_atom_site_label_2
_ccdc_geom_bond_type
O6    Zn2   S    
C25   C31   S    
C27   C29   A    
C1    C8    S    
C2    C7    S    
N1    Zn1   S    
C38   H32   S    
C6    C9    S    
C38   H30   S    
C4    H14   S    
C26   C32   S    
C23   H10   S    
C19   C21   A    
C24   C26   A    
C37   H29   S    
C21   H1    S    
C28   H8    S    
O3    Zn2   S    
C1    O1    A    
C15   H5    S    
C11   N2    S    
C13   N1    S    
O1    Zn1   S    
C18   O6    A    
C14   N2    S    
C12   C16   S    
C27   H7    S    
C35   H23   S    
C15   N1    S    
C12   H4    S    
C5    H11   S    
C31   I2    S    
C6    H12   S    
C30   O9    S    
C24   H9    S    
C11   C15   S    
C4    C7    S    
C38   H31   S    
C22   H2    S    
O10   C36   S    
C34   H21   S    
C33   C34   S    
C4    C6    S    
C3    C8    S    
C2    O2    A    
C5    C7    S    
C37   H28   S    
C6    C8    S    
C29   O10   S    
O2    Zn2   S    
C3    H13   S    
O8    Zn1   S    
C34   H22   S    
C33   H20   S    
C36   H26   S    
C3    C9    S    
C31   C32   D    
C35   H25   S    
C36   H27   S    
C17   O7    A    
C13   H17   S    
C18   O8    A    
C20   C22   A    
C9    H15   S    
C21   C23   A    
C10   H16   S    
C22   C24   A    
C4    C10   S    
C19   C29   A    
C12   N1    S    
C7    C9    S    
O7    Zn2   S    
O4    Zn1   S    
C16   N2    S    
C12   C14   S    
C3    C5    S    
C35   H24   S    
O5    Zn1   S    
C25   C27   A    
C26   C28   A    
C34   C35   S    
C33   H19   S    
C28   C30   A    
C1    O3    A    
C5    C10   S    
C2    O4    A    
C20   C30   A    
C11   C13   S    
C37   C38   S    
C14   H18   S    
C32   I1    S    
C11   H3    S    
C17   C19   S    
C18   C20   S    
C23   C25   A    
C36   C37   S    
O9    C33   S    
C8    C10   S    
C13   C16   S    
C16   H6    S    
C14   C15   S    
N2    Zn2   S    
C17   O5    A    
