data_mof_unit_37414.cif
_audit_creation_date              2012-12-10T18:46:18-0500
_audit_creation_method            fapswitch 2.2
_symmetry_space_group_name_H-M    P1
_symmetry_Int_Tables_number       1
_space_group_crystal_system       triclinic
_cell_length_a                    9.954903
_cell_length_b                    10.60728
_cell_length_c                    13.060432
_cell_angle_alpha                 92.249068
_cell_angle_beta                  70.210751
_cell_angle_gamma                 91.995001
_cell_volume                      1296.32531665

loop_
_atom_site_label
_atom_site_type_symbol
_atom_type_description
_atom_site_fract_x
_atom_site_fract_y
_atom_site_fract_z
_atom_type_partial_charge
C1    C     C_R   0.501269 0.739645 0.501068 0.863407
C2    C     C_R   0.430511 0.458319 0.983480 0.094727
C3    C     C_R   0.460359 0.429704 0.872547 0.016409
C4    C     C_R   0.541316 0.447253 0.026903 0.036758
C5    C     C_R   0.670107 0.385289 0.966399 0.008624
C6    C     C_R   0.687009 0.336413 0.860811 0.417411
C7    C     C_R   0.581860 0.358758 0.815684 -0.249624
C8    C     C_R   0.528461 0.501836 0.128057 -0.146137
C9    C     C_R   0.753441 0.417721 0.120894 -0.236291
C10   C     C_R   0.368489 0.474945 0.821018 -0.080577
C11   C     C_R   0.619704 0.936292 0.431857 -0.095746
C12   C     C_R   0.420362 0.491816 0.703613 0.862482
C13   C     C_R   0.617174 0.065380 0.429922 -0.150934
C14   C     C_R   0.497131 0.127789 0.498210 -0.027769
C15   C     C_R   0.380299 0.063875 0.569291 -0.088905
C16   C     C_R   0.382806 0.934734 0.571184 -0.165913
C17   C     C_R   0.502745 0.872304 0.502701 -0.032024
C18   C     C_R   0.944238 0.405412 0.449746 -0.201598
C19   C     C_R   0.087108 0.403471 0.448521 0.495101
C20   C     C_R   0.055528 0.594304 0.550677 -0.202111
C21   C     C_R   0.912604 0.596193 0.551984 0.487287
C22   C     C_R   0.498593 0.260378 0.499316 0.852906
C23   C     C_R   0.579599 0.499024 0.295744 0.868439
C24   C     C_R   0.776622 0.373703 0.014370 -0.099096
C25   C     C_R   0.626961 0.479194 0.178352 -0.048088
C26   C     C_R   0.232617 0.517692 0.883636 -0.146083
C27   C     C_R   0.192449 0.524177 0.996344 -0.145015
C28   C     C_R   0.291315 0.498177 0.046277 -0.134562
H1    H     H_    0.707517 0.116493 0.375114 0.162755
H2    H     H_    0.289391 0.113832 0.623895 0.190349
H3    H     H_    0.292465 0.883591 0.625953 0.168464
H4    H     H_    0.900676 0.330085 0.411499 0.208601
H5    H     H_    0.098924 0.669461 0.589219 0.205182
H6    H     H_    0.438913 0.560048 0.171427 0.143336
H7    H     H_    0.158944 0.548978 0.845484 0.182643
H8    H     H_    0.255340 0.506834 0.134020 0.147285
H9    H     H_    0.086732 0.555043 0.044873 0.153608
H10   H     H_    0.594496 0.318749 0.735703 0.214213
H11   H     H_    0.710644 0.886397 0.377263 0.170212
N1    N     N_R   0.142790 0.500030 0.500030 -0.159735
N2    N     N_R   0.857180 0.499940 0.500010 -0.164965
O1    O     O_R   0.385370 0.683250 0.500010 -0.635980
O2    O     O_R   0.614700 0.683220 0.500010 -0.538571
O3    O     O_R   0.328400 0.499990 0.653620 -0.607689
O4    O     O_R   0.557730 0.499960 0.653620 -0.549978
O5    O     O_R   0.385300 0.316780 0.499990 -0.528453
O6    O     O_R   0.614630 0.316750 0.499990 -0.625900
O7    O     O_R   0.442270 0.500040 0.346380 -0.562123
O8    O     O_R   0.671600 0.500010 0.346380 -0.634757
Zn1   Zn    Zn3+2 0.346870 0.500020 0.500000 1.039507
Zn2   Zn    Zn3+2 0.653130 0.499980 0.500000 1.026301
H12   H     H_    0.831341 0.399514 0.159389 0.166288
S1    S     S_3+6 0.177484 0.263347 0.386628 0.045925
O9    O     O_2   0.171810 0.175163 0.475195 -0.293382
O10   O     O_2   0.101065 0.199257 0.316639 -0.325092
O11   O     O_3   0.347228 0.287376 0.306564 -0.544456
H13   H     H_    0.386985 0.201961 0.286884 0.371140
S2    S     S_3+6 0.821931 0.736053 0.614428 0.062196
O12   O     O_2   0.897774 0.799414 0.685138 -0.293509
O13   O     O_2   0.828438 0.824958 0.526133 -0.305410
O14   O     O_3   0.651852 0.711924 0.693871 -0.525478
H14   H     H_    0.611726 0.797313 0.712662 0.373819
S3    S     S_3+6 0.839408 0.251925 0.780379 0.019216
O15   O     O_2   0.969550 0.337167 0.756389 -0.322658
O16   O     O_2   0.857485 0.140707 0.842044 -0.283593
O17   O     O_3   0.821203 0.200191 0.662193 -0.540382
H15   H     H_    0.901023 0.141878 0.629329 0.426354
H16   H     H_    0.876040 0.327500 0.972207 0.211645

loop_
_geom_bond_atom_site_label_1
_geom_bond_atom_site_label_2
_ccdc_geom_bond_type
C6    S3    S    
C2    C4    A    
S3    O16   D    
C9    C24   A    
C6    C7    A    
C12   O4    A    
N2    Zn2   S    
C2    C3    A    
O6    Zn2   S    
C26   H7    S    
C1    C17   S    
C4    C8    A    
O2    Zn2   S    
C19   S1    S    
S2    O14   S    
O7    Zn1   S    
C22   O6    A    
S3    O17   S    
C9    C25   A    
C21   S2    S    
C12   O3    A    
C3    C10   A    
C8    H6    S    
C13   C14   A    
O11   H13   S    
C16   H3    S    
C11   H11   S    
C8    C25   A    
C11   C13   A    
C14   C22   S    
C26   C27   A    
O14   H14   S    
C9    H12   S    
C10   C12   S    
O1    Zn1   S    
N1    Zn1   S    
C20   H5    S    
C13   H1    S    
C22   O5    A    
C7    H10   S    
C27   H9    S    
O5    Zn1   S    
O17   H15   S    
C3    C7    A    
S1    O10   D    
C5    C6    A    
C20   N1    A    
C21   N2    A    
C18   N2    A    
C23   O8    A    
C18   H4    S    
C19   N1    A    
O4    Zn2   S    
S2    O13   D    
S3    O15   D    
C1    O1    A    
C4    C5    A    
C23   C25   S    
C20   C21   A    
C28   H8    S    
C15   H2    S    
C18   C19   A    
S1    O11   S    
O3    Zn1   S    
C27   C28   A    
C24   H16   S    
C14   C15   A    
C5    C24   A    
C2    C28   A    
C23   O7    A    
S2    O12   D    
S1    O9    D    
C1    O2    A    
C10   C26   A    
C11   C17   A    
C15   C16   A    
C16   C17   A    
O8    Zn2   S    
