data_mof_unit_58533.cif
_audit_creation_date              2012-10-26T21:23:22-0400
_audit_creation_method            fapswitch 2.2
_symmetry_space_group_name_H-M    P1
_symmetry_Int_Tables_number       1
_space_group_crystal_system       triclinic
_cell_length_a                    27.717193
_cell_length_b                    10.898504
_cell_length_c                    9.687774
_cell_angle_alpha                 89.850851
_cell_angle_beta                  90.891072
_cell_angle_gamma                 90.075234
_cell_volume                      2926.07724071

loop_
_atom_site_label
_atom_site_type_symbol
_atom_type_description
_atom_site_fract_x
_atom_site_fract_y
_atom_site_fract_z
_atom_type_partial_charge
C1    C     C_R   0.501851 0.265151 0.500236 0.548227
C2    C     C_R   0.974284 0.469743 0.376090 0.009436
C3    C     C_R   0.975393 0.547083 0.614895 0.024496
C4    C     C_R   0.407778 0.502602 0.499160 0.546847
C5    C     C_R   0.949388 0.510979 0.493827 -0.007273
C6    C     C_R   0.947485 0.412303 0.267574 0.125710
C7    C     C_R   0.896512 0.419036 0.264030 0.146440
C8    C     C_R   0.871594 0.470961 0.376408 0.015453
C9    C     C_R   0.898228 0.514944 0.491792 -0.069241
C10   C     C_R   0.873637 0.562884 0.606290 0.030532
C11   C     C_R   0.823147 0.566001 0.604602 0.393773
C12   C     C_R   0.279647 0.401703 0.545122 0.307914
C13   C     C_R   0.820491 0.474655 0.381237 0.410984
C14   C     C_R   0.723172 0.408294 0.533886 -0.030911
C15   C     C_R   0.672814 0.401035 0.534998 0.090333
C16   C     C_R   0.497181 0.734571 0.499805 0.545852
C17   C     C_R   0.668699 0.616769 0.464239 0.090566
C18   C     C_R   0.719121 0.621529 0.464429 -0.028008
C19   C     C_R   0.746246 0.517631 0.498610 0.177177
C20   C     C_R   0.025322 0.484711 0.372921 0.025128
C21   C     C_R   0.051158 0.508600 0.497306 0.024537
C22   C     C_R   0.026277 0.533894 0.620454 0.016837
C23   C     C_R   0.254391 0.506332 0.500113 0.220915
C24   C     C_R   0.051366 0.482065 0.248677 -0.124958
C25   C     C_R   0.103453 0.540285 0.745724 -0.116850
C26   C     C_R   0.949649 0.596952 0.725956 -0.147803
C27   C     C_R   0.899767 0.605797 0.720845 -0.126512
C28   C     C_R   0.592348 0.500894 0.500706 0.539707
C29   C     C_R   0.053304 0.546026 0.744731 -0.145814
C30   C     C_2   0.483123 0.935359 0.388713 0.253889
C31   C     C_2   0.490345 0.866363 0.502312 -0.053932
C32   C     C_2   0.478940 0.069696 0.407652 -0.144912
C33   C     C_2   0.506704 0.132078 0.498654 0.201469
C34   C     C_R   0.102336 0.508797 0.498033 -0.032668
C35   C     C_2   0.470085 0.434718 0.920581 0.343862
C36   C     C_2   0.464160 0.459246 0.074598 0.333995
C37   C     C_R   0.178076 0.494240 0.376937 0.398069
C38   C     C_R   0.179039 0.522167 0.621244 0.432985
C39   C     C_R   0.279323 0.609647 0.452844 -0.081650
C40   C     C_R   0.329770 0.611143 0.451094 0.087485
C41   C     C_R   0.330311 0.404088 0.547349 -0.167647
C42   C     C_3   0.634547 0.808748 0.535859 -0.305840
C43   C     C_3   0.483886 0.952817 0.148203 -0.003587
C44   C     C_3   0.484490 0.873285 0.019386 -0.366386
C45   C     C_R   0.127447 0.494857 0.373818 0.022467
C46   C     C_3   0.267653 0.193234 0.525808 -0.013512
C47   C     C_3   0.228456 0.096944 0.543395 -0.353309
C48   C     C_3   0.546068 0.096044 0.706855 -0.022175
C49   C     C_3   0.580146 0.005957 0.778068 -0.396798
C50   C     C_3   0.439818 0.238237 0.908784 0.001000
C51   C     C_3   0.411735 0.151368 0.814453 -0.388849
C52   C     C_3   0.383811 0.504845 0.086317 -0.004084
C53   C     C_3   0.335259 0.446228 0.116772 -0.337726
C54   C     C_3   0.653826 0.195393 0.459912 -0.281134
C55   C     C_3   0.863965 0.453343 0.034688 -0.251807
C56   C     C_R   0.101530 0.485009 0.249349 -0.126455
C57   C     C_3   0.983378 0.214977 0.220866 -0.302787
C58   C     C_3   0.352606 0.821490 0.497768 -0.305293
C59   C     C_R   0.128411 0.523877 0.622761 0.020150
C60   C     C_R   0.355260 0.506395 0.497642 -0.028491
C61   C     C_R   0.645184 0.506345 0.501427 0.026554
Cu1   Cu    Cu3+1 0.500010 0.500020 0.638630 0.957889
Cu2   Cu    Cu3+1 0.499990 0.499980 0.361370 0.989673
H1    H     H_    0.350456 0.326211 0.587044 0.117433
H2    H     H_    0.519116 0.566379 0.895825 0.153191
H3    H     H_    0.532331 0.511587 0.107338 0.160206
H4    H     H_    0.119887 0.480397 0.151572 0.163178
H5    H     H_    0.744641 0.328246 0.559824 0.138622
H6    H     H_    0.033524 0.482660 0.148838 0.148837
H7    H     H_    0.611462 0.707138 0.366965 0.276913
H8    H     H_    0.614392 0.889594 0.495864 0.175507
H9    H     H_    0.669612 0.840645 0.579908 0.159388
H10   H     H_    0.613019 0.764395 0.617994 0.154506
H11   H     H_    0.519867 0.997767 0.159913 0.135726
H12   H     H_    0.259217 0.689070 0.417063 0.139256
H13   H     H_    0.455323 0.023370 0.133560 0.119509
H14   H     H_    0.449272 0.825723 0.005697 0.154668
H15   H     H_    0.490964 0.931191 0.927293 0.079968
H16   H     H_    0.513602 0.803644 0.028526 0.154480
H17   H     H_    0.301617 0.156548 0.572353 0.114598
H18   H     H_    0.272508 0.208309 0.412846 0.133591
H19   H     H_    0.193949 0.130390 0.497282 0.169537
H20   H     H_    0.238999 0.010767 0.490935 0.092652
H21   H     H_    0.223244 0.077483 0.654774 0.167973
H22   H     H_    0.509583 0.081550 0.749758 0.120841
H23   H     H_    0.122604 0.549891 0.843464 0.161877
H24   H     H_    0.558929 0.189884 0.731828 0.165794
H25   H     H_    0.617233 0.017212 0.738199 0.163414
H26   H     H_    0.580828 0.023227 0.891015 0.104902
H27   H     H_    0.567639 0.910516 0.759654 0.147943
H28   H     H_    0.422613 0.234832 0.011334 0.165242
H29   H     H_    0.477671 0.205068 0.919501 0.094809
H30   H     H_    0.426576 0.153714 0.708732 0.148789
H31   H     H_    0.414130 0.056230 0.855197 0.086377
H32   H     H_    0.373196 0.179083 0.809120 0.158211
H33   H     H_    0.384833 0.522103 0.973009 0.147529
H34   H     H_    0.967333 0.633676 0.816831 0.104628
H35   H     H_    0.386289 0.594515 0.140397 0.152986
H36   H     H_    0.332778 0.423655 0.228093 0.164682
H37   H     H_    0.305663 0.510432 0.088095 0.155095
H38   H     H_    0.330918 0.360477 0.056093 0.160718
H39   H     H_    0.616873 0.292508 0.608319 0.269754
H40   H     H_    0.639318 0.106956 0.497918 0.175419
H41   H     H_    0.691909 0.180317 0.430255 0.156681
H42   H     H_    0.632307 0.224880 0.367928 0.160786
H43   H     H_    0.880739 0.282580 0.119892 0.250469
H44   H     H_    0.840975 0.409960 0.953560 0.173819
H45   H     H_    0.881669 0.645590 0.808322 0.151820
H46   H     H_    0.899374 0.477111 0.989722 0.107154
H47   H     H_    0.845971 0.538760 0.069118 0.189465
H48   H     H_    0.957605 0.336721 0.071083 0.250390
H49   H     H_    0.004382 0.165400 0.141914 0.146273
H50   H     H_    0.949930 0.162335 0.242055 0.142368
H51   H     H_    0.005777 0.220930 0.316739 0.169191
H52   H     H_    0.387843 0.704906 0.364591 0.280438
H53   H     H_    0.370293 0.902174 0.449756 0.142637
H54   H     H_    0.372216 0.798479 0.595387 0.141876
H55   H     H_    0.314760 0.846692 0.520760 0.149021
H56   H     H_    0.737312 0.705638 0.435716 0.143526
H57   H     H_    0.036492 0.556642 0.843678 0.102274
H58   H     H_    0.489885 0.907567 0.603994 0.084974
H59   H     H_    0.451928 0.118195 0.346020 0.086287
N1    N     N_R   0.202679 0.507197 0.499534 -0.376122
N2    N     N_R   0.797863 0.521466 0.493835 -0.405140
N3    N     N_2   0.499480 0.498660 0.846910 -0.347672
N4    N     N_2   0.499460 0.498630 0.153040 -0.341127
N5    N     N_2   0.642344 0.723526 0.424584 -0.525768
N6    N     N_2   0.650822 0.286634 0.567586 -0.525128
N7    N     N_2   0.870306 0.369260 0.149387 -0.462564
N8    N     N_2   0.971420 0.336342 0.170360 -0.542733
N9    N     N_2   0.353977 0.718597 0.403877 -0.515589
O1    O     O_R   0.500010 0.321960 0.617040 -0.486040
O2    O     O_R   0.569740 0.500000 0.617090 -0.506598
O3    O     O_R   0.569730 0.499960 0.382940 -0.510668
O4    O     O_2   0.202570 0.480106 0.258710 -0.511158
O5    O     O_3   0.473473 0.877624 0.262771 -0.542133
O6    O     O_3   0.253801 0.301916 0.593970 -0.521823
O7    O     O_3   0.546173 0.075505 0.562899 -0.605728
O8    O     O_3   0.437980 0.357527 0.851716 -0.505195
O9    O     O_3   0.421080 0.426564 0.134843 -0.532825
O10   O     O_2   0.793266 0.430867 0.275752 -0.463027
O11   O     O_2   0.204484 0.536165 0.740083 -0.477921
O12   O     O_2   0.799354 0.611408 0.713727 -0.509207
O13   O     O_R   0.499990 0.321920 0.382900 -0.495075
O14   O     O_R   0.430270 0.500040 0.617060 -0.448099
O15   O     O_R   0.430260 0.500000 0.382910 -0.453253
O16   O     O_R   0.500010 0.678080 0.617100 -0.528977
O17   O     O_R   0.499990 0.678040 0.382960 -0.442562

loop_
_geom_bond_atom_site_label_1
_geom_bond_atom_site_label_2
_ccdc_geom_bond_type
H7    N5    S    
C10   C27   A    
H43   N7    S    
C30   C32   S    
C8    C13   A    
C40   C60   A    
C22   C29   A    
C11   N2    A    
C49   H27   S    
C6    N8    S    
C1    O1    A    
C1    C33   S    
C7    C8    A    
H52   N9    S    
C53   H36   S    
C16   C31   S    
C12   C23   A    
C26   C27   A    
C12   C41   A    
C16   O16   A    
C28   O3    A    
Cu1   O2    S    
C54   H41   S    
C44   H14   S    
H39   N6    S    
C30   C31   D    
C57   H49   S    
C58   H55   S    
C18   C19   A    
C47   H19   S    
C35   N3    D    
C20   C24   A    
C42   H8    S    
C35   O8    S    
C37   N1    A    
C35   C36   S    
C45   C56   A    
C53   H38   S    
C8    C9    A    
C55   N7    S    
Cu1   O14   S    
Cu2   O13   S    
C37   O4    S    
C13   O10   S    
C9    C10   A    
C58   N9    S    
Cu2   O15   S    
C38   N1    A    
C17   C61   A    
C28   C61   S    
C43   H11   S    
C21   C22   A    
C55   H46   S    
C58   H53   S    
C38   O11   S    
C49   H25   S    
C2    C6    A    
C24   H6    S    
C50   C51   S    
C44   H16   S    
C53   H37   S    
C25   C29   A    
C29   H57   S    
C19   N2    S    
C2    C20   A    
C28   O2    A    
Cu2   O3    S    
C32   H59   S    
C57   N8    S    
C31   H58   S    
C39   C40   A    
C13   N2    A    
C50   O8    S    
C17   N5    S    
C57   H50   S    
C21   C34   A    
C51   H31   S    
C54   N6    S    
C58   H54   S    
H3    N4    S    
C55   H44   S    
H2    N3    S    
C43   C44   S    
C5    C9    A    
Cu1   Cu2   S    
Cu1   O1    S    
C46   H18   S    
C54   H40   S    
H48   N8    S    
C14   C15   A    
C33   O7    S    
C4    O15   A    
C4    C60   S    
C42   H9    S    
C17   C18   A    
C15   C61   A    
C48   H24   S    
C34   C45   A    
C47   H21   S    
C36   O9    S    
C6    C7    A    
C42   N5    S    
C51   H30   S    
C46   O6    S    
C50   H29   S    
C48   C49   S    
C40   N9    S    
C39   H12   S    
Cu1   O16   S    
C55   H47   S    
C34   C59   A    
C2    C5    A    
C37   C45   A    
Cu2   O17   S    
C52   C53   S    
C43   H13   S    
C46   C47   S    
C42   H10   S    
C54   H42   S    
C48   H22   S    
C14   C19   A    
C3    C26   A    
C36   N4    D    
C41   C60   A    
C49   H26   S    
C3    C5    A    
Cu1   N3    S    
C23   N1    S    
C57   H51   S    
C24   C56   A    
C56   H4    S    
C30   O5    S    
C38   C59   A    
C48   O7    S    
C15   N6    S    
C32   C33   D    
C44   H15   S    
C1    O13   A    
C46   H17   S    
C16   O17   A    
C27   H45   S    
C23   C39   A    
C4    O14   A    
C52   H35   S    
C25   H23   S    
C52   O9    S    
C52   H33   S    
C43   O5    S    
C7    N7    S    
Cu2   N4    S    
C10   C11   A    
C26   H34   S    
C47   H20   S    
C50   H28   S    
C20   C21   A    
C14   H5    S    
C12   O6    S    
C3    C22   A    
C25   C59   A    
C41   H1    S    
C11   O12   S    
C18   H56   S    
C51   H32   S    
