data_mof_unit_67363.cif
_audit_creation_date              2012-12-11T19:24:54-0500
_audit_creation_method            fapswitch 2.2
_symmetry_space_group_name_H-M    P1
_symmetry_Int_Tables_number       1
_space_group_crystal_system       triclinic
_cell_length_a                    19.790002
_cell_length_b                    22.485544
_cell_length_c                    8.443129
_cell_angle_alpha                 90.033248
_cell_angle_beta                  103.324912
_cell_angle_gamma                 89.840431
_cell_volume                      3655.93922916

loop_
_atom_site_label
_atom_site_type_symbol
_atom_type_description
_atom_site_fract_x
_atom_site_fract_y
_atom_site_fract_z
_atom_type_partial_charge
Ba1   Ba    Ba6+2 0.999900 0.457470 0.844900 1.771597
Ba2   Ba    Ba6+2 0.999900 0.542530 0.344900 1.758100
Ba3   Ba    Ba6+2 0.499900 0.957470 0.844900 1.770573
Ba4   Ba    Ba6+2 0.499900 0.042530 0.344900 1.754103
C1    C     C_3   0.041505 0.180664 0.573728 -0.174187
C2    C     C_3   0.039783 0.821762 0.080458 -0.168491
C3    C     C_3   0.513201 0.671318 0.525905 -0.305018
C4    C     C_3   0.541197 0.319799 0.082091 -0.168854
C5    C     C_R   0.185083 0.735198 0.899822 -0.031430
C6    C     C_R   0.185412 0.264883 0.398869 -0.029371
C7    C     C_R   0.685704 0.235026 0.899463 -0.024616
C8    C     C_R   0.684872 0.764675 0.398662 -0.041767
C9    C     C_R   0.780536 0.325896 0.041550 0.056946
C10   C     C_R   0.782192 0.675152 0.539373 0.047679
C11   C     C_R   0.280845 0.825555 0.040585 0.060596
C12   C     C_R   0.280535 0.174043 0.541109 0.038039
C13   C     C_R   0.745255 0.328178 0.877484 -0.031913
C14   C     C_R   0.744363 0.671182 0.377874 -0.020486
C15   C     C_R   0.245176 0.827976 0.877044 -0.028966
C16   C     C_R   0.244837 0.171403 0.377513 -0.041433
C17   C     C_R   0.201058 0.782416 0.806988 -0.112236
C18   C     C_R   0.200628 0.216927 0.306654 -0.094276
C19   C     C_R   0.701405 0.282493 0.806914 -0.113588
C20   C     C_R   0.699024 0.716073 0.307540 -0.089780
C21   C     C_R   0.830718 0.369423 0.110896 0.099307
C22   C     C_R   0.833154 0.631992 0.608114 0.080785
C23   C     C_R   0.331832 0.868600 0.108964 0.101584
C24   C     C_R   0.330683 0.130402 0.610702 0.070979
C25   C     C_R   0.865150 0.364187 0.275106 -0.188094
C26   C     C_R   0.870154 0.638753 0.769662 -0.169373
C27   C     C_R   0.367422 0.862673 0.271719 -0.191862
C28   C     C_R   0.365282 0.135621 0.774804 -0.158112
C29   C     C_R   0.161104 0.636140 0.086665 -0.015338
C30   C     C_R   0.161151 0.364013 0.585996 -0.017754
C31   C     C_R   0.661609 0.135948 0.086317 -0.013253
C32   C     C_R   0.661107 0.864126 0.585272 -0.009222
C33   C     C_R   0.209763 0.680604 0.158486 -0.063871
C34   C     C_R   0.210584 0.319928 0.656971 -0.048248
C35   C     C_R   0.710227 0.180440 0.158294 -0.066862
C36   C     C_R   0.711794 0.820874 0.654918 -0.043748
C37   C     C_R   0.220069 0.731185 0.065693 0.021446
C38   C     C_R   0.220726 0.269149 0.564592 0.043452
C39   C     C_R   0.720555 0.231043 0.065593 0.028316
C40   C     C_R   0.721960 0.770056 0.562782 0.049685
C41   C     C_R   0.249281 0.675926 0.319068 -0.040164
C42   C     C_R   0.250764 0.325126 0.816688 -0.023424
C43   C     C_R   0.749461 0.175884 0.319205 -0.047125
C44   C     C_R   0.753280 0.827063 0.813065 -0.033028
C45   C     C_3   0.027439 0.205845 0.127329 0.915921
C46   C     C_3   0.029078 0.798061 0.628814 0.816425
C47   C     C_3   0.521748 0.707111 0.123481 0.785782
C48   C     C_3   0.531052 0.298392 0.632886 0.781416
C49   C     C_R   0.793753 0.221332 0.391059 -0.033461
C50   C     C_R   0.800091 0.782947 0.882967 -0.001727
C51   C     C_R   0.293914 0.721214 0.390359 -0.052008
C52   C     C_R   0.295264 0.279736 0.888588 -0.017933
C53   C     C_R   0.804659 0.271822 0.301991 0.000749
C54   C     C_R   0.810434 0.731947 0.794924 0.070274
C55   C     C_R   0.305249 0.771414 0.300619 0.005777
C56   C     C_R   0.305457 0.228730 0.800452 0.039336
C57   C     C_R   0.768108 0.276627 0.136991 0.092971
C58   C     C_R   0.771300 0.725513 0.632780 0.122449
C59   C     C_R   0.268235 0.776429 0.136259 0.102216
C60   C     C_R   0.268436 0.223618 0.635990 0.117344
C61   C     C_R   0.853261 0.316262 0.370831 -0.032439
C62   C     C_R   0.859337 0.687562 0.863495 0.046771
C63   C     C_R   0.354806 0.815277 0.367826 -0.037686
C64   C     C_R   0.353928 0.184093 0.869507 0.022700
C65   C     C_R   0.123727 0.643481 0.925493 -0.236979
C66   C     C_R   0.123871 0.356841 0.424809 -0.236764
C67   C     C_R   0.624418 0.143223 0.924946 -0.234849
C68   C     C_R   0.622944 0.856378 0.424823 -0.228366
C69   C     C_3   0.047373 0.140387 0.121774 -0.188915
C70   C     C_3   0.053665 0.862400 0.625838 -0.154337
C71   C     C_3   0.542519 0.641371 0.132193 -0.232856
C72   C     C_3   0.553090 0.362832 0.619447 -0.165509
C73   C     C_3   0.255089 0.515189 0.127697 0.235510
C74   C     C_3   0.256103 0.482724 0.630023 0.190714
C75   C     C_3   0.753910 0.014188 0.124958 0.229309
C76   C     C_3   0.757174 0.982835 0.634747 0.185522
C77   C     C_3   0.330401 0.526811 0.216468 0.194881
C78   C     C_3   0.331656 0.477395 0.723495 0.280465
C79   C     C_3   0.828903 0.029467 0.208528 0.190369
C80   C     C_3   0.832650 0.984861 0.730399 0.275778
C81   C     C_3   0.779306 0.523154 0.054085 0.243786
C82   C     C_3   0.774852 0.479029 0.554066 0.260299
C83   C     C_3   0.276239 0.022933 0.051795 0.281583
C84   C     C_3   0.276838 0.977419 0.552946 0.257417
C85   C     C_3   0.704415 0.544830 0.026182 0.369966
C86   C     C_3   0.697490 0.466781 0.531181 0.300853
C87   C     C_3   0.199159 0.037143 0.029835 0.290663
C88   C     C_3   0.199896 0.963358 0.530587 0.309164
C89   C     C_3   0.014550 0.243436 0.582640 0.319032
C90   C     C_3   0.014766 0.758414 0.087035 0.293577
C91   C     C_3   0.505510 0.735954 0.570970 0.350373
C92   C     C_3   0.513160 0.257136 0.080917 0.297953
C93   C     C_R   0.135558 0.691703 0.830775 -0.002086
C94   C     C_R   0.136125 0.308750 0.329822 -0.003228
C95   C     C_R   0.636251 0.191442 0.830190 -0.014013
C96   C     C_R   0.635102 0.808185 0.329740 -0.026033
H1    H     H_    0.050112 0.266960 0.684520 0.070309
H2    H     H_    0.052535 0.734057 0.183292 0.079900
H3    H     H_    0.550077 0.748902 0.671022 0.054284
H4    H     H_    0.549594 0.231050 0.175830 0.072669
H5    H     H_    0.331975 0.556990 0.321226 0.061978
H6    H     H_    0.335051 0.450656 0.835548 0.064492
H7    H     H_    0.829801 0.062348 0.306858 0.071176
H8    H     H_    0.838196 0.961009 0.847803 0.058860
H9    H     H_    0.358406 0.549061 0.133817 0.114006
H10   H     H_    0.362779 0.454294 0.648563 0.143093
H11   H     H_    0.855201 0.049779 0.119767 0.111564
H12   H     H_    0.866630 0.962163 0.661495 0.137631
H13   H     H_    0.814922 0.560936 0.051202 0.088399
H14   H     H_    0.803011 0.436698 0.547518 0.032662
H15   H     H_    0.305548 0.064330 0.042927 0.055751
H16   H     H_    0.306274 0.935871 0.545118 0.043552
H17   H     H_    0.793039 0.500325 0.171790 0.066598
H18   H     H_    0.793385 0.500583 0.672677 0.061601
H19   H     H_    0.294842 0.002080 0.171130 0.065052
H20   H     H_    0.295019 0.998723 0.671880 0.066254
H21   H     H_    0.667823 0.508353 0.976719 0.102468
H22   H     H_    0.668511 0.509535 0.517167 0.103070
H23   H     H_    0.169065 0.995148 0.015471 0.103844
H24   H     H_    0.169627 0.005435 0.516913 0.128791
H25   H     H_    0.693006 0.559385 0.142726 0.004494
H26   H     H_    0.688229 0.444192 0.640786 -0.020518
H27   H     H_    0.190313 0.060080 0.139455 0.000220
H28   H     H_    0.191206 0.940191 0.639813 -0.007893
H29   H     H_    0.014103 0.266596 0.466147 -0.025741
H30   H     H_    0.012663 0.737111 0.967099 -0.038223
H31   H     H_    0.505957 0.764185 0.463213 -0.062564
H32   H     H_    0.510498 0.237069 0.959235 -0.024364
H33   H     H_    0.039009 0.156892 0.687040 0.219983
H34   H     H_    0.093732 0.822027 0.063057 0.093374
H35   H     H_    0.565705 0.663100 0.504216 0.084634
H36   H     H_    0.595119 0.318824 0.064604 0.083616
H37   H     H_    0.008679 0.156659 0.468988 0.144426
H38   H     H_    0.038090 0.844214 0.196230 0.230376
H39   H     H_    0.503938 0.641677 0.623258 0.230703
H40   H     H_    0.540820 0.340530 0.200825 0.226567
H41   H     H_    0.017366 0.112717 0.190176 0.110829
H42   H     H_    0.027043 0.891207 0.699637 0.111237
H43   H     H_    0.516425 0.616722 0.214760 0.094967
H44   H     H_    0.528780 0.392156 0.696713 0.117707
H45   H     H_    0.751802 0.364514 0.799583 0.079221
H46   H     H_    0.750247 0.634129 0.301904 0.112868
H47   H     H_    0.252046 0.864093 0.798971 0.083113
H48   H     H_    0.251333 0.134873 0.300206 0.099151
H49   H     H_    0.179745 0.784759 0.678107 0.116005
H50   H     H_    0.178777 0.213735 0.177838 0.128486
H51   H     H_    0.680039 0.284957 0.677910 0.113291
H52   H     H_    0.675275 0.711933 0.180070 0.138945
H53   H     H_    0.820162 0.215437 0.516990 0.150186
H54   H     H_    0.828311 0.790090 0.006836 0.143494
H55   H     H_    0.320414 0.715236 0.516089 0.142141
H56   H     H_    0.322137 0.286025 0.013941 0.144655
H57   H     H_    0.246993 0.637175 0.392642 0.102535
H58   H     H_    0.248729 0.364209 0.889437 0.107238
H59   H     H_    0.747096 0.137130 0.392695 0.111020
H60   H     H_    0.750619 0.866022 0.885902 0.102219
H61   H     H_    0.903118 0.397352 0.328745 0.035655
H62   H     H_    0.907953 0.605372 0.823797 0.027356
H63   H     H_    0.405812 0.895567 0.324983 0.034234
H64   H     H_    0.403065 0.102208 0.828824 0.030519
H65   H     H_    0.086732 0.609802 0.870462 0.067396
H66   H     H_    0.086729 0.390591 0.369923 0.062568
H67   H     H_    0.587402 0.109560 0.869919 0.067367
H68   H     H_    0.585276 0.889812 0.370455 0.061649
H69   H     H_    0.095986 0.181607 0.560141 0.088696
H70   H     H_    0.005340 0.846118 0.978576 0.134341
H71   H     H_    0.472992 0.660238 0.415958 0.156835
H72   H     H_    0.507993 0.346589 0.983657 0.148422
H73   H     H_    0.042480 0.220022 0.255919 -0.384117
H74   H     H_    0.042333 0.782790 0.756676 -0.313234
H75   H     H_    0.532496 0.724224 0.249021 -0.211568
H76   H     H_    0.549076 0.284915 0.761609 -0.248217
H77   H     H_    0.036899 0.124846 0.993938 0.171207
H78   H     H_    0.042222 0.879635 0.499300 0.203547
H79   H     H_    0.526365 0.620429 0.011099 0.220288
H80   H     H_    0.537164 0.378217 0.491485 0.209126
H81   H     H_    0.103067 0.133687 0.178372 0.040511
H82   H     H_    0.109893 0.866110 0.678550 0.039117
H83   H     H_    0.599155 0.635601 0.177639 0.049293
H84   H     H_    0.609853 0.367457 0.662248 0.047486
H85   H     H_    0.251305 0.471904 0.063062 0.116586
H86   H     H_    0.248802 0.523414 0.553795 0.102317
H87   H     H_    0.751985 0.969685 0.067155 0.114429
H88   H     H_    0.746127 0.020728 0.548777 0.106302
H89   H     H_    0.239517 0.549340 0.031196 -0.012089
H90   H     H_    0.244969 0.444832 0.543876 -0.002910
H91   H     H_    0.735784 0.045987 0.023361 -0.006079
H92   H     H_    0.750999 0.941751 0.560268 0.001335
O1    O     O_2   0.860260 0.414960 0.826400 -0.479752
O2    O     O_2   0.860260 0.585040 0.326400 -0.488700
O3    O     O_2   0.360260 0.914960 0.826400 -0.478031
O4    O     O_2   0.360260 0.085040 0.326400 -0.491931
O5    O     O_3   0.213039 0.486671 0.741725 -0.637617
O6    O     O_3   0.213037 0.512871 0.241858 -0.634835
O7    O     O_3   0.712991 0.986758 0.743784 -0.642957
O8    O     O_3   0.712943 0.012760 0.241501 -0.631848
O9    O     O_3   0.059393 0.239238 0.023748 -0.603330
O10   O     O_3   0.058349 0.762234 0.523972 -0.606635
O11   O     O_3   0.557374 0.738645 0.023567 -0.619427
O12   O     O_3   0.557390 0.261996 0.524292 -0.599872
O13   O     O_3   0.081330 0.529680 0.090830 -0.464922
O14   O     O_3   0.081330 0.470320 0.590830 -0.463780
O15   O     O_3   0.581330 0.029680 0.090830 -0.464757
O16   O     O_3   0.581330 0.970320 0.590830 -0.465162
O17   O     O_3   0.918600 0.470180 0.098890 -0.496668
O18   O     O_3   0.918600 0.529820 0.598890 -0.492631
O19   O     O_3   0.418600 0.970180 0.098890 -0.496706
O20   O     O_3   0.418600 0.029820 0.598890 -0.492336
O21   O     O_3   0.975750 0.362410 0.628650 -0.503397
O22   O     O_3   0.975750 0.637590 0.128650 -0.510563
O23   O     O_3   0.475750 0.862410 0.628650 -0.493022
O24   O     O_3   0.475750 0.137590 0.128650 -0.505334
O25   O     O_2   0.865865 0.313407 0.710707 -0.429665
O26   O     O_2   0.861365 0.684642 0.194553 -0.440756
O27   O     O_2   0.361210 0.817562 0.700823 -0.431791
O28   O     O_2   0.363740 0.185538 0.205076 -0.476152
O29   O     O_3   0.784438 0.484171 0.930506 -0.675361
O30   O     O_3   0.784307 0.516116 0.429746 -0.653410
O31   O     O_3   0.284251 0.984235 0.929262 -0.661783
O32   O     O_3   0.284945 0.015483 0.429417 -0.652344
O33   O     O_3   0.947769 0.240229 0.612272 -0.528397
O34   O     O_3   0.949465 0.759686 0.125727 -0.556952
O35   O     O_3   0.443984 0.740975 0.625190 -0.521169
O36   O     O_3   0.447382 0.259651 0.116797 -0.544308
O37   O     O_2   0.139400 0.414340 0.863230 -0.452271
O38   O     O_2   0.139400 0.585660 0.363230 -0.451773
O39   O     O_2   0.639400 0.914340 0.863230 -0.449791
O40   O     O_2   0.639400 0.085660 0.363230 -0.454082
O41   O     O_3   0.023740 0.362300 0.060930 -0.432259
O42   O     O_3   0.023740 0.637700 0.560930 -0.474364
O43   O     O_3   0.523740 0.862300 0.060930 -0.434796
O44   O     O_3   0.523740 0.137700 0.560930 -0.465500
O45   O     O_2   0.144411 0.323665 0.016870 -0.474392
O46   O     O_2   0.143376 0.677059 0.518388 -0.478442
O47   O     O_2   0.643600 0.822554 0.015369 -0.464096
O48   O     O_2   0.642873 0.177506 0.516018 -0.480535
P1    P     P_3+3 0.853370 0.434890 0.996520 0.986681
P2    P     P_3+3 0.853370 0.565110 0.496520 0.966201
P3    P     P_3+3 0.353370 0.934890 0.996520 0.988111
P4    P     P_3+3 0.353370 0.065110 0.496520 0.964886
P5    P     P_3+3 0.146350 0.434230 0.693140 0.995441
P6    P     P_3+3 0.146350 0.565770 0.193140 0.991094
P7    P     P_3+3 0.646350 0.934230 0.693140 0.996698
P8    P     P_3+3 0.646350 0.065770 0.193140 0.991044
P9    P     P_3+3 0.089373 0.308015 0.112222 1.043033
P10   P     P_3+3 0.088121 0.693023 0.613280 0.983162
P11   P     P_3+3 0.588560 0.807379 0.111486 1.024382
P12   P     P_3+3 0.588178 0.192984 0.612894 0.993274
P13   P     P_3+3 0.910045 0.690694 0.076623 1.007470
P14   P     P_3+3 0.908856 0.310340 0.579712 1.029403
P15   P     P_3+3 0.408723 0.189750 0.078644 0.998639
P16   P     P_3+3 0.407806 0.811266 0.578635 1.032835
S1    S     S_3+6 0.375056 0.459252 0.286191 -0.025566
O49   O     O_2   0.327165 0.418130 0.347780 -0.260028
O50   O     O_2   0.398661 0.429513 0.148798 -0.256583
O51   O     O_3   0.444515 0.474263 0.437309 -0.462986
H93   H     H_    0.471945 0.503374 0.390410 0.353987
S2    S     S_3+6 0.368608 0.548836 0.776020 -0.043653
O52   O     O_2   0.431410 0.542210 0.913848 -0.236055
O53   O     O_2   0.390276 0.575437 0.632239 -0.296945
O54   O     O_3   0.310237 0.593702 0.832896 -0.541224
H94   H     H_    0.284825 0.613543 0.731840 0.341127
S3    S     S_3+6 0.876945 0.964830 0.290501 -0.025109
O55   O     O_2   0.831216 0.924125 0.360297 -0.253031
O56   O     O_2   0.901682 0.932645 0.158276 -0.267425
O57   O     O_3   0.945815 0.984700 0.437879 -0.453141
H95   H     H_    0.972754 0.012082 0.384286 0.357422
S4    S     S_3+6 0.862305 0.059416 0.768165 -0.049473
O58   O     O_2   0.927431 0.058667 0.900950 -0.264876
O59   O     O_2   0.878455 0.085478 0.617269 -0.281135
O60   O     O_3   0.801732 0.101335 0.826464 -0.535064
H96   H     H_    0.770326 0.115208 0.724195 0.336325
S5    S     S_3+6 0.690065 0.605452 0.887702 -0.156167
O61   O     O_2   0.728747 0.658655 0.968803 -0.383393
O62   O     O_2   0.714416 0.590089 0.737329 -0.377959
O63   O     O_3   0.605407 0.620839 0.835274 -0.527765
H97   H     H_    0.602958 0.664763 0.837325 0.361118
S6    S     S_3+6 0.664013 0.421647 0.356189 -0.142980
O64   O     O_2   0.590426 0.440569 0.285118 -0.271867
O65   O     O_2   0.705183 0.428685 0.228970 -0.373542
O66   O     O_3   0.665967 0.349714 0.410376 -0.551262
H98   H     H_    0.715317 0.341575 0.461978 0.304555
S7    S     S_3+6 0.166393 0.082381 0.854703 -0.153188
O67   O     O_2   0.157098 0.145172 0.906640 -0.351563
O68   O     O_2   0.215655 0.082603 0.744031 -0.367526
O69   O     O_3   0.089960 0.054609 0.751845 -0.500853
H99   H     H_    0.065117 0.042786 0.836049 0.351931
S8    S     S_3+6 0.167859 0.918244 0.355166 -0.154625
O70   O     O_2   0.097261 0.940967 0.271081 -0.283330
O71   O     O_2   0.214597 0.920823 0.238708 -0.393625
O72   O     O_3   0.162172 0.847165 0.411019 -0.550762
H100  H     H_    0.210839 0.834733 0.455989 0.313461
S9    S     S_3+6 0.936208 0.212663 0.057720 -0.044492
O73   O     O_2   0.917985 0.277116 0.058251 -0.342260
O74   O     O_2   0.914002 0.189257 0.887185 -0.194247
O75   O     O_3   0.896861 0.174621 0.182076 -0.574133
H101  H     H_    0.851999 0.161825 0.112237 0.364586
S10   S     S_3+6 0.937583 0.797812 0.556740 -0.047244
O76   O     O_2   0.903543 0.830858 0.672258 -0.332264
O77   O     O_2   0.917465 0.825721 0.391030 -0.184698
O78   O     O_3   0.912286 0.727225 0.543470 -0.578496
H102  H     H_    0.932081 0.710503 0.456077 0.370378
S11   S     S_3+6 0.431338 0.712212 0.036839 -0.053665
O79   O     O_2   0.412229 0.776524 0.016265 -0.317472
O80   O     O_2   0.414836 0.682490 0.873449 -0.200629
O81   O     O_3   0.386942 0.679057 0.159077 -0.597737
H103  H     H_    0.344944 0.662659 0.085332 0.370199
S12   S     S_3+6 0.439198 0.295590 0.577741 -0.053407
O82   O     O_2   0.408216 0.331627 0.693322 -0.327757
O83   O     O_2   0.412661 0.318017 0.407122 -0.191683
O84   O     O_3   0.417720 0.224561 0.587304 -0.595648
H104  H     H_    0.423737 0.207199 0.484103 0.369471

loop_
_geom_bond_atom_site_label_1
_geom_bond_atom_site_label_2
_ccdc_geom_bond_type
C18   H50   S    
C83   C87   S    
C86   S6    S    
Ba4   O44   S    
C87   S7    S    
C9    C21   A    
O42   P10   S    
C45   H73   S    
O30   P2    S    
C85   H25   S    
C27   C63   A    
S6    O64   D    
C80   H12   S    
C87   H27   S    
Ba4   O40   S    
C51   C55   A    
C6    C38   A    
Ba3   O23   S    
O28   P15   D    
C36   C44   A    
Ba3   O43   S    
O31   P3    S    
S4    O58   D    
C2    C90   S    
S7    O68   D    
C74   H86   S    
C71   H79   S    
C83   H15   S    
O38   P6    D    
C29   C65   A    
C43   C49   A    
C31   C67   A    
C75   H91   S    
O22   P13   S    
C76   H92   S    
O8    P8    S    
Ba4   O16   S    
C77   H5    S    
C46   O10   S    
C21   C25   A    
C23   C27   A    
C24   C28   A    
O14   P5    S    
O18   P2    S    
C82   C86   S    
C89   H1    S    
C67   C95   A    
Ba3   O3    S    
C83   O31   S    
Ba1   O1    S    
C69   H81   S    
C74   C78   S    
C11   C23   A    
C70   H78   S    
C62   P13   S    
C12   C16   A    
C86   H26   S    
C29   P6    S    
C10   C22   A    
C45   S9    S    
C71   H43   S    
C72   H44   S    
Ba2   O22   S    
O24   P15   S    
C92   H4    S    
C45   C69   S    
C37   C59   A    
Ba3   O39   S    
C38   C60   A    
O75   H101  S    
C39   C57   A    
C35   C43   A    
Ba4   O4    S    
C75   O8    S    
C5    C37   A    
O39   P7    D    
C50   H54   S    
C94   P9    S    
S2    O53   D    
C53   C57   A    
C55   C59   A    
C4    H40   S    
C56   C60   A    
Ba3   O15   S    
S8    O71   D    
C1    H37   S    
C8    C40   A    
Ba1   P5    S    
C5    C17   A    
S4    O60   S    
C7    C19   A    
O25   P14   D    
C91   O35   S    
C89   O33   S    
C90   H2    S    
C24   P4    S    
S1    O50   D    
C49   H53   S    
Ba4   O24   S    
C52   H56   S    
C43   H59   S    
C63   P16   S    
C51   H55   S    
C44   H60   S    
C13   C19   A    
C14   C20   A    
C92   O36   S    
C15   C17   A    
C46   C70   S    
S3    O57   S    
C10   C58   A    
S12   O82   D    
C7    C95   A    
S1    O49   D    
O5    P5    S    
C55   C63   A    
C84   O32   S    
Ba2   O14   S    
C17   H49   S    
C73   O6    S    
O37   P5    D    
C87   H23   S    
S5    O61   D    
O46   P10   D    
S9    O74   D    
O44   P12   S    
C91   H3    S    
C76   H88   S    
C45   O9    S    
C41   H57   S    
O63   H97   S    
Ba1   O41   S    
C76   O7    S    
C48   S12   S    
O40   P8    D    
C83   H19   S    
C46   S10   S    
C88   S8    S    
C85   S5    S    
C1    H33   S    
Ba1   O14   S    
Ba2   P2    S    
O11   P11   S    
C22   C26   A    
O9    P9    S    
C25   C61   A    
Ba3   Ba4   S    
C2    H70   S    
O3    P3    D    
Ba2   O17   S    
O1    P1    D    
O51   H93   S    
C48   C72   S    
C49   C53   A    
S3    O55   D    
S2    O52   D    
C70   H82   S    
C21   P1    S    
C8    C20   A    
S6    O65   D    
S12   O84   S    
C9    C13   A    
S11   O81   S    
C73   H89   S    
C81   H13   S    
S10   O77   D    
C64   P15   S    
C28   H64   S    
C78   H6    S    
C33   C37   A    
C65   H65   S    
C34   C42   A    
Ba2   O38   S    
C36   C40   A    
C41   C51   A    
S6    O66   S    
S4    O59   D    
S5    O63   S    
C42   C52   A    
C32   P7    S    
C81   O29   S    
Ba4   P4    S    
C32   C68   A    
C65   C93   A    
C54   C58   A    
C3    H71   S    
C4    H36   S    
O60   H96   S    
C76   C80   S    
C96   P11   S    
S2    O54   S    
O41   P9    S    
C69   H41   S    
C6    C18   A    
C11   C15   A    
C31   P8    S    
Ba4   O19   S    
C88   H24   S    
C50   C54   A    
O69   H99   S    
C20   H52   S    
Ba2   O42   S    
O34   P13   S    
C74   H90   S    
C78   S2    S    
C84   H20   S    
C30   C66   A    
O84   H104  S    
C91   H31   S    
O21   P14   S    
Ba3   P7    S    
C89   H29   S    
C47   O11   S    
C82   O30   S    
S11   O79   D    
O19   P3    S    
O13   P6    S    
O72   H100  S    
C81   C85   S    
O29   P1    S    
C15   H47   S    
C52   C56   A    
C23   P3    S    
Ba2   O2    S    
C31   C35   A    
O66   H98   S    
O36   P15   S    
S7    O67   D    
C73   C77   S    
C61   P14   S    
C30   P5    S    
S7    O69   S    
C82   H18   S    
C90   H30   S    
C47   H75   S    
O35   P16   S    
C77   H9    S    
O48   P12   D    
O17   P1    S    
Ba1   O21   S    
C79   H11   S    
Ba4   O15   S    
O81   H103  S    
C5    C93   A    
C53   C61   A    
C95   P12   S    
C72   H80   S    
C93   P10   S    
C82   H14   S    
S1    O51   S    
Ba2   P6    S    
C75   C79   S    
S3    O56   D    
C85   H21   S    
O6    P6    S    
C80   H8    S    
S12   O83   D    
C29   C33   A    
C8    C96   A    
C90   O34   S    
C56   C64   A    
O20   P4    S    
O78   H102  S    
C68   H68   S    
C1    H69   S    
O57   H95   S    
C48   O12   S    
C4    H72   S    
C42   H58   S    
C12   C24   A    
C73   H85   S    
S9    O73   D    
C10   C14   A    
C13   H45   S    
C4    C92   S    
O43   P11   S    
C71   H83   S    
O15   P8    S    
C44   C50   A    
S10   O78   S    
C75   H87   S    
O4    P4    D    
Ba3   O16   S    
C78   H10   S    
S8    O70   D    
C47   C71   S    
C34   C38   A    
C66   H66   S    
C2    H38   S    
Ba1   Ba2   S    
C6    C94   A    
Ba4   P8    S    
C54   C62   A    
C84   C88   S    
O33   P14   S    
C7    C39   A    
C74   O5    S    
Ba1   O13   S    
O54   H94   S    
O7    P7    S    
C92   H32   S    
C69   H77   S    
C70   H42   S    
C86   H22   S    
O45   P9    D    
C88   H28   S    
C27   H63   S    
O27   P16   D    
C80   S4    S    
O47   P11   D    
C25   H61   S    
C32   C36   A    
O32   P4    S    
C35   C39   A    
C40   C58   A    
S11   O80   D    
C84   H16   S    
C81   H17   S    
C3    H35   S    
C16   H48   S    
Ba2   O13   S    
Ba3   P3    S    
C26   C62   A    
Ba1   P1    S    
C47   S11   S    
O10   P10   S    
S5    O62   D    
S9    O75   S    
C68   C96   A    
Ba3   O20   S    
C19   H51   S    
S10   O76   D    
O2    P2    D    
Ba1   O18   S    
C30   C34   A    
S8    O72   S    
C16   C18   A    
C14   H46   S    
C1    C89   S    
C22   P2    S    
C26   H62   S    
C3    C91   S    
C77   S1    S    
C28   C64   A    
C46   H74   S    
C79   S3    S    
O16   P7    S    
C2    H34   S    
C3    H39   S    
O23   P16   S    
O26   P13   D    
C79   H7    S    
O12   P12   S    
Ba1   O37   S    
C9    C57   A    
C11   C59   A    
C48   H76   S    
C67   H67   S    
C12   C60   A    
C72   H84   S    
C33   C41   A    
C66   C94   A    
