data_mof_unit_47219.cif
_audit_creation_date              2012-12-10T16:54:56-0500
_audit_creation_method            fapswitch 2.2
_symmetry_space_group_name_H-M    P1
_symmetry_Int_Tables_number       1
_space_group_crystal_system       triclinic
_cell_length_a                    7.845292
_cell_length_b                    8.585876
_cell_length_c                    15.719089
_cell_angle_alpha                 91.640893
_cell_angle_beta                  85.837406
_cell_angle_gamma                 93.202
_cell_volume                      1054.05447243

loop_
_atom_site_label
_atom_site_type_symbol
_atom_type_description
_atom_site_fract_x
_atom_site_fract_y
_atom_site_fract_z
_atom_type_partial_charge
C1    C     C_R   0.545132 0.794296 0.497964 0.964250
C2    C     C_3   0.355875 0.618043 0.055089 0.204622
C3    C     C_3   0.487427 0.503388 0.083336 -0.038900
C4    C     C_3   0.442693 0.335912 0.047816 0.129102
C5    C     C_3   0.437529 0.339126 0.949494 0.148212
C6    C     C_1   0.488770 0.500998 0.174899 0.103417
C7    C     C_1   0.505154 0.504236 0.825293 0.114839
C8    C     C_1   0.506227 0.502638 0.749938 -0.056066
C9    C     C_2   0.568930 0.957635 0.496958 -0.335029
C10   C     C_2   0.431056 0.042365 0.503640 -0.331042
C11   C     C_R   0.501982 0.500718 0.661311 0.897275
C12   C     C_R   0.454851 0.205704 0.502216 0.953838
C13   C     C_R   0.497953 0.499494 0.338662 0.884334
C14   C     C_3   0.371188 0.628500 0.955352 0.375095
C15   C     C_3   0.677430 0.546764 0.947950 -0.342653
C16   C     C_3   0.669287 0.555913 0.046074 -0.431622
C17   C     C_1   0.492776 0.499892 0.250036 -0.084531
C18   C     C_3   0.497261 0.504830 0.917232 -0.064086
H1    H     H_    0.225624 0.569945 0.075801 0.152164
H2    H     H_    0.543505 0.258371 0.064821 0.220485
H3    H     H_    0.699569 0.007674 0.490606 0.190824
H4    H     H_    0.300425 0.992305 0.510069 0.195587
H5    H     H_    0.012538 0.381736 0.435739 0.179053
H6    H     H_    0.766461 0.456407 0.924535 0.248967
H7    H     H_    0.731106 0.659467 0.921746 0.260217
H8    H     H_    0.703379 0.677544 0.067655 0.267357
H9    H     H_    0.766394 0.480307 0.069069 0.214577
H10   H     H_    0.305341 0.309813 0.931035 0.195652
N1    N     N_2   0.950340 0.457950 0.477370 -0.134252
N2    N     N_2   0.049660 0.542050 0.522630 0.003895
O1    O     O_R   0.389240 0.738570 0.505550 -0.606171
O2    O     O_R   0.678400 0.711630 0.491050 -0.604553
O3    O     O_R   0.355360 0.513470 0.630110 -0.590712
O4    O     O_R   0.644510 0.486530 0.615610 -0.594256
O5    O     O_R   0.321600 0.288370 0.508950 -0.632161
O6    O     O_R   0.610760 0.261430 0.494450 -0.616077
O7    O     O_R   0.355490 0.513470 0.384390 -0.619592
O8    O     O_R   0.644640 0.486530 0.369890 -0.612268
Zn1   Zn    Zn3+2 0.306930 0.517990 0.509680 1.026976
Zn2   Zn    Zn3+2 0.693070 0.482010 0.490320 1.019819
Cl1   Cl    Cl    0.372866 0.804808 0.110518 -0.454835
I1    I     I_    0.121830 0.592951 0.907121 -0.275382
I2    I     I_    0.962933 0.705879 0.612825 -0.133895
Cl2   Cl    Cl    0.442229 0.819696 0.918932 -0.397535
Cl3   Cl    Cl    0.566281 0.190362 0.899916 -0.469967
Cl4   Cl    Cl    0.244279 0.252040 0.095249 -0.524972

loop_
_geom_bond_atom_site_label_1
_geom_bond_atom_site_label_2
_ccdc_geom_bond_type
C15   C18   S    
O5    Zn1   S    
N1    N2    D    
C11   O3    A    
C12   O6    A    
C5    H10   S    
C9    C10   D    
C14   C18   S    
C13   O7    A    
C13   C17   S    
C14   I1    S    
C3    C6    S    
C7    C18   S    
C16   H9    S    
C2    C3    S    
C7    C8    T    
O7    Zn1   S    
C4    Cl4   S    
C10   H4    S    
C12   O5    A    
O8    Zn2   S    
C9    H3    S    
C13   O8    A    
O3    Zn1   S    
C10   C12   S    
C8    C11   S    
O4    Zn2   S    
H5    N1    S    
N1    Zn2   S    
C15   H6    S    
O1    Zn1   S    
N2    Zn1   S    
O2    Zn2   S    
C16   H8    S    
C2    C14   S    
N2    I2    S    
C15   H7    S    
C1    O2    A    
C2    Cl1   S    
C3    C4    S    
C4    H2    S    
C1    O1    A    
C1    C9    S    
C14   Cl2   S    
C6    C17   T    
O6    Zn2   S    
C5    C18   S    
C2    H1    S    
C5    Cl3   S    
C11   O4    A    
C3    C16   S    
C15   C16   S    
C4    C5    S    
