data_mof_unit_17306.cif
_audit_creation_date              2013-03-05T16:43:43-0500
_audit_creation_method            fapswitch 2.2
_symmetry_space_group_name_H-M    P1
_symmetry_Int_Tables_number       1
_space_group_crystal_system       triclinic
_cell_length_a                    15.72727
_cell_length_b                    10.638233
_cell_length_c                    9.897016
_cell_angle_alpha                 89.939338
_cell_angle_beta                  90.348902
_cell_angle_gamma                 90.256948
_cell_volume                      1655.82510381

loop_
_atom_site_label
_atom_site_type_symbol
_atom_site_description
_atom_site_fract_x
_atom_site_fract_y
_atom_site_fract_z
_atom_type_partial_charge
O1    O     O_R   0.500010 0.316790 0.614690 -0.632889
O2    O     O_R   0.500000 0.316760 0.385350 -0.602731
C1    C     C_R   0.499654 0.260635 0.500021 0.892735
O3    O     O_R   0.376780 0.500010 0.614650 -0.614097
O4    O     O_R   0.376770 0.499970 0.385310 -0.599726
C2    C     C_R   0.338053 0.499926 0.499652 0.908960
Zn1   Zn    Zn3+2 0.500010 0.500020 0.653130 0.963890
Zn2   Zn    Zn3+2 0.499990 0.499980 0.346870 0.987104
O5    O     O_R   0.500000 0.683240 0.614650 -0.611268
O6    O     O_R   0.499990 0.683210 0.385310 -0.575495
O7    O     O_R   0.623230 0.500030 0.614690 -0.588702
O8    O     O_R   0.623220 0.499990 0.385350 -0.633090
C3    C     C_R   0.497699 0.739505 0.499402 0.916689
C4    C     C_R   0.661934 0.500273 0.500391 0.899037
C5    C     C_3   0.971614 0.387195 0.531800 0.240251
C6    C     C_3   0.026218 0.419994 0.409584 0.215872
H1    H     H_    0.946443 0.564780 0.275641 0.148247
C7    C     C_1   0.249265 0.499926 0.499234 -0.145661
C8    C     C_1   0.750702 0.501220 0.501212 -0.191120
C9    C     C_3   0.028532 0.466999 0.626238 -0.270077
C10   C     C_3   0.083291 0.499972 0.501597 0.033093
C11   C     C_3   0.972402 0.584276 0.595594 -0.191786
C12   C     C_3   0.916621 0.502286 0.501275 0.062710
C13   C     C_3   0.027860 0.614285 0.471702 0.256061
C14   C     C_3   0.970973 0.535683 0.376276 -0.259267
C15   C     C_1   0.174063 0.499948 0.500027 -0.038855
C16   C     C_1   0.825899 0.501989 0.501530 -0.059670
H2    H     H_    0.948316 0.652975 0.670374 0.146165
H3    H     H_    0.053492 0.438262 0.726720 0.162129
C17   C     C_R   0.563700 0.063899 0.563048 0.110256
C18   C     C_R   0.499284 0.129084 0.497861 -0.129380
C19   C     C_R   0.439643 0.067021 0.416643 -0.279400
H4    H     H_    0.392138 0.119358 0.360375 0.178368
C20   C     C_R   0.438480 0.936856 0.413863 0.300920
C21   C     C_R   0.497668 0.871624 0.495260 -0.220882
C22   C     C_R   0.562735 0.935573 0.561978 0.079618
C23   C     C_3   0.592404 0.927288 0.705355 -0.457379
C24   C     C_3   0.593356 0.069819 0.706496 -0.480660
H5    H     H_    0.543771 0.886094 0.773680 0.220113
H6    H     H_    0.656940 0.885714 0.713668 0.195720
H7    H     H_    0.545269 0.110450 0.775280 0.210253
H8    H     H_    0.658312 0.110613 0.715934 0.195142
C25   C     C_R   0.435440 0.444600 0.069703 0.220225
N1    N     N_R   0.499430 0.499140 0.142800 -0.113754
C26   C     C_R   0.559686 0.564714 0.073297 -0.172859
H9    H     H_    0.608550 0.614909 0.128927 0.156165
C27   C     C_R   0.561274 0.562616 0.929282 0.243329
N2    N     N_R   0.499430 0.499180 0.857150 -0.119969
C28   C     C_R   0.433626 0.448515 0.927911 0.137156
C29   C     C_3   0.399693 0.317888 0.915982 -0.531894
C30   C     C_3   0.405420 0.310236 0.069836 -0.030123
H10   H     H_    0.333057 0.317246 0.877916 0.190020
H11   H     H_    0.442314 0.253687 0.860406 0.220555
H12   H     H_    0.342320 0.299294 0.118699 0.137609
N3    N     N_2   0.058862 0.333089 0.310333 -0.300905
H13   H     H_    0.105656 0.274696 0.347304 0.227379
C31   C     C_3   0.995150 0.268918 0.229965 -0.768794
H14   H     H_    0.026765 0.213050 0.150175 0.237786
H15   H     H_    0.952345 0.337839 0.180135 0.241389
H16   H     H_    0.957181 0.204282 0.294161 0.256325
N4    N     N_2   0.627901 0.625354 0.860520 -0.256400
H17   H     H_    0.631732 0.718988 0.886499 0.200808
C32   C     C_3   0.709847 0.564886 0.873838 -0.772806
H18   H     H_    0.733783 0.572108 0.979454 0.210922
H19   H     H_    0.756178 0.611799 0.805961 0.235952
H20   H     H_    0.705253 0.464106 0.844992 0.253735
N5    N     N_2   0.466382 0.216583 0.117710 -0.262145
H21   H     H_    0.443491 0.126069 0.107408 0.245774
C33   C     C_3   0.556247 0.227791 0.086099 -0.698468
H22   H     H_    0.588613 0.137615 0.109154 0.216264
H23   H     H_    0.586798 0.300720 0.149904 0.261800
H24   H     H_    0.566492 0.250063 0.978000 0.212981
N6    N     N_2   0.936374 0.264873 0.564173 -0.309171
H25   H     H_    0.885388 0.269947 0.628890 0.225584
C34   C     C_3   0.997641 0.171330 0.605474 -0.799844
H26   H     H_    0.964822 0.079746 0.619993 0.241211
H27   H     H_    0.028375 0.199070 0.702377 0.238604
H28   H     H_    0.046874 0.158999 0.526994 0.253626
N7    N     N_2   0.062385 0.737003 0.439754 -0.278249
H29   H     H_    0.106258 0.734493 0.362836 0.256696
C35   C     C_3   0.999838 0.834877 0.422252 -0.766368
H30   H     H_    0.032561 0.926061 0.404475 0.251835
H31   H     H_    0.960486 0.843895 0.514495 0.238008
H32   H     H_    0.958193 0.813726 0.333991 0.229404
N8    N     N_R   0.372827 0.873459 0.338954 0.199750
O9    O     O_R   0.391900 0.812569 0.229408 -0.385652
O10   O     O_R   0.293619 0.900409 0.361956 -0.414690

loop_
_geom_bond_atom_site_label_1
_geom_bond_atom_site_label_2
_geom_bond_distance
_ccdc_geom_bond_type
N3    H13   1.030401 S    
C32   H19   1.110546 S    
C6    C10   1.530922 S    
N6    H25   1.030957 S    
C21   C22   1.390150 A    
C7    C15   1.182808 T    
C10   C15   1.427770 S    
C35   H30   1.110426 S    
C26   H9    1.081955 S    
Zn1   O7    1.977174 S    
C22   C23   1.493683 S    
C24   H8    1.111599 S    
C23   H6    1.111526 S    
O4    C2    1.288327 A    
O7    C4    1.287847 A    
C31   H15   1.110682 S    
C5    C6    1.526877 S    
C17   C24   1.492961 S    
C33   H23   1.107050 S    
C20   C21   1.411567 A    
N4    C32   1.448214 S    
O5    C3    1.287951 A    
C27   N2    1.377595 A    
C29   H10   1.111489 S    
C12   C16   1.426813 S    
C8    C16   1.182625 T    
C5    C12   1.530980 S    
C32   H20   1.111688 S    
C11   H2    1.110128 S    
N6    C34   1.445247 S    
N4    H17   1.030428 S    
O3    Zn1   1.972858 S    
C35   H31   1.110531 S    
C9    H3    1.110047 S    
C26   C27   1.425894 A    
C5    C9    1.542833 S    
C2    C7    1.396360 S    
C29   H11   1.108026 S    
N8    O10   1.301028 A    
N5    H21   1.031434 S    
C13   C14   1.541510 S    
C24   H7    1.109979 S    
O3    C2    1.287591 A    
N7    C35   1.445166 S    
C25   C28   1.404013 A    
C31   H16   1.110431 S    
N8    O9    1.300850 A    
N7    H29   1.030987 S    
O1    C1    1.283040 A    
C20   N8    1.433917 S    
C19   C20   1.385059 A    
C33   H24   1.108117 S    
C34   H26   1.110136 S    
C23   C24   1.516341 S    
C13   N7    1.447071 S    
C18   C19   1.395801 A    
Zn2   O8    1.972859 S    
C29   C30   1.526926 S    
C30   N5    1.462309 S    
C1    C18   1.399645 S    
C34   H27   1.110944 S    
N2    C28   1.361997 A    
C5    N6    1.448454 S    
C9    C11   1.560017 S    
N3    C31   1.445006 S    
C25   N1    1.363680 A    
C11   C13   1.541381 S    
C35   H32   1.111196 S    
N1    C26   1.363398 A    
C6    C14   1.543859 S    
Zn1   O5    1.985600 S    
O1    Zn1   1.986418 S    
C4    C8    1.396036 S    
O2    Zn2   1.985598 S    
Zn2   N1    2.019679 S    
O8    C4    1.287874 A    
O6    C3    1.279492 A    
C27   N4    1.417048 S    
O4    Zn2   1.977176 S    
C3    C21   1.406076 S    
C17   C22   1.365231 A    
C30   H12   1.112177 S    
H1    C14   1.110130 S    
C19   H4    1.084580 S    
O2    C1    1.281846 A    
C6    N3    1.447595 S    
C23   H5    1.112201 S    
Zn1   N2    2.019275 S    
C25   C30   1.503342 S    
C31   H14   1.110173 S    
C17   C18   1.385940 A    
C12   C14   1.548100 S    
C33   H22   1.110835 S    
C34   H28   1.108379 S    
C32   H18   1.111466 S    
C9    C10   1.547818 S    
Zn2   O6    1.986418 S    
C28   C29   1.490900 S    
C10   C13   1.527092 S    
C11   C12   1.544890 S    
N5    C33   1.453756 S    
