data_mof_unit_7895.cif
_audit_creation_date              2012-10-26T17:11:11-0400
_audit_creation_method            fapswitch 2.2
_symmetry_space_group_name_H-M    P1
_symmetry_Int_Tables_number       1
_space_group_crystal_system       triclinic
_cell_length_a                    28.156451
_cell_length_b                    18.676508
_cell_length_c                    16.798768
_cell_angle_alpha                 90.0
_cell_angle_beta                  62.595509
_cell_angle_gamma                 89.999948
_cell_volume                      7842.52737343

loop_
_atom_site_label
_atom_site_type_symbol
_atom_type_description
_atom_site_fract_x
_atom_site_fract_y
_atom_site_fract_z
_atom_type_partial_charge
C1    C     C_R   0.294019 0.725831 0.330255 0.844148
C2    C     C_R   0.704894 0.271482 0.670976 0.842304
C3    C     C_R   0.706845 0.724613 0.669325 0.832776
C4    C     C_R   0.295056 0.271580 0.329101 0.855387
C5    C     C_R   0.793155 0.224613 0.330674 0.832776
C6    C     C_R   0.204943 0.771578 0.670899 0.855401
C7    C     C_R   0.205981 0.225832 0.669745 0.844139
C8    C     C_R   0.795106 0.771482 0.329024 0.842304
C9    C     C_R   0.537301 0.870929 0.544119 -0.215398
C10   C     C_R   0.428929 0.124029 0.561206 -0.236053
C11   C     C_R   0.460615 0.875465 0.471553 -0.211889
C12   C     C_R   0.529666 0.127115 0.573772 -0.221803
C13   C     C_R   0.039384 0.375466 0.528446 -0.211886
C14   C     C_R   0.970335 0.627114 0.426222 -0.221770
C15   C     C_R   0.962698 0.370929 0.455881 -0.215390
C16   C     C_R   0.071068 0.624031 0.438801 -0.236046
C17   C     C_R   0.200490 0.745442 0.974848 -0.025664
C18   C     C_R   0.762217 0.195420 0.059815 0.003338
C19   C     C_R   0.799741 0.741227 0.025649 -0.023894
C20   C     C_R   0.236539 0.207304 0.937497 -0.038994
C21   C     C_R   0.700261 0.241230 0.974351 -0.023895
C22   C     C_R   0.263457 0.707302 0.062506 -0.039028
C23   C     C_R   0.299506 0.245447 0.025150 -0.025559
C24   C     C_R   0.737785 0.695421 0.940183 0.003333
C25   C     C_R   0.256871 0.750829 0.930974 -0.286919
C26   C     C_R   0.707783 0.180098 0.096123 -0.354758
C27   C     C_R   0.743801 0.751826 0.065957 -0.295755
C28   C     C_R   0.292495 0.205589 0.892566 -0.363869
C29   C     C_R   0.756202 0.251827 0.934042 -0.295760
C30   C     C_R   0.207501 0.705635 0.107452 -0.363763
C31   C     C_R   0.243127 0.250865 0.069012 -0.286912
C32   C     C_R   0.792219 0.680100 0.903874 -0.354754
C33   C     C_R   0.287849 0.735404 0.974496 0.475414
C34   C     C_R   0.675856 0.212678 0.062817 0.436986
C35   C     C_R   0.713583 0.733291 0.021911 0.478901
C36   C     C_R   0.323803 0.230427 0.931487 0.414953
C37   C     C_R   0.786419 0.233290 0.978087 0.478902
C38   C     C_R   0.176196 0.730461 0.068520 0.414914
C39   C     C_R   0.212150 0.235441 0.025488 0.475413
C40   C     C_R   0.824146 0.712675 0.937183 0.436982
C41   C     C_R   0.123190 0.801390 0.954539 0.388184
C42   C     C_R   0.841810 0.142056 0.066993 0.427430
C43   C     C_R   0.875665 0.803010 0.044614 0.375159
C44   C     C_R   0.154279 0.151753 0.937001 0.426248
C45   C     C_R   0.624338 0.303013 0.955386 0.375162
C46   C     C_R   0.345714 0.651740 0.063007 0.426257
C47   C     C_R   0.376802 0.301401 0.045461 0.388259
C48   C     C_R   0.658190 0.642057 0.933007 0.427426
C49   C     C_R   0.113224 0.846284 0.897185 -0.164816
C50   C     C_R   0.876196 0.138067 0.107661 -0.175180
C51   C     C_R   0.886515 0.846533 0.102623 -0.192246
C52   C     C_R   0.120166 0.144981 0.895782 -0.184242
C53   C     C_R   0.613485 0.346533 0.897378 -0.192252
C54   C     C_R   0.379830 0.644975 0.104221 -0.184259
C55   C     C_R   0.386772 0.346289 0.102816 -0.164864
C56   C     C_R   0.623804 0.638068 0.892339 -0.175177
C57   C     C_R   0.141569 0.837294 0.804885 -0.386353
C58   C     C_R   0.861184 0.170019 0.190677 -0.373846
C59   C     C_R   0.859040 0.836300 0.194756 -0.379610
C60   C     C_R   0.134419 0.178021 0.813228 -0.377490
C61   C     C_R   0.640959 0.336299 0.805245 -0.379604
C62   C     C_R   0.365579 0.678020 0.186772 -0.377495
C63   C     C_R   0.358431 0.337295 0.195115 -0.386348
C64   C     C_R   0.638816 0.670019 0.809323 -0.373850
C65   C     C_R   0.180410 0.784257 0.768771 -0.153836
C66   C     C_R   0.810363 0.199423 0.238441 -0.164667
C67   C     C_R   0.819725 0.783970 0.230992 -0.154840
C68   C     C_R   0.186223 0.204313 0.763679 -0.163296
C69   C     C_R   0.680275 0.283970 0.769008 -0.154836
C70   C     C_R   0.313775 0.704311 0.236323 -0.163275
C71   C     C_R   0.319587 0.284262 0.231229 -0.153862
C72   C     C_R   0.689637 0.699423 0.761559 -0.164668
C73   C     C_R   0.196071 0.746382 0.826293 0.343011
C74   C     C_R   0.774335 0.198572 0.200801 0.346048
C75   C     C_R   0.803575 0.746760 0.173626 0.342445
C76   C     C_R   0.223053 0.196220 0.797915 0.374346
C77   C     C_R   0.696426 0.246762 0.826373 0.342447
C78   C     C_R   0.276945 0.696220 0.202088 0.374343
C79   C     C_R   0.303921 0.246395 0.173707 0.342990
C80   C     C_R   0.725666 0.698572 0.799198 0.346053
C81   C     C_R   0.171360 0.761801 0.920073 -0.116611
C82   C     C_R   0.792805 0.178253 0.110373 -0.095828
C83   C     C_R   0.828353 0.761631 0.079729 -0.086469
C84   C     C_R   0.203929 0.186714 0.890858 -0.079469
C85   C     C_R   0.671649 0.261635 0.920271 -0.086470
C86   C     C_R   0.296068 0.686711 0.109145 -0.079484
C87   C     C_R   0.328634 0.261811 0.079927 -0.116582
C88   C     C_R   0.707195 0.678253 0.889626 -0.095833
C89   C     C_R   0.199913 0.631104 0.516125 0.801484
C90   C     C_R   0.803171 0.368236 0.472807 0.804251
C91   C     C_R   0.803673 0.631844 0.470847 0.767846
C92   C     C_R   0.196952 0.368556 0.525723 0.794620
C93   C     C_R   0.696327 0.131843 0.529153 0.767846
C94   C     C_R   0.303048 0.868556 0.474277 0.794614
C95   C     C_R   0.300087 0.131104 0.483874 0.801465
C96   C     C_R   0.696828 0.868236 0.527194 0.804249
C97   C     C_R   0.927363 0.902268 0.066302 0.830400
C98   C     C_R   0.073586 0.096989 0.933653 0.831789
C99   C     C_R   0.072171 0.901657 0.934047 0.847564
C100  C     C_R   0.925083 0.094760 0.067557 0.830552
C101  C     C_R   0.427828 0.401658 0.065954 0.847560
C102  C     C_R   0.574917 0.594760 0.932443 0.830550
C103  C     C_R   0.572637 0.402269 0.933698 0.830379
C104  C     C_R   0.426412 0.596986 0.066349 0.831797
C105  C     C_R   0.054163 0.500211 0.484913 0.020454
C106  C     C_R   0.962416 0.499965 0.455935 0.015139
C107  C     C_R   0.537584 0.999965 0.544064 0.015141
C108  C     C_R   0.445837 0.000210 0.515088 0.020448
C109  C     C_R   0.038073 0.563795 0.457343 0.046077
C110  C     C_R   0.983138 0.435101 0.470609 0.043103
C111  C     C_R   0.990449 0.564549 0.447174 0.048188
C112  C     C_R   0.025772 0.436084 0.493486 0.040386
C113  C     C_R   0.509551 0.064548 0.552825 0.048202
C114  C     C_R   0.474228 0.936083 0.506514 0.040386
C115  C     C_R   0.461925 0.063794 0.542659 0.046078
C116  C     C_R   0.516862 0.935101 0.529392 0.043103
C117  C     C_R   0.116583 0.436385 0.527044 0.065008
C118  C     C_R   0.890197 0.564831 0.441854 0.058990
C119  C     C_R   0.888566 0.434068 0.449358 0.059886
C120  C     C_R   0.129180 0.563830 0.490469 0.050177
C121  C     C_R   0.611434 0.934068 0.550643 0.059887
C122  C     C_R   0.370819 0.063829 0.509533 0.050197
C123  C     C_R   0.383417 0.936385 0.472955 0.065006
C124  C     C_R   0.609802 0.064831 0.558145 0.059001
C125  C     C_R   0.166264 0.435437 0.531981 -0.121108
C126  C     C_R   0.836412 0.565209 0.453715 -0.124896
C127  C     C_R   0.835769 0.434344 0.456745 -0.121304
C128  C     C_R   0.172318 0.564543 0.513501 -0.134970
C129  C     C_R   0.664230 0.934344 0.543255 -0.121304
C130  C     C_R   0.327682 0.064543 0.486498 -0.134972
C131  C     C_R   0.333736 0.935436 0.468018 -0.121106
C132  C     C_R   0.663588 0.065209 0.546284 -0.124896
C133  C     C_R   0.190901 0.500247 0.530904 -0.293451
C134  C     C_R   0.810888 0.499815 0.459518 -0.287344
C135  C     C_R   0.689111 0.999815 0.540481 -0.287346
C136  C     C_R   0.309100 0.000247 0.469094 -0.293455
C137  C     C_R   0.099719 0.500282 0.501674 0.073937
C138  C     C_R   0.913495 0.499699 0.449434 0.067928
C139  C     C_R   0.586505 0.999699 0.550565 0.067928
C140  C     C_R   0.400280 0.000282 0.498327 0.073936
C141  C     C_R   0.581472 0.870996 0.560052 -0.177500
C142  C     C_R   0.384042 0.123229 0.547729 -0.164046
C143  C     C_R   0.417139 0.876196 0.453251 -0.178004
C144  C     C_R   0.577785 0.126744 0.578430 -0.204259
C145  C     C_R   0.082861 0.376196 0.546748 -0.178002
C146  C     C_R   0.922215 0.626743 0.421565 -0.204246
C147  C     C_R   0.918527 0.370996 0.439949 -0.177499
C148  C     C_R   0.115955 0.623231 0.452277 -0.164043
Cu1   Cu    Cu3+1 0.209920 0.785290 0.495070 0.941002
Cu2   Cu    Cu3+1 0.790080 0.214710 0.504930 0.951595
Cu3   Cu    Cu3+1 0.790080 0.785290 0.504930 0.941613
Cu4   Cu    Cu3+1 0.209920 0.214710 0.495070 0.956828
Cu5   Cu    Cu3+1 0.709920 0.285290 0.495070 0.941612
Cu6   Cu    Cu3+1 0.290080 0.714710 0.504930 0.956844
Cu7   Cu    Cu3+1 0.290080 0.285290 0.504930 0.940988
Cu8   Cu    Cu3+1 0.709920 0.714710 0.495070 0.951592
Cu9   Cu    Cu3+1 0.495240 0.500000 0.924150 0.960723
Cu10  Cu    Cu3+1 0.504760 0.500000 0.075850 0.966369
Cu11  Cu    Cu3+1 0.995240 1.000000 0.924150 0.966373
Cu12  Cu    Cu3+1 0.004760 1.000000 0.075850 0.960726
H1    H     H_    0.226361 0.500365 0.540657 0.191072
H2    H     H_    0.770043 0.499909 0.469484 0.193116
H3    H     H_    0.729957 0.999909 0.530517 0.193116
H4    H     H_    0.273639 0.000365 0.459341 0.191074
H5    H     H_    0.589783 0.820711 0.582264 0.179233
H6    H     H_    0.358483 0.168956 0.575072 0.216141
H7    H     H_    0.412118 0.829515 0.420095 0.172717
H8    H     H_    0.588401 0.175872 0.599968 0.178184
H9    H     H_    0.087882 0.329515 0.579905 0.172717
H10   H     H_    0.911600 0.675870 0.400025 0.178183
H11   H     H_    0.910216 0.320710 0.417737 0.179236
H12   H     H_    0.141513 0.668959 0.424935 0.216149
H13   H     H_    0.517705 0.820219 0.548504 0.146024
H14   H     H_    0.434970 0.172008 0.590993 0.144453
H15   H     H_    0.484674 0.827381 0.454395 0.146779
H16   H     H_    0.509930 0.178190 0.584923 0.136065
H17   H     H_    0.015326 0.327382 0.545604 0.146778
H18   H     H_    0.990073 0.678189 0.415063 0.136059
H19   H     H_    0.982295 0.320219 0.451496 0.146029
H20   H     H_    0.065025 0.672011 0.409019 0.144444
H21   H     H_    0.277621 0.770540 0.862822 0.206953
H22   H     H_    0.687885 0.150046 0.156963 0.196243
H23   H     H_    0.723442 0.778078 0.130537 0.198828
H24   H     H_    0.314235 0.188173 0.824502 0.245873
H25   H     H_    0.776561 0.278079 0.869462 0.198828
H26   H     H_    0.185757 0.688271 0.175538 0.245912
H27   H     H_    0.222381 0.270597 0.137155 0.206922
H28   H     H_    0.812117 0.650048 0.843034 0.196245
H29   H     H_    0.132272 0.870583 0.761050 0.210987
H30   H     H_    0.888064 0.168292 0.220540 0.210710
H31   H     H_    0.868966 0.868753 0.238506 0.213569
H32   H     H_    0.107378 0.176582 0.783686 0.209336
H33   H     H_    0.631031 0.368750 0.761495 0.213570
H34   H     H_    0.392622 0.676584 0.216312 0.209334
H35   H     H_    0.367732 0.370578 0.238950 0.210995
H36   H     H_    0.611936 0.668292 0.779460 0.210707
O1    O     O_R   0.255040 0.869590 0.478480 -0.586566
O2    O     O_R   0.744960 0.130410 0.521520 -0.587421
O3    O     O_R   0.744960 0.869590 0.521520 -0.585704
O4    O     O_R   0.255040 0.130410 0.478480 -0.590832
O5    O     O_R   0.755040 0.369590 0.478480 -0.585705
O6    O     O_R   0.244960 0.630410 0.521520 -0.590829
O7    O     O_R   0.244960 0.369590 0.521520 -0.586564
O8    O     O_R   0.755040 0.630410 0.478480 -0.587422
O9    O     O_R   0.182050 0.796550 0.624440 -0.593887
O10   O     O_R   0.817950 0.203450 0.375560 -0.597816
O11   O     O_R   0.817950 0.796550 0.375560 -0.601167
O12   O     O_R   0.182050 0.203450 0.624440 -0.598761
O13   O     O_R   0.682050 0.296550 0.624440 -0.601165
O14   O     O_R   0.317950 0.703450 0.375560 -0.598764
O15   O     O_R   0.317950 0.296550 0.375560 -0.593882
O16   O     O_R   0.682050 0.703450 0.624440 -0.597817
O17   O     O_R   0.250530 0.763330 0.367210 -0.568050
O18   O     O_R   0.749470 0.236670 0.632790 -0.531302
O19   O     O_R   0.749470 0.763330 0.632790 -0.539625
O20   O     O_R   0.250530 0.236670 0.367210 -0.529609
O21   O     O_R   0.750530 0.263330 0.367210 -0.539626
O22   O     O_R   0.249470 0.736670 0.632790 -0.529600
O23   O     O_R   0.249470 0.263330 0.632790 -0.568060
O24   O     O_R   0.750530 0.736670 0.367210 -0.531303
O25   O     O_R   0.177260 0.690030 0.513710 -0.597834
O26   O     O_R   0.822740 0.309970 0.486290 -0.597693
O27   O     O_R   0.822740 0.690030 0.486290 -0.602457
O28   O     O_R   0.177260 0.309970 0.513710 -0.595560
O29   O     O_R   0.677260 0.190030 0.513710 -0.602459
O30   O     O_R   0.322740 0.809970 0.486290 -0.595565
O31   O     O_R   0.322740 0.190030 0.486290 -0.597833
O32   O     O_R   0.677260 0.809970 0.513710 -0.597692
O33   O     O_R   0.051640 0.926880 0.885090 -0.601671
O34   O     O_R   0.948360 0.073120 0.114910 -0.595143
O35   O     O_R   0.948360 0.926880 0.114910 -0.598327
O36   O     O_R   0.051640 0.073120 0.885090 -0.592630
O37   O     O_R   0.551640 0.426880 0.885090 -0.598338
O38   O     O_R   0.448360 0.573120 0.114910 -0.592629
O39   O     O_R   0.448360 0.426880 0.114910 -0.601674
O40   O     O_R   0.551640 0.573120 0.885090 -0.595145
O41   O     O_R   0.940620 0.926560 0.986760 -0.561529
O42   O     O_R   0.059380 0.073440 0.013240 -0.539445
O43   O     O_R   0.059380 0.926560 0.013240 -0.568244
O44   O     O_R   0.940620 0.073440 0.986760 -0.537466
O45   O     O_R   0.440620 0.426560 0.986760 -0.568240
O46   O     O_R   0.559380 0.573440 0.013240 -0.537465
O47   O     O_R   0.559380 0.426560 0.013240 -0.561522
O48   O     O_R   0.440620 0.573440 0.986760 -0.539440
O49   O     O_3   0.122320 0.739193 0.124980 -0.550442
C149  C     C_3   0.115320 0.800558 0.179217 0.144790
H37   H     H_    0.129418 0.849492 0.136850 0.146193
H38   H     H_    0.137228 0.795565 0.219767 0.120153
C150  C     C_3   0.056422 0.810265 0.244846 -0.777222
H39   H     H_    0.040330 0.760543 0.284403 0.226864
H40   H     H_    0.051789 0.854886 0.291560 0.183856
H41   H     H_    0.033185 0.823609 0.208525 0.280738
O50   O     O_3   0.840209 0.250095 0.938927 -0.535290
C151  C     C_3   0.845809 0.319926 0.965586 0.045989
H42   H     H_    0.825890 0.325122 0.040094 0.134228
H43   H     H_    0.828639 0.360087 0.936984 0.131929
C152  C     C_3   0.904948 0.336181 0.931001 -0.752034
H44   H     H_    0.926043 0.332586 0.856670 0.250999
H45   H     H_    0.909949 0.391078 0.951423 0.188337
H46   H     H_    0.922936 0.297213 0.959326 0.249405
O51   O     O_3   0.876751 0.725689 0.876184 -0.549699
C153  C     C_3   0.877129 0.784452 0.821630 0.138616
H47   H     H_    0.864165 0.834406 0.862151 0.155464
H48   H     H_    0.850050 0.775503 0.790886 0.170016
C154  C     C_3   0.932757 0.796560 0.744488 -0.804180
H49   H     H_    0.950533 0.745106 0.710874 0.243777
H50   H     H_    0.930134 0.833095 0.694489 0.195899
H51   H     H_    0.958861 0.822374 0.769195 0.264410
O52   O     O_3   0.157664 0.247440 0.070850 -0.528887
C155  C     C_3   0.147378 0.317774 0.052181 0.049206
H52   H     H_    0.162773 0.326161 0.978709 0.127436
H53   H     H_    0.165956 0.357764 0.078589 0.130672
C156  C     C_3   0.087268 0.330255 0.097610 -0.744351
H54   H     H_    0.070643 0.323396 0.171283 0.251229
H55   H     H_    0.078591 0.385465 0.083437 0.187190
H56   H     H_    0.067733 0.291449 0.071840 0.250568
O53   O     O_3   0.623254 0.225700 0.123820 -0.549701
C157  C     C_3   0.622884 0.284465 0.178365 0.138621
H57   H     H_    0.635853 0.334415 0.137838 0.155456
H58   H     H_    0.649963 0.275511 0.209108 0.170031
C158  C     C_3   0.567258 0.296586 0.255508 -0.804186
H59   H     H_    0.549477 0.245136 0.289131 0.243775
H60   H     H_    0.569886 0.333123 0.305500 0.195899
H61   H     H_    0.541156 0.322403 0.230800 0.264411
O54   O     O_3   0.342338 0.747375 0.929117 -0.528879
C159  C     C_3   0.352647 0.817711 0.947743 0.049211
H62   H     H_    0.337259 0.826125 0.021209 0.127433
H63   H     H_    0.334076 0.857699 0.921317 0.130674
C160  C     C_3   0.412760 0.830161 0.902295 -0.744339
H64   H     H_    0.429379 0.823276 0.828627 0.251225
H65   H     H_    0.421455 0.885374 0.916433 0.187197
H66   H     H_    0.432288 0.791358 0.928081 0.250568
O55   O     O_3   0.377684 0.239129 0.875033 -0.550428
C161  C     C_3   0.384703 0.300424 0.820678 0.144777
H67   H     H_    0.370547 0.349398 0.862957 0.146056
H68   H     H_    0.362858 0.295313 0.780041 0.120244
C162  C     C_3   0.443614 0.310161 0.755147 -0.777246
H69   H     H_    0.459764 0.260412 0.715689 0.226884
H70   H     H_    0.448263 0.354710 0.708332 0.183827
H71   H     H_    0.466789 0.323630 0.791539 0.280792
O56   O     O_3   0.659793 0.750097 0.061072 -0.535288
C163  C     C_3   0.654194 0.819926 0.034408 0.045993
H72   H     H_    0.674111 0.825117 0.959899 0.134230
H73   H     H_    0.671366 0.860089 0.063005 0.131928
C164  C     C_3   0.595055 0.836183 0.068996 -0.752038
H74   H     H_    0.573961 0.832592 0.143327 0.250999
H75   H     H_    0.590055 0.891078 0.048569 0.188336
H76   H     H_    0.577065 0.797212 0.040676 0.249406
O57   O     O_3   0.080856 0.787330 0.037558 -0.536307
C165  C     C_3   0.058511 0.720136 0.033631 0.141758
H77   H     H_    0.086011 0.675549 0.028500 0.159314
H78   H     H_    0.050761 0.716779 0.974713 0.087933
C166  C     C_3   0.005767 0.708929 0.117997 -0.809759
H79   H     H_    0.979687 0.756694 0.131436 0.241874
H80   H     H_    0.984742 0.661592 0.109294 0.182302
H81   H     H_    0.013225 0.699147 0.176413 0.268915
O58   O     O_3   0.855156 0.108766 0.985691 -0.517622
C167  C     C_3   0.828704 0.041866 0.002668 0.088923
H82   H     H_    0.784571 0.049137 0.033170 0.123286
H83   H     H_    0.838377 0.008243 0.048149 0.120760
C168  C     C_3   0.846706 0.001748 0.914768 -0.732834
H84   H     H_    0.890278 0.990488 0.884400 0.258211
H85   H     H_    0.824658 0.950311 0.927313 0.170050
H86   H     H_    0.838314 0.034245 0.867345 0.238736
O59   O     O_3   0.914508 0.795790 0.956705 -0.531649
C169  C     C_3   0.954565 0.749173 0.955742 0.143654
H87   H     H_    0.937161 0.696535 0.986872 0.125353
H88   H     H_    0.974697 0.773805 0.992279 0.117405
C170  C     C_3   0.997480 0.735398 0.860186 -0.761846
H89   H     H_    0.016605 0.786558 0.827480 0.245104
H90   H     H_    0.028821 0.699639 0.860528 0.171433
H91   H     H_    0.980039 0.708055 0.821233 0.276357
O60   O     O_3   0.140835 0.119917 0.019199 -0.511054
C171  C     C_3   0.170024 0.055449 0.005102 0.107736
H92   H     H_    0.213188 0.066688 0.981636 0.130288
H93   H     H_    0.165496 0.020343 0.955282 0.112774
C172  C     C_3   0.149296 0.014800 0.093151 -0.751925
H94   H     H_    0.106964 0.998907 0.116290 0.256681
H95   H     H_    0.173801 0.965952 0.083643 0.166800
H96   H     H_    0.151943 0.049007 0.145012 0.245660
O61   O     O_3   0.585499 0.295800 0.043299 -0.531645
C173  C     C_3   0.545436 0.249187 0.044274 0.143665
H97   H     H_    0.562835 0.196549 0.013140 0.125343
H98   H     H_    0.525299 0.273825 0.007748 0.117411
C174  C     C_3   0.502527 0.235413 0.139835 -0.761840
H99   H     H_    0.483403 0.286573 0.172544 0.245096
H100  H     H_    0.471182 0.199656 0.139500 0.171433
H101  H     H_    0.519972 0.208068 0.178781 0.276364
O62   O     O_3   0.359148 0.619880 0.980826 -0.511048
C175  C     C_3   0.329958 0.555410 0.994961 0.107701
H102  H     H_    0.286794 0.566649 0.018426 0.130282
H103  H     H_    0.334488 0.520325 0.044796 0.112761
C176  C     C_3   0.350680 0.514728 0.906935 -0.751839
H104  H     H_    0.393018 0.498861 0.883781 0.256732
H105  H     H_    0.326187 0.465863 0.916481 0.166841
H106  H     H_    0.348012 0.548903 0.855067 0.245601
O63   O     O_3   0.419135 0.287336 0.962443 -0.536278
C177  C     C_3   0.441494 0.220158 0.966398 0.141768
H107  H     H_    0.414008 0.175554 0.971527 0.159332
H108  H     H_    0.449233 0.216826 0.025328 0.087918
C178  C     C_3   0.494249 0.208959 0.882050 -0.809801
H109  H     H_    0.520308 0.256748 0.868592 0.241915
H110  H     H_    0.515291 0.161656 0.890791 0.182279
H111  H     H_    0.486805 0.199121 0.823632 0.268880
O64   O     O_3   0.644842 0.608770 0.014312 -0.517620
C179  C     C_3   0.671296 0.541871 0.997338 0.088923
H112  H     H_    0.715429 0.549144 0.966837 0.123287
H113  H     H_    0.661624 0.508246 0.951858 0.120762
C180  C     C_3   0.653294 0.501757 0.085241 -0.732829
H114  H     H_    0.609723 0.490493 0.115606 0.258208
H115  H     H_    0.675344 0.450322 0.072699 0.170047
H116  H     H_    0.661683 0.534259 0.132664 0.238741
O65   O     O_3   0.235951 0.695196 0.790527 -0.555807
C181  C     C_3   0.212040 0.626730 0.811132 0.091687
H117  H     H_    0.181316 0.620977 0.787098 0.119943
H118  H     H_    0.193191 0.616586 0.884681 0.132080
C182  C     C_3   0.254854 0.570219 0.764567 -0.763245
H119  H     H_    0.286018 0.574241 0.787400 0.244436
H120  H     H_    0.236638 0.516025 0.780895 0.184575
H121  H     H_    0.273711 0.578045 0.690775 0.254068
O66   O     O_3   0.720522 0.212857 0.253594 -0.577454
C183  C     C_3   0.696094 0.150344 0.304078 0.082501
H122  H     H_    0.709921 0.139681 0.354887 0.155998
H123  H     H_    0.705554 0.101688 0.260981 0.100682
C184  C     C_3   0.635667 0.159728 0.352189 -0.761822
H124  H     H_    0.620085 0.169602 0.303498 0.237480
H125  H     H_    0.616796 0.110012 0.389336 0.213725
H126  H     H_    0.624638 0.205360 0.399750 0.259504
O67   O     O_3   0.762802 0.696842 0.209612 -0.553853
C185  C     C_3   0.785797 0.627836 0.194775 0.094952
H127  H     H_    0.814730 0.623171 0.222750 0.120049
H128  H     H_    0.806544 0.615095 0.121826 0.134044
C186  C     C_3   0.741789 0.572844 0.241485 -0.755639
H129  H     H_    0.712230 0.575988 0.215088 0.244165
H130  H     H_    0.759272 0.518194 0.229324 0.187887
H131  H     H_    0.721162 0.583158 0.314836 0.253612
O68   O     O_3   0.272907 0.169390 0.739930 -0.607112
C187  C     C_3   0.269065 0.093532 0.733827 0.062701
H132  H     H_    0.278694 0.079828 0.664217 0.162134
H133  H     H_    0.228494 0.070212 0.775790 0.117731
C188  C     C_3   0.308004 0.055268 0.759152 -0.835769
H134  H     H_    0.293247 0.057878 0.832738 0.225000
H135  H     H_    0.311376 0.998117 0.738999 0.216975
H136  H     H_    0.348173 0.080149 0.725454 0.270561
O69   O     O_3   0.737200 0.196845 0.790388 -0.553853
C189  C     C_3   0.714206 0.127838 0.805228 0.094954
H137  H     H_    0.685272 0.123171 0.777254 0.120051
H138  H     H_    0.693460 0.115099 0.878177 0.134043
C190  C     C_3   0.758215 0.072847 0.758520 -0.755639
H139  H     H_    0.787774 0.075994 0.784914 0.244168
H140  H     H_    0.740732 0.018196 0.770683 0.187886
H141  H     H_    0.778840 0.083159 0.685168 0.253611
O70   O     O_3   0.227090 0.669397 0.260078 -0.607105
C191  C     C_3   0.230920 0.593537 0.266161 0.062703
H142  H     H_    0.221288 0.579816 0.335768 0.162140
H143  H     H_    0.271488 0.570208 0.224193 0.117706
C192  C     C_3   0.191974 0.555303 0.240827 -0.835716
H144  H     H_    0.206729 0.557931 0.167243 0.225016
H145  H     H_    0.188595 0.498146 0.260960 0.216960
H146  H     H_    0.151809 0.580193 0.274535 0.270565
O71   O     O_3   0.264034 0.195217 0.209472 -0.555795
C193  C     C_3   0.287941 0.126748 0.188904 0.091712
H147  H     H_    0.318649 0.120999 0.212974 0.119953
H148  H     H_    0.306808 0.116590 0.115357 0.132060
C194  C     C_3   0.245118 0.070245 0.235458 -0.763249
H149  H     H_    0.213973 0.074259 0.212584 0.244424
H150  H     H_    0.263332 0.016049 0.219164 0.184580
H151  H     H_    0.226240 0.078089 0.309248 0.254073
O72   O     O_3   0.779479 0.712856 0.746404 -0.577448
C195  C     C_3   0.803906 0.650342 0.695921 0.082501
H152  H     H_    0.790077 0.639678 0.645113 0.155995
H153  H     H_    0.794446 0.601687 0.739020 0.100683
C196  C     C_3   0.864333 0.659724 0.647807 -0.761821
H154  H     H_    0.879916 0.669598 0.696497 0.237474
H155  H     H_    0.883202 0.610009 0.610660 0.213723
H156  H     H_    0.875361 0.705357 0.600247 0.259506

loop_
_geom_bond_atom_site_label_1
_geom_bond_atom_site_label_2
_ccdc_geom_bond_type
C10   H14   S    
C96   O3    A    
C51   C97   S    
Cu9   Cu10  S    
C162  H70   S    
C194  H149  S    
C59   H31   S    
C79   C87   A    
C172  H94   S    
C61   C69   A    
O60   C171  S    
C79   O71   S    
C158  H61   S    
C102  O40   A    
C41   O57   S    
O63   C177  S    
Cu5   O29   S    
C13   C112  A    
C19   C83   S    
C3    O19   A    
C156  H56   S    
Cu4   O4    S    
C177  C178  S    
C107  C113  A    
C6    O9    A    
C151  H43   S    
C191  C192  S    
C99   O33   A    
C7    C68   S    
C5    O21   A    
C147  H11   S    
C18   C26   A    
C75   O67   S    
C169  H87   S    
C167  C168  S    
C180  H116  S    
Cu8   O32   S    
Cu3   O19   S    
O49   C149  S    
C191  H143  S    
C73   C81   A    
C176  H105  S    
C16   C109  A    
Cu5   O5    S    
C178  H111  S    
C165  H78   S    
C130  C136  A    
C92   O28   A    
C189  H138  S    
C57   C65   A    
C173  H97   S    
C185  H128  S    
C20   C28   A    
C27   C35   A    
O56   C163  S    
C38   O49   S    
C21   C29   A    
C15   C147  A    
C23   C31   A    
C24   C32   A    
C196  H156  S    
C169  C170  S    
Cu8   O24   S    
C174  H101  S    
C92   O7    A    
C98   O36   A    
C26   H22   S    
C105  C112  A    
C33   O54   S    
C2    O18   A    
O66   C183  S    
C194  H151  S    
C155  H53   S    
C74   O66   S    
C62   H34   S    
C172  H96   S    
C195  H153  S    
C136  H4    S    
C159  C160  S    
C9    C116  A    
C135  H3    S    
C173  C174  S    
C97   O41   A    
C186  H129  S    
C50   C100  S    
C1    C70   S    
C17   C25   A    
C3    C72   S    
C80   C88   A    
O64   C179  S    
C159  H63   S    
C171  C172  S    
C52   C98   S    
C18   C82   S    
O67   C185  S    
C175  H102  S    
C27   H23   S    
C93   O29   A    
C126  C134  A    
Cu6   O14   S    
C168  H84   S    
C31   H27   S    
Cu3   O11   S    
C190  H139  S    
O69   C189  S    
C11   C143  A    
C4    C71   S    
C96   C129  S    
C113  C115  A    
C45   O61   S    
O62   C175  S    
C4    O20   A    
C15   H19   S    
C43   C83   A    
C124  C139  A    
C69   C77   A    
C127  C134  A    
C13   C145  A    
C75   C83   A    
C92   C125  S    
C71   C79   A    
C188  H134  S    
O72   C195  S    
Cu4   O20   S    
C42   O58   S    
Cu7   O31   S    
C150  H39   S    
C96   O32   A    
C108  C115  A    
C109  C111  A    
C89   O25   A    
O51   C153  S    
C166  H80   S    
C49   C99   S    
C66   C74   A    
C49   C57   A    
C124  C132  A    
C152  H44   S    
Cu10  O46   S    
C181  H117  S    
C167  H83   S    
C52   C60   A    
C59   C67   A    
C129  C135  A    
C53   C61   A    
C182  H121  S    
C55   C63   A    
C58   H30   S    
C95   C130  S    
Cu11  O44   S    
C56   C64   A    
C9    H13   S    
C102  O46   A    
C2    C69   S    
Cu5   O21   S    
C91   O8    A    
C12   H16   S    
C44   C52   A    
C104  O38   A    
C89   O6    A    
C77   C85   A    
O53   C157  S    
C170  H90   S    
Cu7   O7    S    
C192  H145  S    
Cu1   O17   S    
C106  C111  A    
C186  H131  S    
C163  H73   S    
C28   C36   A    
Cu2   O10   S    
C131  C136  A    
C171  H92   S    
C151  C152  S    
C196  H155  S    
C157  C158  S    
C181  C182  S    
C47   C87   A    
C8    O11   A    
C57   H29   S    
O55   C161  S    
C47   O63   S    
C142  H6    S    
C40   O51   S    
C60   H32   S    
C168  H86   S    
C160  H64   S    
C190  H141  S    
C177  H108  S    
C154  H50   S    
C179  C180  S    
C143  H7    S    
C14   H18   S    
C42   C50   A    
C44   O60   S    
C23   C36   A    
C20   C84   S    
C193  H147  S    
C187  H133  S    
C67   C75   A    
C61   H33   S    
C188  H136  S    
C105  C109  A    
C149  H37   S    
C150  H41   S    
C22   C30   A    
C189  H137  S    
C119  C138  A    
Cu4   O12   S    
C5    C66   S    
C114  C116  A    
C62   C70   A    
C153  H47   S    
C68   C76   A    
C141  H5    S    
C94   O1    A    
C121  C139  A    
C48   O64   S    
C28   H24   S    
C56   C102  S    
C72   C80   A    
C118  C138  A    
O68   C187  S    
Cu10  O38   S    
O70   C191  S    
C64   H36   S    
C156  H55   S    
C29   H25   S    
C100  O44   A    
C17   C38   A    
C107  C139  A    
C110  C112  A    
C107  C116  A    
C182  H120  S    
C73   O65   S    
C19   C40   A    
C105  C137  A    
C51   C59   A    
C193  C194  S    
C157  H57   S    
C169  H88   S    
C184  H125  S    
C117  C125  A    
C89   C128  S    
C16   H20   S    
C25   C33   A    
C180  H115  S    
C149  C150  S    
C119  C127  A    
C183  H122  S    
Cu12  O43   S    
C194  H150  S    
C155  C156  S    
C76   C84   A    
C153  C154  S    
C176  H104  S    
C178  H110  S    
O71   C193  S    
C4    O15   A    
Cu6   O30   S    
C54   C104  S    
Cu9   O48   S    
C12   C113  A    
C161  H67   S    
C173  H98   S    
Cu8   O16   S    
C119  C147  A    
C35   O56   S    
C160  H66   S    
C117  C145  A    
C170  H89   S    
C108  C114  A    
C179  H112  S    
C78   O70   S    
Cu6   O6    S    
C5    O10   A    
C6    O22   A    
C6    C65   S    
C95   O4    A    
C2    O13   A    
Cu2   Cu5   S    
C90   C127  S    
C48   C88   A    
Cu7   O23   S    
C174  H100  S    
C99   O43   A    
C103  O37   A    
O52   C155  S    
Cu2   O26   S    
C15   C110  A    
C46   O62   S    
C74   C82   A    
C172  H95   S    
Cu2   O18   S    
C21   C85   S    
C145  H9    S    
C50   C58   A    
C121  C141  A    
C161  C162  S    
Cu1   O9    S    
C20   C39   A    
C21   C34   A    
C54   C62   A    
C183  C184  S    
O57   C165  S    
Cu1   Cu6   S    
C151  H42   S    
Cu11  Cu12  S    
Cu4   Cu7   S    
C41   C81   A    
C46   C54   A    
Cu3   Cu8   S    
C175  H103  S    
C24   C88   S    
C195  C196  S    
C36   O55   S    
C34   O53   S    
C37   O50   S    
Cu4   O28   S    
C1    O17   A    
C191  H142  S    
C63   H35   S    
C158  H60   S    
C91   O27   A    
Cu11  O33   S    
C176  H106  S    
C58   C66   A    
C184  H124  S    
C55   C101  S    
C165  H77   S    
C123  C131  A    
C121  C129  A    
C44   C84   A    
C120  C128  A    
Cu9   O40   S    
C185  H127  S    
C98   O42   A    
C41   C49   A    
C11   H15   S    
C94   C131  S    
C175  C176  S    
Cu11  O36   S    
C152  H46   S    
C100  O34   A    
C43   O59   S    
Cu5   O13   S    
C43   C51   A    
C166  H79   S    
O50   C151  S    
C53   C103  S    
C13   H17   S    
C17   C81   S    
Cu10  O47   S    
C22   C86   S    
O59   C169  S    
C181  H118  S    
C94   O30   A    
C122  C140  A    
C60   C68   A    
C164  H74   S    
C29   C37   A    
C155  H52   S    
C120  C137  A    
C128  C133  A    
Cu2   O2    S    
C165  C166  S    
C91   C126  S    
C70   C78   A    
C162  H69   S    
C42   C82   A    
C185  C186  S    
C192  H144  S    
O61   C173  S    
C186  H130  S    
C163  C164  S    
O54   C159  S    
Cu12  O42   S    
C144  H8    S    
C30   H26   S    
C18   C37   A    
C90   O26   A    
C159  H62   S    
C171  H93   S    
C106  C138  A    
C65   C73   A    
C11   C114  A    
Cu9   O45   S    
C195  H152  S    
C160  H65   S    
C26   C34   A    
Cu3   O27   S    
C168  H85   S    
C189  C190  S    
C101  O39   A    
C103  O47   A    
C10   C142  A    
C190  H140  S    
C101  O45   A    
C154  H49   S    
C184  H126  S    
C7    O23   A    
C78   C86   A    
C32   C40   A    
C23   C87   S    
C193  H148  S    
C187  C188  S    
C177  H107  S    
Cu1   O25   S    
C188  H135  S    
C25   H21   S    
C14   C111  A    
C149  H38   S    
C150  H40   S    
C24   C35   A    
C32   H28   S    
Cu3   O3    S    
C118  C146  A    
C95   O31   A    
C108  C140  A    
C9    C141  A    
C166  H81   S    
C153  H48   S    
C162  H71   S    
C164  H75   S    
C158  H59   S    
C104  O48   A    
C123  C140  A    
C12   C144  A    
C152  H45   S    
C45   C85   A    
C167  H82   S    
C8    O24   A    
Cu10  O39   S    
C164  H76   S    
C156  H54   S    
Cu11  O41   S    
Cu12  O35   S    
C182  H119  S    
C8    C67   S    
C80   O72   S    
C146  H10   S    
C170  H91   S    
C157  H58   S    
Cu6   O22   S    
C122  C142  A    
C123  C143  A    
C93   C132  S    
C192  H146  S    
C19   C27   A    
C47   C55   A    
C180  H114  S    
C106  C110  A    
C125  C133  A    
C3    O16   A    
C48   C56   A    
C22   C33   A    
C163  H72   S    
C183  H123  S    
C1    O14   A    
C117  C137  A    
C63   C71   A    
C7    O12   A    
C133  H1    S    
C120  C148  A    
C178  H109  S    
C14   C146  A    
C16   C148  A    
C76   O68   S    
C90   O5    A    
Cu7   O15   S    
C93   O2    A    
O65   C181  S    
C161  H68   S    
Cu9   O37   S    
C97   O35   A    
C132  C135  A    
C148  H12   S    
C31   C39   A    
Cu12  O34   S    
C64   C72   A    
O58   C167  S    
C154  H51   S    
C179  H113  S    
C45   C53   A    
C134  H2    S    
C39   O52   S    
C196  H154  S    
C77   O69   S    
C187  H132  S    
C124  C144  A    
C118  C126  A    
C30   C38   A    
C174  H99   S    
C122  C130  A    
Cu8   O8    S    
C10   C115  A    
Cu1   O1    S    
C46   C86   A    
