data_mof_unit_54403.cif
_audit_creation_date              2012-12-11T15:36:29-0500
_audit_creation_method            fapswitch 2.2
_symmetry_space_group_name_H-M    P1
_symmetry_Int_Tables_number       1
_space_group_crystal_system       triclinic
_cell_length_a                    15.053717
_cell_length_b                    15.060647
_cell_length_c                    34.834329
_cell_angle_alpha                 91.075234
_cell_angle_beta                  91.627888
_cell_angle_gamma                 60.102072
_cell_volume                      6843.68142273

loop_
_atom_site_label
_atom_site_type_symbol
_atom_type_description
_atom_site_fract_x
_atom_site_fract_y
_atom_site_fract_z
_atom_type_partial_charge
C1    C     C_R   0.610817 0.302565 0.444083 0.541140
C2    C     C_R   0.656768 0.037101 0.757766 0.235202
C3    C     C_R   0.075812 0.772659 0.882070 -0.120352
C4    C     C_R   0.092565 0.765385 0.842730 -0.123169
C5    C     C_R   0.088011 0.688515 0.820826 0.041237
C6    C     C_R   0.071618 0.615939 0.839230 -0.101098
C7    C     C_R   0.055797 0.622624 0.878587 -0.115028
C8    C     C_R   0.154780 0.590412 0.760019 -0.117430
C9    C     C_R   0.166090 0.586581 0.720473 -0.113871
C10   C     C_R   0.121783 0.677172 0.698990 0.030844
C11   C     C_R   0.064310 0.771781 0.717530 -0.094302
C12   C     C_R   0.052257 0.775622 0.757181 -0.082018
C13   C     C_R   0.620069 0.122117 0.783303 0.000926
C14   C     C_R   0.656243 0.765555 0.164892 -0.120817
C15   C     C_R   0.098439 0.684925 0.778798 0.039423
C16   C     C_R   0.183467 0.731074 0.643382 -0.117258
C17   C     C_R   0.227278 0.709183 0.607232 -0.121550
C18   C     C_R   0.184491 0.574565 0.598615 -0.113562
C19   C     C_R   0.140840 0.596453 0.634669 -0.113214
C20   C     C_R   0.144261 0.671624 0.657963 0.028643
C21   C     C_R   0.232322 0.627527 0.585376 0.019386
C22   C     C_R   0.678575 0.068236 0.903793 0.024826
C23   C     C_R   0.604419 0.050467 0.885343 -0.108634
C24   C     C_R   0.561899 0.168275 0.635986 -0.094786
C25   C     C_R   0.581653 0.071488 0.846225 -0.047993
C26   C     C_R   0.829102 0.621599 0.161384 -0.124164
C27   C     C_R   0.558222 0.204468 0.598996 -0.109517
C28   C     C_R   0.698128 0.234871 0.616209 -0.124610
C29   C     C_R   0.700684 0.200124 0.653247 -0.117746
C30   C     C_R   0.630690 0.169553 0.663569 0.024118
C31   C     C_R   0.624095 0.241280 0.589199 0.020023
C32   C     C_R   0.045638 0.738894 0.048540 0.540445
C33   C     C_R   0.744335 0.688183 0.183298 0.029720
C34   C     C_R   0.747500 0.746684 0.064163 0.543130
C35   C     C_R   0.751312 0.040153 0.050729 0.540770
C36   C     C_R   0.015336 0.723126 0.939309 0.547469
C37   C     C_R   0.717361 0.730673 0.954699 0.545911
C38   C     C_R   0.827885 0.636183 0.121861 -0.127956
C39   C     C_R   0.722101 0.023040 0.941645 0.547229
C40   C     C_R   0.780183 0.583354 0.242346 -0.112909
C41   C     C_R   0.771247 0.576807 0.281793 -0.106940
C42   C     C_R   0.729814 0.665535 0.304870 0.034958
C43   C     C_R   0.703063 0.759935 0.288141 -0.113078
C44   C     C_R   0.633150 0.109915 0.825256 0.058603
C45   C     C_R   0.711488 0.766504 0.248698 -0.119516
C46   C     C_R   0.747212 0.678748 0.225383 0.025302
C47   C     C_R   0.607023 0.734625 0.358676 -0.118187
C48   C     C_R   0.593452 0.610351 0.449442 0.551461
C49   C     C_R   0.573522 0.721348 0.393863 -0.120983
C50   C     C_R   0.734610 0.563749 0.403498 -0.115044
C51   C     C_R   0.768250 0.577262 0.368349 -0.104331
C52   C     C_R   0.703322 0.660935 0.345016 0.033838
C53   C     C_R   0.635537 0.633864 0.415931 0.025445
C54   C     C_R   0.103221 0.727660 0.084786 0.021282
C55   C     C_R   0.701278 0.134676 0.844249 -0.126023
C56   C     C_R   0.146699 0.634251 0.104616 -0.126604
C57   C     C_R   0.171317 0.630409 0.143575 -0.122263
C58   C     C_R   0.154852 0.719222 0.163061 0.026719
C59   C     C_R   0.121757 0.810126 0.142697 -0.122552
C60   C     C_R   0.302602 0.592366 0.442529 0.566956
C61   C     C_R   0.095925 0.814446 0.103644 -0.129328
C62   C     C_R   0.237626 0.727618 0.224802 -0.118032
C63   C     C_R   0.246060 0.719210 0.264734 -0.110431
C64   C     C_R   0.175879 0.703807 0.285517 0.031980
C65   C     C_R   0.095862 0.699255 0.265519 -0.117156
C66   C     C_R   0.723837 0.114064 0.883168 -0.122637
C67   C     C_R   0.088577 0.706013 0.225595 -0.116258
C68   C     C_R   0.160057 0.719054 0.205107 0.022443
C69   C     C_R   0.173155 0.613108 0.344860 -0.090798
C70   C     C_R   0.199025 0.587040 0.383660 0.262413
C71   C     C_R   0.255988 0.712377 0.388325 -0.171593
C72   C     C_R   0.605966 0.299604 0.553513 0.538774
C73   C     C_R   0.227197 0.739361 0.350210 -0.139829
C74   C     C_R   0.190259 0.686658 0.327543 -0.021007
C75   C     C_R   0.247815 0.632447 0.405186 0.004050
C76   C     C_R   0.725057 0.096700 0.087363 0.023531
C77   C     C_R   0.581921 0.220925 0.768637 -0.167749
C78   C     C_R   0.800903 0.104532 0.109101 -0.126421
C79   C     C_R   0.785864 0.131573 0.147841 -0.122962
C80   C     C_R   0.694494 0.152136 0.165227 0.030993
C81   C     C_R   0.615172 0.153522 0.142647 -0.119962
C82   C     C_R   0.630393 0.125850 0.104003 -0.125632
C83   C     C_R   0.594500 0.237388 0.223855 -0.116476
C84   C     C_R   0.588996 0.607618 0.558482 0.582632
C85   C     C_R   0.585085 0.243691 0.263628 -0.113528
C86   C     C_R   0.666345 0.174573 0.287477 0.027433
C87   C     C_R   0.756962 0.098662 0.270850 -0.117382
C88   C     C_R   0.583062 0.235891 0.729472 -0.132545
C89   C     C_R   0.766455 0.092536 0.231080 -0.115771
C90   C     C_R   0.685488 0.162189 0.207287 0.028296
C91   C     C_R   0.740439 0.183296 0.351358 -0.116618
C92   C     C_R   0.727429 0.213192 0.389806 -0.119590
C93   C     C_R   0.553661 0.242949 0.386160 -0.118322
C94   C     C_R   0.566692 0.213139 0.347658 -0.118129
C95   C     C_R   0.658763 0.187132 0.329564 0.026886
C96   C     C_R   0.297319 0.589401 0.551510 0.544910
C97   C     C_R   0.632427 0.247623 0.407068 0.016571
C98   C     C_R   0.692956 0.694542 0.918443 0.023881
C99   C     C_R   0.621276 0.152430 0.704181 -0.024957
C100  C     C_R   0.767147 0.603543 0.901061 -0.122490
C101  C     C_R   0.757068 0.584538 0.862272 -0.122414
C102  C     C_R   0.673061 0.656537 0.840188 0.048182
C103  C     C_R   0.594677 0.742932 0.858496 -0.085865
C104  C     C_R   0.604079 0.761245 0.897293 -0.120542
C105  C     C_R   0.577932 0.681151 0.777530 -0.095111
C106  C     C_R   0.575161 0.681058 0.737537 -0.096796
C107  C     C_R   0.665735 0.645248 0.717136 0.041995
C108  C     C_R   0.741590 0.717288 0.103728 0.021010
C109  C     C_R   0.759367 0.609213 0.737077 -0.065359
C110  C     C_R   0.655338 0.053794 0.718136 -0.090468
C111  C     C_R   0.762031 0.611207 0.777143 -0.055733
C112  C     C_R   0.671237 0.647205 0.797819 0.055843
C113  C     C_R   0.714749 0.546444 0.656289 -0.145300
C114  C     C_R   0.696243 0.538681 0.617384 -0.172260
C115  C     C_R   0.580859 0.723177 0.614426 0.259639
C116  C     C_R   0.597855 0.729130 0.653922 -0.084572
C117  C     C_R   0.661837 0.640783 0.675051 -0.021888
C118  C     C_R   0.625086 0.625389 0.596337 0.012651
C119  C     C_R   0.054833 0.702789 0.900151 0.028063
C120  C     C_R   0.654693 0.779799 0.125474 -0.124379
Cr1   Cr    Cr6+3 0.426010 0.422500 0.497000 1.082770
Cr2   Cr    Cr6+3 0.651300 0.426310 0.501970 1.024089
Cr3   Cr    Cr6+3 0.422670 0.651170 0.501050 1.069155
Cr4   Cr    Cr6+3 0.905130 0.911420 0.992650 1.012942
Cr5   Cr    Cr6+3 0.911860 0.682710 0.002320 1.011111
Cr6   Cr    Cr6+3 0.682710 0.906840 0.004710 1.011432
H1    H     H_    0.586945 0.842747 0.112377 0.128529
H2    H     H_    0.197660 0.559545 0.159044 0.108743
H3    H     H_    0.039498 0.689481 0.280649 0.117787
H4    H     H_    0.896233 0.587086 0.105906 0.126589
H5    H     H_    0.027639 0.700197 0.210560 0.117177
H6    H     H_    0.143176 0.572832 0.327754 0.159938
H7    H     H_    0.108836 0.879246 0.157569 0.105244
H8    H     H_    0.290058 0.751235 0.403948 0.145197
H9    H     H_    0.874685 0.082384 0.097046 0.122401
H10   H     H_    0.570510 0.120807 0.087835 0.119101
H11   H     H_    0.503305 0.214661 0.331576 0.119654
H12   H     H_    0.496866 0.776714 0.402705 0.130624
H13   H     H_    0.515193 0.304339 0.275772 0.111552
H14   H     H_    0.531257 0.292048 0.206047 0.104773
H15   H     H_    0.843497 0.520293 0.358742 0.124032
H16   H     H_    0.847380 0.131832 0.164656 0.103037
H17   H     H_    0.820309 0.043995 0.288615 0.109925
H18   H     H_    0.836511 0.032285 0.218870 0.109404
H19   H     H_    0.812145 0.163820 0.338078 0.107570
H20   H     H_    0.789784 0.215343 0.405264 0.134802
H21   H     H_    0.479859 0.268249 0.398784 0.173592
H22   H     H_    0.836214 0.550348 0.916690 0.119735
H23   H     H_    0.897705 0.561184 0.175067 0.103721
H24   H     H_    0.545493 0.832184 0.909767 0.122819
H25   H     H_    0.559526 0.802486 0.668577 0.168252
H26   H     H_    0.791248 0.503204 0.293820 0.105338
H27   H     H_    0.502479 0.707315 0.722434 0.109036
H28   H     H_    0.506968 0.707864 0.792541 0.093793
H29   H     H_    0.817353 0.515827 0.849173 0.090737
H30   H     H_    0.829922 0.581203 0.721613 0.118854
H31   H     H_    0.834805 0.586950 0.791846 0.113512
H32   H     H_    0.764958 0.477582 0.672296 0.115896
H33   H     H_    0.732823 0.462997 0.604491 0.141595
H34   H     H_    0.784612 0.496136 0.420144 0.133096
H35   H     H_    0.529300 0.800438 0.842361 0.122614
H36   H     H_    0.075466 0.835217 0.898052 0.120080
H37   H     H_    0.807767 0.514809 0.224846 0.105859
H38   H     H_    0.109425 0.550881 0.645262 0.116294
H39   H     H_    0.212783 0.512859 0.706835 0.107935
H40   H     H_    0.107325 0.820924 0.829333 0.097530
H41   H     H_    0.029487 0.842430 0.701375 0.111401
H42   H     H_    0.006957 0.849415 0.770911 0.097413
H43   H     H_    0.187163 0.789197 0.661021 0.115922
H44   H     H_    0.263141 0.751565 0.597602 0.164064
H45   H     H_    0.153991 0.565919 0.090841 0.125198
H46   H     H_    0.066683 0.556498 0.822969 0.101797
H47   H     H_    0.589112 0.816295 0.181181 0.105269
H48   H     H_    0.185739 0.512374 0.582056 0.145658
H49   H     H_    0.568665 0.014732 0.900481 0.121886
H50   H     H_    0.780898 0.128977 0.896616 0.124659
H51   H     H_    0.754018 0.201634 0.674441 0.111605
H52   H     H_    0.556323 0.312521 0.718887 0.124073
H53   H     H_    0.554719 0.286355 0.787837 0.116680
H54   H     H_    0.527022 0.054279 0.832047 0.141042
H55   H     H_    0.684685 0.989815 0.698217 0.166978
H56   H     H_    0.062368 0.887537 0.089176 0.122811
H57   H     H_    0.507210 0.145163 0.643729 0.146249
H58   H     H_    0.672596 0.829131 0.305387 0.111573
H59   H     H_    0.500600 0.208340 0.578678 0.139909
H60   H     H_    0.740664 0.165619 0.828477 0.103367
H61   H     H_    0.749457 0.263138 0.609596 0.126920
H62   H     H_    0.554842 0.799339 0.341125 0.105085
H63   H     H_    0.060414 0.446223 0.389571 0.364492
H64   H     H_    0.544055 0.169053 0.155441 0.102781
H65   H     H_    0.499151 0.894089 0.531914 0.366853
H66   H     H_    0.038360 0.568521 0.891635 0.125026
H67   H     H_    0.237608 0.799159 0.338086 0.117091
H68   H     H_    0.192470 0.519532 0.776020 0.099770
H69   H     H_    0.839267 0.905146 0.804859 0.329025
H70   H     H_    0.687781 0.840591 0.236219 0.110993
H71   H     H_    0.309672 0.721237 0.279165 0.105833
H72   H     H_    0.293439 0.737283 0.209197 0.108755
O1    O     O_R   0.324990 0.503440 0.453910 -0.424548
O2    O     O_R   0.675430 0.831160 0.051290 -0.518766
O3    O     O_R   0.698870 0.998880 0.039560 -0.501338
O4    O     O_R   0.522030 0.339050 0.458320 -0.495236
O5    O     O_R   0.811290 0.006780 0.950620 -0.515256
O6    O     O_R   0.980960 0.812920 0.953200 -0.498332
O7    O     O_R   0.001480 0.656720 0.955830 -0.521399
O8    O     O_R   0.809240 0.683250 0.968050 -0.500572
O9    O     O_R   0.652500 0.818540 0.967340 -0.521334
O10   O     O_R   0.677620 0.987170 0.961730 -0.503317
O11   O     O_3   0.833240 0.833660 0.999890 -0.234026
O12   O     O_R   0.639980 0.519500 0.542640 -0.516922
O13   O     O_R   0.676180 0.324490 0.458320 -0.517252
O14   O     O_R   0.643570 0.521510 0.464260 -0.501974
O15   O     O_R   0.504630 0.675350 0.460920 -0.510865
O16   O     O_R   0.339850 0.642450 0.459830 -0.521105
O17   O     O_R   0.321120 0.501280 0.538470 -0.506667
O18   O     O_R   0.518440 0.337050 0.536710 -0.501614
O19   O     O_R   0.672300 0.322330 0.542880 -0.517744
O20   O     O_2   0.260993 0.394342 0.404385 -0.291817
O21   O     O_2   0.128955 0.531717 0.443475 -0.263250
O22   O     O_3   0.075460 0.494593 0.376227 -0.551904
O23   O     O_R   0.500750 0.673190 0.545480 -0.429473
O24   O     O_2   0.396141 0.860483 0.586579 -0.289024
O25   O     O_2   0.506972 0.926276 0.610488 -0.297030
O26   O     O_3   0.550039 0.830252 0.544992 -0.505308
O27   O     O_2   0.624952 0.890637 0.784632 -0.276245
O28   O     O_2   0.772130 0.834482 0.743273 -0.296060
O29   O     O_3   0.786416 0.889248 0.813209 -0.494972
O30   O     O_R   0.336260 0.640450 0.538210 -0.499503
O31   O     O_3   0.499990 0.499990 0.500010 -0.262830
O32   O     O_R   0.834210 0.019400 0.034570 -0.522589
O33   O     O_R   0.002210 0.824620 0.031030 -0.503440
O34   O     O_R   0.024400 0.669340 0.039790 -0.520654
O35   O     O_R   0.830490 0.694950 0.045870 -0.502652
S1    S     S_3+6 0.167365 0.499078 0.403409 0.009938
S2    S     S_3+6 0.504802 0.839362 0.589365 0.015046
S3    S     S_3+6 0.710412 0.909280 0.774199 -0.011396

loop_
_geom_bond_atom_site_label_1
_geom_bond_atom_site_label_2
_ccdc_geom_bond_type
C11   H41   S    
C32   O34   A    
C93   C94   A    
Cr2   O19   S    
C39   O5    A    
C96   O30   A    
C1    O13   A    
C18   C21   A    
C107  C109  A    
C41   C42   A    
C43   H58   S    
C103  H35   S    
C102  C112  S    
C111  C112  A    
C24   C27   A    
Cr5   O34   S    
C14   C33   A    
C115  S2    S    
C81   C82   A    
C120  H1    S    
C47   C49   A    
C41   H26   S    
C6    H46   S    
C85   C86   A    
C56   C57   A    
C40   C46   A    
C72   O19   A    
Cr3   O23   S    
C81   H64   S    
C61   H56   S    
C77   H53   S    
C96   O17   A    
Cr4   O6    S    
C38   H4    S    
O22   S1    S    
C28   C29   A    
O26   S2    S    
C76   C78   A    
Cr1   O4    S    
C14   H47   S    
C73   H67   S    
C84   O23   A    
C109  C111  A    
C70   S1    S    
C5    C6    A    
C80   C81   A    
C84   O12   A    
C79   H16   S    
C23   H49   S    
Cr4   O11   S    
C101  H29   S    
Cr6   O2    S    
C115  C116  A    
Cr5   O8    S    
O28   S3    D    
C116  C117  A    
C18   C19   A    
C27   H59   S    
C55   H60   S    
C104  H24   S    
C2    C13   A    
C109  H30   S    
C60   O16   A    
C22   C66   A    
C3    H36   S    
C16   H43   S    
Cr1   O1    S    
C19   C20   A    
C77   C88   A    
Cr6   O10   S    
C8    C9    A    
C65   C67   A    
Cr2   O12   S    
C8    H68   S    
C37   O8    A    
C113  H32   S    
C9    C10   A    
C85   H13   S    
C60   O1    A    
H63   O22   S    
C19   H38   S    
C106  H27   S    
C45   H70   S    
C105  H28   S    
C32   O33   A    
C63   C64   A    
C29   H51   S    
C49   H12   S    
C24   H57   S    
C38   C108  A    
C33   C46   S    
C37   O9    A    
O21   S1    D    
C66   H50   S    
C94   C95   A    
C57   H2    S    
C1    O4    A    
C25   C44   A    
C32   C54   S    
C83   H14   S    
C92   C97   A    
C54   C61   A    
C6    C7    A    
C13   C77   A    
C51   H15   S    
Cr6   O3    S    
C47   H62   S    
C48   C53   S    
C35   C76   S    
C54   C56   A    
O24   S2    D    
C25   H54   S    
C50   C53   A    
C59   C61   A    
Cr4   O5    S    
C27   C31   A    
C67   C68   A    
Cr4   O33   S    
C101  C102  A    
C48   O14   A    
Cr1   O31   S    
C62   H72   S    
C40   H37   S    
C10   C11   A    
C28   H61   S    
C10   C20   S    
C91   C92   A    
C71   C73   A    
Cr5   O11   S    
C17   H44   S    
C35   O3    A    
Cr3   O30   S    
C50   H34   S    
C58   C59   A    
C45   C46   A    
C99   C110  A    
C92   H20   S    
C30   C99   S    
C83   C90   A    
C17   C21   A    
C63   H71   S    
Cr1   O18   S    
C29   C30   A    
O29   S3    S    
C7    C119  A    
C26   C33   A    
C49   C53   A    
Cr3   O31   S    
C12   C15   A    
C1    C97   S    
Cr6   O9    S    
C16   C20   A    
C115  C118  A    
C39   O10   A    
C62   C63   A    
C50   C51   A    
C37   C98   S    
C69   C74   A    
C13   C44   S    
C43   C45   A    
O20   S1    D    
C114  C118  A    
C3    C119  A    
C113  C117  A    
C18   H48   S    
C58   C68   S    
C31   C72   S    
C72   O18   A    
C105  C112  A    
C8    C15   A    
C98   C100  A    
Cr3   O15   S    
C56   H45   S    
Cr2   O14   S    
C7    H66   S    
C24   C30   A    
C42   C43   A    
C76   C82   A    
C3    C4    A    
C73   C74   A    
C93   C97   A    
C91   H19   S    
C55   C66   A    
C113  C114  A    
C78   H9    S    
C2    S3    S    
Cr6   O11   S    
Cr2   O31   S    
C48   O15   A    
C40   C41   A    
C83   C85   A    
C86   C87   A    
O27   S3    D    
C28   C31   A    
C67   H5    S    
O25   S2    D    
C4    C5    A    
Cr5   O7    S    
C108  C120  A    
C12   H42   S    
C65   H3    S    
C11   C12   A    
C88   H52   S    
C47   C52   A    
C21   C96   S    
H69   O29   S    
C36   C119  S    
C89   H18   S    
C105  C106  A    
C60   C75   S    
C14   C120  A    
C62   C68   A    
C35   O32   A    
C26   C38   A    
C64   C65   A    
C87   C89   A    
C93   H21   S    
C111  H31   S    
C34   C108  S    
C51   C52   A    
C26   H23   S    
C71   H8    S    
C71   C75   A    
C78   C79   A    
C44   C55   A    
C57   C58   A    
C16   C17   A    
C100  H22   S    
C69   H6    S    
C98   C104  A    
C22   C39   S    
C9    H39   S    
C100  C101  A    
C59   H7    S    
C4    H40   S    
C22   C23   A    
C36   O7    A    
C23   C25   A    
C80   C90   S    
C102  C103  A    
C69   C70   A    
C114  H33   S    
C5    C15   S    
C88   C99   A    
Cr5   O35   S    
C86   C95   S    
C82   H10   S    
C91   C95   A    
C79   C80   A    
C34   O2    A    
C70   C75   A    
Cr1   O17   S    
C84   C118  S    
C106  C107  A    
Cr3   O16   S    
C103  C104  A    
C110  H55   S    
C94   H11   S    
C64   C74   S    
Cr2   O13   S    
C36   O6    A    
C87   H17   S    
C89   C90   A    
C34   O35   A    
H65   O26   S    
C107  C117  S    
C116  H25   S    
Cr4   O32   S    
C42   C52   S    
C2    C110  A    
