data_mof_unit_26486.cif
_audit_creation_date              2012-12-10T20:06:59-0500
_audit_creation_method            fapswitch 2.2
_symmetry_space_group_name_H-M    P1
_symmetry_Int_Tables_number       1
_space_group_crystal_system       triclinic
_cell_length_a                    18.446887
_cell_length_b                    18.360687
_cell_length_c                    10.605705
_cell_angle_alpha                 89.99573
_cell_angle_beta                  90.128066
_cell_angle_gamma                 90.569977
_cell_volume                      3591.93924516

loop_
_atom_site_label
_atom_site_type_symbol
_atom_type_description
_atom_site_fract_x
_atom_site_fract_y
_atom_site_fract_z
_atom_type_partial_charge
C1    C     C_R   0.363974 0.499578 0.502264 0.901942
C2    C     C_R   0.636347 0.500381 0.501342 0.905647
C3    C     C_R   0.714974 0.501193 0.520081 -0.161972
C4    C     C_R   0.289809 0.497995 0.546990 -0.125405
C5    C     C_R   0.962002 0.548960 0.741805 -0.107893
C6    C     C_R   0.036759 0.420644 0.691013 -0.077193
C7    C     C_R   0.038126 0.552360 0.729953 -0.015974
C8    C     C_R   0.960677 0.421628 0.705124 -0.074196
C9    C     C_R   0.074349 0.488647 0.689457 0.078280
C10   C     C_R   0.925961 0.488913 0.687680 0.046280
C11   C     C_R   0.541112 0.726263 0.585917 -0.080240
C12   C     C_R   0.458993 0.273581 0.414151 -0.066960
C13   C     C_R   0.458940 0.725615 0.414221 -0.067936
C14   C     C_R   0.540998 0.274536 0.586048 -0.076621
C15   C     C_R   0.542137 0.802635 0.588182 0.164452
C16   C     C_R   0.457998 0.197202 0.412264 0.161642
C17   C     C_R   0.457964 0.801972 0.412335 0.159894
C18   C     C_R   0.542022 0.198187 0.588287 0.162582
C19   C     C_R   0.500067 0.841692 0.500348 -0.064543
C20   C     C_R   0.500031 0.158304 0.500348 -0.066127
C21   C     C_R   0.531066 0.962112 0.399959 -0.072320
C22   C     C_R   0.469190 0.037886 0.600963 -0.072067
C23   C     C_R   0.469210 0.961471 0.600974 -0.072541
C24   C     C_R   0.531056 0.038522 0.399954 -0.073428
C25   C     C_R   0.500103 0.077125 0.500439 0.144627
C26   C     C_R   0.500134 0.922872 0.500455 0.144528
C27   C     C_R   0.510498 0.500109 0.259774 0.904115
C28   C     C_R   0.488002 0.499872 0.739345 0.888950
C29   C     C_R   0.537960 0.634377 0.108650 -0.253389
C30   C     C_R   0.456864 0.365951 0.888785 -0.237286
C31   C     C_R   0.456667 0.633064 0.888706 -0.237583
C32   C     C_R   0.538141 0.366439 0.108746 -0.248575
C33   C     C_R   0.520142 0.700828 0.051876 -0.004440
C34   C     C_R   0.474490 0.299302 0.944895 -0.000460
C35   C     C_R   0.474255 0.700112 0.944681 -0.004673
C36   C     C_R   0.520386 0.299592 0.052079 -0.003253
C37   C     C_R   0.481305 0.566628 0.939798 0.101873
C38   C     C_R   0.513506 0.433170 0.058618 0.098490
C39   C     C_R   0.513427 0.567105 0.058580 0.096004
C40   C     C_R   0.481388 0.432936 0.939827 0.102586
C41   C     C_R   0.475192 0.499719 0.874823 -0.226963
C42   C     C_R   0.520495 0.500214 0.123504 -0.224320
C43   C     C_R   0.754845 0.437542 0.506163 -0.190604
C44   C     C_R   0.232594 0.521625 0.471798 -0.194362
C45   C     C_R   0.277221 0.473719 0.670208 -0.201167
C46   C     C_R   0.751262 0.565834 0.551613 -0.188876
C47   C     C_R   0.827714 0.436307 0.540768 0.327631
C48   C     C_R   0.161942 0.518748 0.518448 0.302494
C49   C     C_R   0.207370 0.472192 0.718920 0.339718
C50   C     C_R   0.823903 0.564687 0.587826 0.207935
C51   C     C_R   0.858731 0.496651 0.606667 0.015273
C52   C     C_R   0.149097 0.493654 0.642350 0.034751
H1    H     H_    0.573696 0.635315 0.189871 0.158057
H2    H     H_    0.421795 0.365478 0.806655 0.153104
H3    H     H_    0.421533 0.632714 0.806633 0.161565
H4    H     H_    0.573887 0.366295 0.189959 0.155771
H5    H     H_    0.730059 0.389471 0.464521 0.188843
H6    H     H_    0.242688 0.540867 0.376834 0.183392
H7    H     H_    0.322073 0.456816 0.729158 0.144118
H8    H     H_    0.723635 0.617548 0.546271 0.199194
H9    H     H_    0.573401 0.696050 0.652816 0.174631
H10   H     H_    0.426767 0.303667 0.347011 0.182017
H11   H     H_    0.426659 0.694901 0.347127 0.179121
H12   H     H_    0.573204 0.305373 0.653074 0.181563
H13   H     H_    0.555345 0.933464 0.321668 0.179521
H14   H     H_    0.444879 0.066536 0.679225 0.180540
H15   H     H_    0.444911 0.932319 0.679240 0.180631
H16   H     H_    0.555340 0.067670 0.321668 0.179350
N1    N     N_R   0.500000 0.689440 0.500000 -0.128614
N2    N     N_R   0.500000 0.310560 0.500000 -0.130918
O1    O     O_R   0.398180 0.560840 0.499970 -0.602403
O2    O     O_R   0.601820 0.439160 0.500030 -0.610300
O3    O     O_R   0.601820 0.560840 0.500030 -0.614672
O4    O     O_R   0.398180 0.439160 0.499970 -0.597617
O5    O     O_R   0.499990 0.560810 0.316770 -0.617196
O6    O     O_R   0.500010 0.439190 0.683230 -0.617294
O7    O     O_R   0.500010 0.560810 0.683230 -0.616175
O8    O     O_R   0.499990 0.439190 0.316770 -0.617397
Zn1   Zn    Zn3+2 0.500000 0.581210 0.500000 0.947118
Zn2   Zn    Zn3+2 0.500000 0.418790 0.500000 0.950465
C53   C     C_2   0.552911 0.233074 0.106805 0.536237
H17   H     H_    0.570478 0.233131 0.204584 0.027812
O9    O     O_2   0.564319 0.179230 0.042669 -0.458103
C54   C     C_2   0.441980 0.766421 0.888792 0.539521
H18   H     H_    0.424959 0.766053 0.790719 0.031317
O10   O     O_2   0.430175 0.820435 0.952275 -0.457710
C55   C     C_2   0.442232 0.232302 0.889156 0.537715
H19   H     H_    0.425173 0.232277 0.791106 0.031154
O11   O     O_2   0.430474 0.178078 0.952742 -0.458439
C56   C     C_2   0.552593 0.768053 0.106512 0.533516
H20   H     H_    0.570100 0.768418 0.204320 0.029990
O12   O     O_2   0.564007 0.822091 0.042277 -0.458761
Br1   Br    Br    0.883577 0.360397 0.463168 -0.416827
Br2   Br    Br    0.084320 0.547834 0.409169 -0.356201
Br3   Br    Br    0.194047 0.441218 0.890253 -0.420523
Br4   Br    Br    0.874030 0.656876 0.573435 -0.419055
C57   C     C_2   0.921296 0.595839 0.831295 0.501720
H21   H     H_    0.862983 0.589188 0.839895 0.091148
O13   O     O_2   0.951919 0.639881 0.899787 -0.517637
C58   C     C_2   0.075091 0.350355 0.673585 0.495123
H22   H     H_    0.058677 0.302300 0.725714 0.066529
O14   O     O_2   0.124919 0.344838 0.598799 -0.514839
C59   C     C_2   0.077341 0.622572 0.750987 0.559855
H23   H     H_    0.048641 0.673615 0.742068 0.135517
O15   O     O_2   0.141445 0.624416 0.779814 -0.542214
C60   C     C_2   0.918514 0.356671 0.748326 0.479900
H24   H     H_    0.940866 0.302485 0.744301 0.081277
O16   O     O_2   0.857584 0.363455 0.791337 -0.528304
Br5   Br    Br    0.603179 0.850692 0.709628 -0.366680
Br6   Br    Br    0.397041 0.148901 0.290968 -0.360137
Br7   Br    Br    0.396957 0.849073 0.291108 -0.364330
Br8   Br    Br    0.602974 0.151333 0.709848 -0.363313

loop_
_geom_bond_atom_site_label_1
_geom_bond_atom_site_label_2
_ccdc_geom_bond_type
C21   C26   A    
C15   Br5   S    
C55   H19   S    
C27   O8    A    
C6    C9    A    
O1    Zn1   S    
C57   H21   S    
C16   Br6   S    
C15   C19   A    
C30   H2    S    
C3    C43   A    
C1    O1    A    
C48   Br2   S    
C1    O4    A    
C32   C36   A    
C18   Br8   S    
C38   C42   A    
O8    Zn2   S    
C20   C25   S    
C29   C33   A    
C28   C41   S    
C23   C26   A    
C23   H15   S    
C19   C26   S    
C14   C18   A    
C22   H14   S    
C57   O13   D    
C11   C15   A    
C12   C16   A    
C44   H6    S    
C22   C25   A    
C32   C38   A    
C43   C47   A    
C18   C20   A    
C21   H13   S    
C60   O16   D    
O4    Zn2   S    
C14   N2    A    
C9    C52   S    
C2    O2    A    
C10   C51   S    
C17   Br7   S    
C53   O9    D    
C53   H17   S    
C39   C42   A    
C4    C45   A    
O7    Zn1   S    
C47   Br1   S    
C37   C39   A    
C30   C34   A    
N2    Zn2   S    
C54   H18   S    
C5    C7    A    
C43   H5    S    
C17   C19   A    
C6    C8    A    
C4    C44   A    
C11   H9    S    
C49   Br3   S    
C31   C37   A    
C6    C58   S    
C12   H10   S    
C56   O12   D    
C13   H11   S    
C45   C49   A    
C36   C53   S    
C16   C20   A    
C49   C52   A    
C14   H12   S    
C29   C39   A    
C58   O14   D    
C50   C51   A    
O3    Zn1   S    
C30   C40   A    
C59   O15   D    
C24   C25   A    
C28   O7    A    
C2    O3    A    
C40   C41   A    
C5    C57   S    
C55   O11   D    
C31   C35   A    
N1    Zn1   S    
C28   O6    A    
C7    C9    A    
C12   N2    A    
C45   H7    S    
C46   H8    S    
O6    Zn2   S    
C54   O10   D    
C27   O5    A    
C8    C60   S    
C47   C51   A    
C35   C54   S    
C11   N1    A    
C46   C50   A    
C3    C46   A    
C13   C17   A    
C1    C4    S    
C13   N1    A    
C2    C3    S    
C5    C10   A    
O2    Zn2   S    
C33   C56   S    
C38   C40   A    
C27   C42   S    
C50   Br4   S    
C56   H20   S    
C29   H1    S    
C58   H22   S    
C33   C35   A    
C34   C36   A    
C34   C55   S    
C37   C41   A    
C24   H16   S    
C48   C52   A    
C8    C10   A    
C60   H24   S    
C21   C24   A    
C59   H23   S    
C22   C23   A    
C7    C59   S    
C31   H3    S    
O5    Zn1   S    
C32   H4    S    
C44   C48   A    
