data_mof_unit_65913.cif
_audit_creation_date              2012-12-10T17:10:52-0500
_audit_creation_method            fapswitch 2.2
_symmetry_space_group_name_H-M    P1
_symmetry_Int_Tables_number       1
_space_group_crystal_system       triclinic
_cell_length_a                    18.79557
_cell_length_b                    18.539112
_cell_length_c                    18.75139
_cell_angle_alpha                 109.029001
_cell_angle_beta                  110.101484
_cell_angle_gamma                 109.093931
_cell_volume                      5041.1565136

loop_
_atom_site_label
_atom_site_type_symbol
_atom_type_description
_atom_site_fract_x
_atom_site_fract_y
_atom_site_fract_z
_atom_type_partial_charge
C1    C     C_R   0.621164 0.620369 0.501517 0.925591
C2    C     C_3   0.185387 0.417965 0.198120 -0.234486
C3    C     C_3   0.221707 0.471607 0.297106 0.377405
C4    C     C_3   0.314395 0.502137 0.312762 -0.214575
C5    C     C_R   0.778635 0.613845 0.523369 -0.138614
C6    C     C_R   0.847212 0.602604 0.519298 0.444685
C7    C     C_R   0.901173 0.655742 0.500703 -0.154365
C8    C     C_R   0.889442 0.722989 0.490654 -0.150160
C9    C     C_R   0.823091 0.738505 0.499453 0.054183
C10   C     C_R   0.763315 0.679301 0.509331 -0.001972
C11   C     C_R   0.689892 0.687279 0.504968 -0.216996
C12   C     C_R   0.380974 0.501663 0.379422 0.981976
C13   C     C_R   0.679897 0.757556 0.499762 0.332616
C14   C     C_R   0.744396 0.821838 0.500789 0.333250
C15   C     C_R   0.814500 0.811268 0.498477 -0.246896
C16   C     C_R   0.587857 0.334798 0.635509 0.278297
C17   C     C_R   0.583519 0.254012 0.622581 0.358704
C18   C     C_R   0.659056 0.252367 0.667511 0.344727
C19   C     C_R   0.736362 0.330955 0.729191 -0.211798
C20   C     C_R   0.741724 0.412355 0.741672 0.008862
C21   C     C_R   0.669592 0.413676 0.686894 -0.088099
C22   C     C_R   0.682353 0.494423 0.688369 -0.128527
C23   C     C_R   0.371702 0.380004 0.490966 1.000412
C24   C     C_R   0.762124 0.572571 0.749399 0.357937
C25   C     C_R   0.827845 0.571697 0.810588 -0.185557
C26   C     C_R   0.817401 0.492888 0.808130 -0.074970
C27   C     C_R   0.228159 0.206520 0.322829 0.340975
C28   C     C_R   0.180502 0.118442 0.255849 0.424058
C29   C     C_R   0.137140 0.052273 0.269389 -0.223891
C30   C     C_R   0.137191 0.073266 0.347449 -0.213923
C31   C     C_R   0.186924 0.160785 0.416911 0.017650
C32   C     C_R   0.239380 0.227757 0.407757 -0.032643
C33   C     C_R   0.297951 0.312614 0.483594 -0.102197
C34   C     C_R   0.618440 0.497328 0.621146 0.966157
C35   C     C_R   0.293262 0.331743 0.560071 -0.127397
C36   C     C_R   0.236157 0.268056 0.565684 0.382151
C37   C     C_R   0.184163 0.182791 0.495030 -0.130636
C38   C     C_R   0.006339 0.620429 0.125957 0.887071
C39   C     C_R   0.124313 0.500193 0.124894 0.970947
C40   C     C_R   0.005548 0.379321 0.885852 0.970159
C41   C     C_R   0.883316 0.497342 0.879834 0.895264
C42   C     C_R   0.007164 0.127859 0.619510 0.963570
C43   C     C_R   0.880179 0.878780 0.499112 0.953741
C44   C     C_R   0.002442 0.881437 0.381000 0.863712
C45   C     C_3   0.320010 0.584406 0.306823 -0.277836
C46   C     C_R   0.119665 0.119629 0.499393 0.881549
C47   C     C_R   0.172044 0.773219 0.275630 -0.089150
C48   C     C_R   0.249223 0.850590 0.341572 -0.079866
C49   C     C_R   0.246712 0.919476 0.397252 -0.066465
C50   C     C_R   0.167270 0.910243 0.388973 -0.158369
C51   C     C_R   0.087984 0.831356 0.323622 0.036145
C52   C     C_R   0.090195 0.763657 0.263814 0.107271
C53   C     C_R   0.010310 0.687690 0.195150 -0.157614
C54   C     C_R   0.931125 0.676217 0.189477 -0.210594
C55   C     C_R   0.928681 0.740115 0.249968 0.378551
C56   C     C_3   0.225989 0.552744 0.289888 0.387626
C57   C     C_R   0.006455 0.817953 0.316257 -0.196861
C58   C     C_R   0.082467 0.268276 0.917858 0.311857
C59   C     C_R   0.148916 0.247710 0.942611 -0.152770
C60   C     C_R   0.185035 0.230026 0.890217 0.389002
C61   C     C_R   0.147059 0.221521 0.807682 -0.128572
C62   C     C_R   0.073070 0.232163 0.777421 -0.042111
C63   C     C_R   0.051033 0.270441 0.838227 -0.045597
C64   C     C_R   0.002499 0.312142 0.817447 -0.199418
C65   C     C_R   0.967205 0.304545 0.734185 0.306622
C66   C     C_R   0.971302 0.247137 0.668008 0.382414
C67   C     C_3   0.191006 0.500154 0.192049 -0.216821
C68   C     C_R   0.019720 0.205487 0.688528 -0.223492
C69   C     C_3   0.284161 0.531529 0.207354 -0.240728
C70   C     C_3   0.279218 0.449939 0.214776 0.438817
H1    H     H_    0.932381 0.761676 0.475183 0.178669
H2    H     H_    0.792457 0.327235 0.765745 0.218024
H3    H     H_    0.336292 0.396314 0.617534 0.213916
H4    H     H_    0.375950 0.652146 0.352601 0.240526
H5    H     H_    0.099403 0.984494 0.217567 0.198704
H6    H     H_    0.311199 0.857051 0.349473 0.181897
H7    H     H_    0.308396 0.555338 0.168669 0.215228
H8    H     H_    0.130307 0.349745 0.155923 0.258791
O1    O     O_R   0.592050 0.539910 0.448690 -0.631025
O2    O     O_R   0.054880 0.643340 0.094680 -0.639928
O3    O     O_R   0.044450 0.448300 0.096090 -0.565672
O4    O     O_R   0.147910 0.551710 0.096070 -0.642836
O5    O     O_R   0.952850 0.356690 0.912870 -0.564223
O6    O     O_R   0.056310 0.460100 0.912850 -0.596464
O7    O     O_R   0.859820 0.448320 0.911480 -0.628423
O8    O     O_R   0.963280 0.551730 0.911460 -0.593769
O9    O     O_R   0.947150 0.091620 0.538830 -0.545346
O10   O     O_R   0.051390 0.091590 0.643040 -0.630936
O11   O     O_R   0.856260 0.908400 0.447890 -0.548857
O12   O     O_R   0.591210 0.643330 0.551330 -0.559215
O13   O     O_R   0.960490 0.908380 0.552100 -0.627368
O14   O     O_R   0.948610 0.908430 0.356980 -0.578909
O15   O     O_R   0.052850 0.908400 0.461190 -0.636277
O16   O     O_R   0.039510 0.091640 0.447910 -0.607255
O17   O     O_R   0.143740 0.091610 0.552120 -0.600641
O18   O     O_R   0.408100 0.448300 0.356370 -0.546967
O19   O     O_R   0.407270 0.551720 0.459020 -0.600179
O20   O     O_R   0.408790 0.356670 0.448670 -0.565012
O21   O     O_R   0.407950 0.460090 0.551310 -0.620589
O22   O     O_R   0.592730 0.448280 0.540980 -0.612901
O23   O     O_R   0.591900 0.551700 0.643630 -0.572137
O24   O     O_R   0.951420 0.539930 0.094700 -0.600581
Zn1   Zn    Zn3+2 0.500560 0.430950 0.431460 1.154118
Zn2   Zn    Zn3+2 0.499440 0.569050 0.568540 1.149337
Zn3   Zn    Zn3+2 0.934790 0.430970 0.003790 1.121265
Zn4   Zn    Zn3+2 0.072940 0.569060 0.003760 1.057905
Zn5   Zn    Zn3+2 0.930400 0.000020 0.430430 1.163844
Zn6   Zn    Zn3+2 0.069600 0.999990 0.569590 1.061121
Cl1   Cl    Cl    0.188197 0.620074 0.338324 -0.538494
H9    H     H_    0.953033 0.645749 0.495026 0.197646
Cl2   Cl    Cl    0.737792 0.917235 0.508444 -0.416270
Cl3   Cl    Cl    0.783478 0.673251 0.750618 -0.547643
Cl4   Cl    Cl    0.490375 0.337695 0.608591 -0.575049
Cl5   Cl    Cl    0.482774 0.155110 0.552921 -0.467879
Cl6   Cl    Cl    0.657618 0.153059 0.652863 -0.397635
H10   H     H_    0.887349 0.633053 0.860681 0.198538
Cl7   Cl    Cl    0.252335 0.286002 0.290442 -0.501130
Cl8   Cl    Cl    0.169747 0.088963 0.151826 -0.432321
H11   H     H_    0.097901 0.020084 0.352743 0.146111
Cl9   Cl    Cl    0.231361 0.297720 0.662786 -0.562280
H12   H     H_    0.870418 0.617176 0.137087 0.205164
H13   H     H_    0.178008 0.720900 0.235893 0.172119
H14   H     H_    0.306633 0.979921 0.447860 0.210760
H15   H     H_    0.169327 0.965829 0.434245 0.157930
Cl10  Cl    Cl    0.826719 0.717885 0.242392 -0.542734
Cl11  Cl    Cl    0.917596 0.367091 0.712207 -0.497613
Cl12  Cl    Cl    0.029104 0.269503 0.978444 -0.552141
H16   H     H_    0.171723 0.244352 0.002198 0.250973
Cl13  Cl    Cl    0.273429 0.211508 0.924972 -0.442220
H17   H     H_    0.176810 0.208022 0.768501 0.226170
Cl14  Cl    Cl    0.921634 0.234848 0.562408 -0.388376
Cl15  Cl    Cl    0.316742 0.383847 0.163898 -0.469225
Cl16  Cl    Cl    0.181584 0.433528 0.358629 -0.453251
Cl17  Cl    Cl    0.584895 0.764378 0.488347 -0.481347
H18   H     H_    0.738634 0.571614 0.538627 0.176970
Cl18  Cl    Cl    0.864400 0.520574 0.536089 -0.464595

loop_
_geom_bond_atom_site_label_1
_geom_bond_atom_site_label_2
_ccdc_geom_bond_type
C23   O21   A    
C16   C21   A    
C2    C70   S    
C13   Cl17  S    
C48   H6    S    
C66   C68   A    
C19   C20   A    
C1    C11   S    
C16   Cl4   S    
C4    C70   S    
C7    C8    A    
C53   C54   A    
C41   O8    A    
C28   C29   A    
C62   C63   A    
C38   O2    A    
C36   C37   A    
O15   Zn6   S    
C5    C6    A    
O10   Zn6   S    
C30   H11   S    
O20   Zn1   S    
C49   H14   S    
O2    Zn4   S    
O24   Zn3   S    
C18   C19   A    
C40   O6    A    
C6    Cl18  S    
C44   O15   A    
C69   H7    S    
C46   O17   A    
C55   Cl10  S    
C45   C56   S    
C8    C9    A    
C23   C33   S    
C24   Cl3   S    
C34   O22   A    
C51   C57   A    
C4    C12   S    
C9    C10   A    
C61   C62   A    
C44   O14   A    
O21   Zn2   S    
C58   Cl12  S    
C21   C22   A    
C42   C68   S    
C40   O5    A    
O1    Zn1   S    
C19   H2    S    
O8    Zn4   S    
O7    Zn3   S    
C17   Cl5   S    
C17   C18   A    
C4    C45   S    
C27   Cl7   S    
C14   Cl2   S    
C22   C34   S    
O3    Zn3   S    
O16   Zn5   S    
C34   O23   A    
C45   C69   S    
C51   C52   A    
C50   H15   S    
C24   C25   A    
C39   O3    A    
C2    C67   S    
C10   C11   A    
C25   H10   S    
C16   C17   A    
C47   H13   S    
C59   H16   S    
O22   Zn1   S    
C43   O13   A    
C31   C37   A    
C45   H4    S    
C3    Cl16  S    
C35   C36   A    
C18   Cl6   S    
C29   C30   A    
C2    H8    S    
C3    C56   S    
O14   Zn5   S    
O6    Zn4   S    
C47   C48   A    
C46   O16   A    
C44   C57   S    
O11   Zn5   S    
C70   Cl15  S    
C50   C51   A    
C43   O11   A    
O12   Zn2   S    
C12   O19   A    
C47   C52   A    
C61   H17   S    
C48   C49   A    
C54   H12   S    
C65   C66   A    
O23   Zn2   S    
C55   C57   A    
C1    O1    A    
C22   C24   A    
C58   C59   A    
C42   O10   A    
C3    C4    S    
C1    O12   A    
C56   Cl1   S    
C52   C53   A    
C66   Cl14  S    
C58   C63   A    
C5    H18   S    
C54   C55   A    
C35   H3    S    
C8    H1    S    
C27   C32   A    
C39   C67   S    
O13   Zn6   S    
C31   C32   A    
C12   O18   A    
C39   O4    A    
C60   Cl13  S    
C6    C7    A    
C29   H5    S    
C56   C67   S    
C41   O7    A    
C40   C64   S    
C7    H9    S    
C62   C68   A    
C65   Cl11  S    
C2    C3    S    
C25   C26   A    
C15   C43   S    
C5    C10   A    
C38   O24   A    
C28   Cl8   S    
C32   C33   A    
C11   C13   A    
C30   C31   A    
C38   C53   S    
C20   C26   A    
C64   C65   A    
C33   C35   A    
O4    Zn4   S    
C9    C15   A    
C69   C70   S    
C36   Cl9   S    
O19   Zn2   S    
O17   Zn6   S    
C63   C64   A    
O5    Zn3   S    
C59   C60   A    
C23   O20   A    
O9    Zn5   S    
C20   C21   A    
C49   C50   A    
O18   Zn1   S    
C27   C28   A    
C14   C15   A    
C60   C61   A    
C42   O9    A    
C67   C69   S    
C37   C46   S    
C13   C14   A    
C26   C41   S    
