data_mof_unit_8146.cif
_audit_creation_date              2012-12-10T17:27:54-0500
_audit_creation_method            fapswitch 2.2
_symmetry_space_group_name_H-M    P1
_symmetry_Int_Tables_number       1
_space_group_crystal_system       triclinic
_cell_length_a                    10.598435
_cell_length_b                    11.989593
_cell_length_c                    12.841226
_cell_angle_alpha                 91.540589
_cell_angle_beta                  91.085376
_cell_angle_gamma                 85.911654
_cell_volume                      1626.7686038

loop_
_atom_site_label
_atom_site_type_symbol
_atom_type_description
_atom_site_fract_x
_atom_site_fract_y
_atom_site_fract_z
_atom_type_partial_charge
C1    C     C_R   0.470974 0.520144 0.695915 0.918402
C2    C     C_R   0.400511 0.638821 0.848504 -0.037978
C3    C     C_R   0.414772 0.435448 0.862331 -0.094748
C4    C     C_R   0.734739 0.496758 0.475382 0.958081
C5    C     C_R   0.427877 0.446773 0.971398 0.127157
C6    C     C_R   0.432832 0.555570 0.017318 0.114682
C7    C     C_R   0.457800 0.568693 0.124416 -0.040243
C8    C     C_R   0.467146 0.365928 0.140416 -0.237402
C9    C     C_R   0.439532 0.353406 0.035535 -0.158309
C10   C     C_R   0.382719 0.958946 0.402755 -0.283376
C11   C     C_R   0.392342 0.842557 0.412804 0.043089
C12   C     C_R   0.937838 0.387540 0.448553 0.083707
C13   C     C_R   0.554715 0.855282 0.541248 0.092701
C14   C     C_R   0.538851 0.974761 0.541928 0.050981
C15   C     C_R   0.456584 0.025949 0.466819 0.038544
C16   C     C_R   0.498303 0.480225 0.298418 0.863727
C17   C     C_R   0.449703 0.143341 0.457557 -0.077824
C18   C     C_R   0.600499 0.160692 0.595209 0.053683
C19   C     C_R   0.602578 0.045031 0.613522 -0.115633
C20   C     C_R   0.257429 0.499169 0.496323 0.883430
C21   C     C_R   0.888904 0.282445 0.427397 -0.066498
C22   C     C_R   0.954780 0.184551 0.459951 -0.077387
C23   C     C_R   0.864564 0.489050 0.438568 -0.214503
C24   C     C_R   0.066006 0.191286 0.518089 -0.110800
C25   C     C_R   0.117815 0.294397 0.533828 -0.135228
C26   C     C_R   0.061448 0.392538 0.487032 0.045519
C27   C     C_2   0.847998 0.683959 0.368466 0.467815
C28   C     C_2   0.361772 0.741213 0.789907 0.461444
C29   C     C_2   0.382013 0.328812 0.809185 0.399060
C30   C     C_2   0.677744 0.231577 0.662626 0.459078
C31   C     C_2   0.656877 0.004269 0.714513 0.457018
C32   C     C_2   0.665625 0.798470 0.593669 0.485779
C33   C     C_3   0.122438 0.674050 0.367727 -0.828998
C34   C     C_R   0.922914 0.585046 0.410701 -0.012030
C35   C     C_2   0.463438 0.683560 0.170100 0.386199
C36   C     C_R   0.054872 0.584185 0.420507 0.099892
C37   C     C_R   0.121802 0.494297 0.474061 -0.137417
C38   C     C_R   0.478738 0.472019 0.185653 -0.115490
C39   C     C_R   0.424037 0.531627 0.802317 -0.174833
C40   C     C_R   0.410788 0.649889 0.955174 -0.258170
H1    H     H_    0.430581 0.269154 0.006860 0.213713
H2    H     H_    0.402869 0.733943 0.988053 0.187645
H3    H     H_    0.876917 0.767731 0.384943 0.103835
H4    H     H_    0.385786 0.822507 0.820304 0.106070
H5    H     H_    0.312509 0.332261 0.746085 0.073325
H6    H     H_    0.639022 0.270715 0.732948 0.121621
H7    H     H_    0.744920 0.034003 0.745006 0.098215
H8    H     H_    0.655122 0.731810 0.646842 0.123852
H9    H     H_    0.208275 0.636660 0.328269 0.260526
H10   H     H_    0.065794 0.714442 0.303886 0.220537
H11   H     H_    0.145462 0.739607 0.426241 0.254335
H12   H     H_    0.386478 0.183517 0.400473 0.142347
H13   H     H_    0.551715 0.711007 0.201910 0.152555
H14   H     H_    0.317183 0.996289 0.345693 0.162129
H15   H     H_    0.334721 0.792050 0.363849 0.176661
H16   H     H_    0.799305 0.276007 0.386480 0.140960
H17   H     H_    0.915809 0.104441 0.445418 0.143519
H18   H     H_    0.112743 0.116515 0.550612 0.151887
H19   H     H_    0.199794 0.294286 0.584531 0.159902
H20   H     H_    0.477762 0.291418 0.186615 0.177120
N1    N     N_R   0.523130 0.207800 0.519340 -0.132977
N2    N     N_R   0.476870 0.792180 0.480660 -0.136522
O1    O     O_R   0.506170 0.421690 0.658830 -0.653994
O2    O     O_2   0.295839 0.736622 0.711081 -0.547230
O3    O     O_2   0.436077 0.238647 0.829772 -0.605466
O4    O     O_2   0.789135 0.239365 0.644382 -0.582069
O5    O     O_2   0.599975 0.941506 0.766976 -0.598702
O6    O     O_2   0.771783 0.826940 0.577780 -0.624014
O7    O     O_2   0.368275 0.747133 0.173491 -0.608457
O8    O     O_R   0.491330 0.609320 0.646410 -0.611716
O9    O     O_R   0.690660 0.406170 0.506210 -0.597864
O10   O     O_R   0.675810 0.593790 0.493790 -0.613015
O11   O     O_R   0.508670 0.390680 0.353590 -0.640047
O12   O     O_R   0.493830 0.578310 0.341170 -0.618413
O13   O     O_R   0.324190 0.406210 0.506210 -0.657663
O14   O     O_R   0.309340 0.593830 0.493790 -0.585381
O15   O     O_2   0.755771 0.672246 0.311983 -0.609635
Zn1   Zn    Zn3+2 0.509910 0.374720 0.508290 0.943067
Zn2   Zn    Zn3+2 0.490090 0.625280 0.491710 0.996224

loop_
_geom_bond_atom_site_label_1
_geom_bond_atom_site_label_2
_ccdc_geom_bond_type
C35   H13   S    
C13   C32   S    
O14   Zn2   S    
C11   N2    A    
C19   C31   S    
C22   H17   S    
C31   O5    D    
C12   C23   A    
C16   O12   A    
C36   C37   A    
O10   Zn2   S    
C10   C15   A    
C5    C6    A    
C33   H9    S    
C33   C36   S    
C20   O14   A    
C18   C19   A    
C3    C29   S    
C17   N1    A    
C2    C39   A    
C13   N2    A    
C8    C9    A    
O11   Zn1   S    
C18   C30   S    
C32   O6    D    
C40   H2    S    
C3    C39   A    
C31   H7    S    
C13   C14   A    
C32   H8    S    
C8    C38   A    
C1    O1    A    
C17   H12   S    
C27   C34   S    
C16   O11   A    
N2    Zn2   S    
C6    C40   A    
C24   C25   A    
C4    C23   S    
C3    C5    A    
C33   H10   S    
C12   C21   A    
C28   H4    S    
C20   O13   A    
C29   H5    S    
C5    C9    A    
C2    C40   A    
N1    Zn1   S    
C23   C34   A    
C18   N1    A    
C30   O4    D    
C29   O3    D    
C28   O2    D    
O12   Zn2   S    
C22   C24   A    
C4    O10   A    
C11   H15   S    
C15   C17   A    
O8    Zn2   S    
C7    C35   S    
C14   C19   A    
C30   H6    S    
C27   O15   D    
C21   H16   S    
C26   C37   A    
C6    C7    A    
C33   H11   S    
C9    H1    S    
C1    O8    A    
C25   C26   A    
C8    H20   S    
C20   C37   S    
C7    C38   A    
C34   C36   A    
O9    Zn1   S    
C10   H14   S    
O13   Zn1   S    
C10   C11   A    
C1    C39   S    
C27   H3    S    
C35   O7    D    
C24   H18   S    
C12   C26   A    
C14   C15   A    
C2    C28   S    
C25   H19   S    
C21   C22   A    
C4    O9    A    
C16   C38   S    
O1    Zn1   S    
