data_mof_unit_57360.cif
_audit_creation_date              2012-12-10T19:47:43-0500
_audit_creation_method            fapswitch 2.2
_symmetry_space_group_name_H-M    P1
_symmetry_Int_Tables_number       1
_space_group_crystal_system       triclinic
_cell_length_a                    18.284976
_cell_length_b                    18.276574
_cell_length_c                    18.339149
_cell_angle_alpha                 119.952259
_cell_angle_beta                  90.332134
_cell_angle_gamma                 119.588357
_cell_volume                      4351.05539344

loop_
_atom_site_label
_atom_site_type_symbol
_atom_type_description
_atom_site_fract_x
_atom_site_fract_y
_atom_site_fract_z
_atom_type_partial_charge
C1    C     C_R   0.639551 0.780195 0.640877 0.795972
C2    C     C_R   0.221486 0.945738 0.155429 -0.236306
C3    C     C_R   0.195725 0.890825 0.194455 -0.080641
C4    C     C_R   0.360213 0.220324 0.360058 0.800736
C5    C     C_R   0.226110 0.948026 0.286952 0.136579
C6    C     C_3   0.224929 0.940606 0.364261 -0.487034
C7    C     C_3   0.284201 0.059338 0.423636 -0.483117
C8    C     C_R   0.783131 0.544970 0.334936 0.040406
C9    C     C_R   0.694078 0.505281 0.303240 -0.103961
C10   C     C_R   0.659198 0.469804 0.214070 0.031272
C11   C     C_R   0.714072 0.470163 0.159401 0.037979
C12   C     C_3   0.641162 0.418720 0.718026 -0.398454
C13   C     C_R   0.803440 0.505949 0.194248 -0.133592
C14   C     C_R   0.835098 0.545235 0.283166 0.067025
C15   C     C_3   0.914046 0.589804 0.355371 -0.090360
C16   C     C_R   0.359361 0.499570 0.639255 0.807708
C17   C     C_3   0.853820 0.588376 0.414147 -0.483193
C18   C     C_R   0.786729 0.945933 0.727334 0.090356
C19   C     C_R   0.694003 0.892114 0.703542 -0.157339
C20   C     C_R   0.657225 0.949188 0.746019 0.078618
C21   C     C_R   0.713117 0.056689 0.799766 -0.211004
C22   C     C_R   0.804715 0.108791 0.812249 -0.118286
C23   C     C_3   0.698801 0.501986 0.701107 0.107586
C24   C     C_R   0.841220 0.052051 0.781230 0.094639
C25   C     C_3   0.906195 0.056977 0.731684 -0.504764
C26   C     C_3   0.845285 0.939444 0.670827 -0.104922
C27   C     C_R   0.269442 0.558987 0.341789 0.079134
C28   C     C_R   0.639630 0.501147 0.359977 0.831757
C29   C     C_R   0.298214 0.494550 0.303871 -0.072472
C30   C     C_R   0.261646 0.418585 0.211208 -0.224250
C31   C     C_R   0.207003 0.417542 0.157245 -0.237079
C32   C     C_R   0.188221 0.491927 0.195965 -0.058776
C33   C     C_R   0.213842 0.556227 0.288704 0.087712
C34   C     C_3   0.801047 0.500462 0.801405 0.100040
C35   C     C_3   0.255009 0.669174 0.351055 -0.493984
C36   C     C_3   0.317563 0.673036 0.410653 -0.109091
C37   C     C_R   0.271850 0.560854 0.719742 0.045046
C38   C     C_R   0.295662 0.491666 0.686481 -0.110002
C39   C     C_R   0.252622 0.409534 0.695129 -0.254819
C40   C     C_R   0.359225 0.500232 0.359252 0.796098
C41   C     C_R   0.196515 0.404958 0.747134 0.065580
C42   C     C_R   0.186070 0.487692 0.794035 -0.121934
C43   C     C_R   0.221952 0.561224 0.775304 0.053644
C44   C     C_3   0.270097 0.676161 0.830276 -0.118175
C45   C     C_3   0.820367 0.610777 0.850741 -0.090863
C46   C     C_3   0.324583 0.675385 0.766552 -0.124275
C47   C     C_R   0.860010 0.501375 0.139637 0.831928
C48   C     C_R   0.138356 0.497573 0.858159 0.798296
C49   C     C_R   0.139927 0.779568 0.139718 0.798556
C50   C     C_R   0.860193 0.219992 0.860566 0.811373
C51   C     C_R   0.140123 0.499106 0.140707 0.805088
C52   C     C_R   0.641130 0.499669 0.640958 0.757988
C53   C     C_R   0.858732 0.500128 0.859000 0.747323
C54   C     C_3   0.761805 0.476814 0.654262 -0.467466
C55   C     C_3   0.822103 0.474551 0.712155 -0.079548
C56   C     C_3   0.700365 0.419225 0.777936 -0.394120
C57   C     C_3   0.756708 0.610772 0.792694 -0.058691
C58   C     C_3   0.699624 0.647851 0.840852 -0.366077
C59   C     C_3   0.753903 0.765864 0.906296 -0.339851
C60   C     C_3   0.696853 0.799829 0.953214 -0.898441
C61   C     C_3   0.947495 0.521188 0.336198 -0.364316
C62   C     C_3   0.874203 0.404795 0.283226 -0.317277
C63   C     C_3   0.914602 0.345084 0.269997 -0.908929
C64   C     C_3   0.813874 0.371207 0.658582 -0.390980
C65   C     C_3   0.859933 0.363951 0.587816 -0.357856
C66   C     C_3   0.852238 0.262767 0.536662 -0.889367
C67   C     C_R   0.277973 0.051902 0.338882 0.134929
C68   C     C_3   0.888050 0.884740 0.671560 -0.343642
C69   C     C_3   0.907219 0.894569 0.759033 -0.294752
C70   C     C_3   0.947594 0.836580 0.752477 -0.940502
C71   C     C_3   0.416618 0.738295 0.420845 -0.363709
C72   C     C_3   0.457055 0.853808 0.484052 -0.352006
C73   C     C_3   0.557111 0.918611 0.501269 -0.897958
C74   C     C_3   0.155170 0.314233 0.753763 -0.374262
C75   C     C_3   0.216326 0.339698 0.832819 -0.289199
C76   C     C_3   0.168092 0.259541 0.852874 -0.886200
C77   C     C_3   0.325769 0.737376 0.929129 -0.391890
C78   C     C_R   0.304709 0.109023 0.303526 -0.081883
C79   C     C_3   0.382524 0.703918 0.947029 -0.325567
C80   C     C_3   0.435751 0.772181 0.046253 -0.911422
C81   C     C_3   0.305260 0.704425 0.706807 -0.394517
C82   C     C_3   0.346181 0.820140 0.760550 -0.350506
C83   C     C_3   0.335285 0.850632 0.699613 -0.895112
C84   C     C_R   0.275530 0.053979 0.209538 -0.229672
H1    H     H_    0.805050 0.535698 0.641915 0.160744
H2    H     H_    0.968925 0.669469 0.378894 0.148437
H3    H     H_    0.836290 0.533490 0.432187 0.193541
H4    H     H_    0.875114 0.666621 0.470631 0.185274
H5    H     H_    0.683691 0.099073 0.828536 0.185085
H6    H     H_    0.908933 0.093429 0.697131 0.178468
H7    H     H_    0.972169 0.089327 0.773858 0.204781
H8    H     H_    0.812351 0.909824 0.601906 0.141126
H9    H     H_    0.278313 0.363205 0.179916 0.176403
H10   H     H_    0.183326 0.362053 0.085524 0.174755
H11   H     H_    0.287859 0.710920 0.320416 0.199657
H12   H     H_    0.681758 0.433989 0.838879 0.174913
H13   H     H_    0.207659 0.684799 0.381650 0.184178
H14   H     H_    0.305737 0.690539 0.475059 0.162323
H15   H     H_    0.265070 0.350365 0.663959 0.171477
H16   H     H_    0.223911 0.697202 0.823998 0.154219
H17   H     H_    0.892796 0.536922 0.730242 0.150282
H18   H     H_    0.397062 0.714427 0.796510 0.154106
H19   H     H_    0.799824 0.666184 0.776726 0.140492
H20   H     H_    0.889523 0.664108 0.856087 0.131012
H21   H     H_    0.593309 0.431993 0.749734 0.176874
H22   H     H_    0.600907 0.341066 0.653338 0.179087
H23   H     H_    0.294091 0.093933 0.177696 0.176151
H24   H     H_    0.685850 0.340939 0.743181 0.177305
H25   H     H_    0.638960 0.773781 0.903560 0.253794
H26   H     H_    0.672241 0.767303 0.992280 0.262612
H27   H     H_    0.737530 0.885214 0.999582 0.251891
H28   H     H_    0.812554 0.795683 0.957562 0.248199
H29   H     H_    0.778724 0.801007 0.869151 0.207212
H30   H     H_    0.643088 0.624106 0.791456 0.180696
H31   H     H_    0.669286 0.611220 0.875801 0.211460
H32   H     H_    0.876633 0.675444 0.983596 0.177410
H33   H     H_    0.764385 0.597706 0.946394 0.186617
H34   H     H_    0.200112 0.905685 0.083586 0.173190
H35   H     H_    0.570961 0.481885 0.161474 0.168671
H36   H     H_    0.533805 0.359385 0.123569 0.182001
H37   H     H_    0.623975 0.360100 0.033703 0.182297
H38   H     H_    0.660976 0.482681 0.072025 0.164760
H39   H     H_    0.961893 0.357911 0.232778 0.262315
H40   H     H_    0.950446 0.370007 0.335624 0.261098
H41   H     H_    0.860692 0.261413 0.231079 0.251204
H42   H     H_    0.826146 0.388900 0.318998 0.217153
H43   H     H_    0.837167 0.376101 0.216393 0.216597
H44   H     H_    0.994079 0.534330 0.298366 0.219159
H45   H     H_    0.157254 0.906629 0.369987 0.204609
H46   H     H_    0.986816 0.548003 0.401173 0.192843
H47   H     H_    0.528401 0.863475 0.667733 0.218621
H48   H     H_    0.542757 0.850601 0.752301 0.200036
H49   H     H_    0.884724 0.256960 0.583052 0.256557
H50   H     H_    0.780969 0.196289 0.501927 0.259925
H51   H     H_    0.885903 0.259625 0.486020 0.250431
H52   H     H_    0.829267 0.368936 0.539474 0.221449
H53   H     H_    0.931839 0.428919 0.620734 0.218423
H54   H     H_    0.845605 0.364042 0.704212 0.192336
H55   H     H_    0.742433 0.304956 0.625452 0.207209
H56   H     H_    0.259742 0.906061 0.367117 0.201609
H57   H     H_    0.900923 0.753378 0.697466 0.265613
H58   H     H_    0.011887 0.868777 0.740068 0.263116
H59   H     H_    0.960101 0.844324 0.816092 0.245548
H60   H     H_    0.954215 0.976955 0.815575 0.215061
H61   H     H_    0.844192 0.861505 0.773236 0.222841
H62   H     H_    0.842342 0.801620 0.615993 0.222742
H63   H     H_    0.951068 0.915626 0.656669 0.185319
H64   H     H_    0.592191 0.901654 0.533628 0.261026
H65   H     H_    0.569927 0.902269 0.437537 0.259011
H66   H     H_    0.584275 0.001700 0.546411 0.251285
H67   H     H_    0.250737 0.093895 0.463642 0.204773
H68   H     H_    0.423903 0.874677 0.454590 0.224939
H69   H     H_    0.446433 0.872396 0.548983 0.217233
H70   H     H_    0.454442 0.720867 0.449229 0.218726
H71   H     H_    0.423969 0.718846 0.354586 0.201558
H72   H     H_    0.111954 0.260799 0.874729 0.283642
H73   H     H_    0.142157 0.181372 0.792716 0.247762
H74   H     H_    0.215157 0.277644 0.907547 0.239398
H75   H     H_    0.275661 0.342084 0.816701 0.199084
H76   H     H_    0.240716 0.416679 0.893936 0.234810
H77   H     H_    0.086820 0.288405 0.756656 0.219394
H78   H     H_    0.353214 0.093308 0.460765 0.202966
H79   H     H_    0.145237 0.246234 0.691537 0.169699
H80   H     H_    0.481877 0.853714 0.069491 0.264205
H81   H     H_    0.389983 0.766717 0.085846 0.258320
H82   H     H_    0.475791 0.746538 0.057595 0.249555
H83   H     H_    0.339337 0.623282 0.926297 0.219552
H84   H     H_    0.430253 0.709163 0.909714 0.212076
H85   H     H_    0.370499 0.819892 0.954563 0.196689
H86   H     H_    0.279465 0.731699 0.968150 0.219044
H87   H     H_    0.369489 0.833162 0.650085 0.252189
H88   H     H_    0.263429 0.808186 0.663812 0.256097
H89   H     H_    0.720595 0.401786 0.587504 0.172737
H90   H     H_    0.365383 0.934602 0.740146 0.252839
H91   H     H_    0.313108 0.840473 0.810620 0.217303
H92   H     H_    0.418365 0.865045 0.796866 0.229448
H93   H     H_    0.334561 0.683999 0.653041 0.238263
H94   H     H_    0.232033 0.660045 0.674602 0.198025
N1    N     N_3   0.818923 0.652786 0.942857 -0.465279
N2    N     N_3   0.569434 0.435636 0.179912 -0.422955
N3    N     N_3   0.679926 0.436452 0.069899 -0.425089
N4    N     N_3   0.564061 0.902059 0.734372 -0.463318
O1    O     O_3   0.500000 0.500000 0.500000 -0.470871
O2    O     O_R   0.945140 0.268320 0.884430 -0.649331
O3    O     O_R   0.116800 0.560590 0.177500 -0.650978
O4    O     O_R   0.676800 0.731580 0.616070 -0.644782
O5    O     O_R   0.822390 0.439230 0.883130 -0.644617
O6    O     O_R   0.116800 0.439160 0.056060 -0.652061
O7    O     O_R   0.943840 0.560660 0.883130 -0.657401
O8    O     O_R   0.115490 0.731510 0.054770 -0.655733
O9    O     O_R   0.823160 0.268340 0.883890 -0.650283
O10   O     O_R   0.945140 0.560620 0.176740 -0.660066
O11   O     O_R   0.116030 0.439190 0.884430 -0.649926
O12   O     O_R   0.384470 0.439280 0.616070 -0.648422
O13   O     O_R   0.384470 0.268410 0.445190 -0.643784
O14   O     O_R   0.383920 0.560720 0.615530 -0.658113
O15   O     O_R   0.554810 0.439290 0.323210 -0.618387
O16   O     O_R   0.383160 0.560750 0.443890 -0.661651
O17   O     O_R   0.677560 0.560680 0.616830 -0.652114
O18   O     O_R   0.383160 0.439320 0.322450 -0.643095
O19   O     O_R   0.556120 0.439250 0.616830 -0.652071
O20   O     O_R   0.676800 0.560710 0.445190 -0.657864
O21   O     O_R   0.554810 0.731590 0.615530 -0.664862
O22   O     O_R   0.383920 0.268420 0.323210 -0.649242
O23   O     O_3   0.999960 0.499910 0.999960 -0.472198
O24   O     O_R   0.823160 0.439210 0.054770 -0.616522
O25   O     O_R   0.115490 0.560640 0.883890 -0.646955
O26   O     O_R   0.116030 0.731490 0.176740 -0.643893
Zn1   Zn    Zn3+2 0.457010 0.413240 0.543760 0.945481
Zn2   Zn    Zn3+2 0.456230 0.586760 0.542990 0.926773
Zn3   Zn    Zn3+2 0.456230 0.413270 0.369490 0.966168
Zn4   Zn    Zn3+2 0.630520 0.586730 0.543760 0.934143
Zn5   Zn    Zn3+2 0.042950 0.586670 0.956190 0.936888
Zn6   Zn    Zn3+2 0.043720 0.586650 0.130470 0.942340
Zn7   Zn    Zn3+2 0.043720 0.413150 0.956960 0.938027
Zn8   Zn    Zn3+2 0.869430 0.413180 0.956190 0.958127

loop_
_geom_bond_atom_site_label_1
_geom_bond_atom_site_label_2
_ccdc_geom_bond_type
C75   H76   S    
C4    O13   A    
C34   C56   S    
O4    Zn4   S    
C48   O11   A    
C27   C29   A    
C17   H4    S    
C69   H61   S    
C41   C42   A    
C54   C55   S    
C2    C84   A    
C35   C36   S    
C11   N3    S    
C12   H21   S    
C5    C67   A    
C44   H16   S    
C81   C82   S    
C3    C49   S    
C39   C41   A    
C64   H54   S    
C1    O4    A    
C27   C33   A    
C69   H60   S    
C46   H18   S    
C12   C23   S    
C45   C57   S    
C25   H6    S    
C37   C38   A    
C18   C24   A    
C54   H89   S    
H37   N3    S    
C44   C77   S    
C81   H94   S    
O13   Zn1   S    
C30   H9    S    
C74   H79   S    
C73   H66   S    
H47   N4    S    
C4    O22   A    
C26   H8    S    
C46   C81   S    
O25   Zn5   S    
C84   H23   S    
O3    Zn6   S    
C48   O25   A    
C23   C57   S    
C18   C19   A    
C80   H82   S    
C47   O10   A    
C56   H24   S    
C51   O6    A    
H48   N4    S    
C41   C74   S    
C66   H50   S    
C18   C26   S    
H38   N3    S    
C80   H80   S    
C19   C20   A    
O23   Zn8   S    
C77   H86   S    
C72   H68   S    
C83   H87   S    
C8    C14   A    
O21   Zn2   S    
C60   H25   S    
C79   H84   S    
C29   C30   A    
C9    C10   A    
C36   C71   S    
C63   H40   S    
C22   C50   S    
O14   Zn2   S    
H32   N1    S    
O23   Zn5   S    
C59   C60   S    
C13   C14   A    
C55   C64   S    
C6    H56   S    
C61   C62   S    
C67   C78   A    
C6    H45   S    
O19   Zn1   S    
O6    Zn7   S    
C44   C46   S    
C21   C22   A    
O11   Zn7   S    
C57   C58   S    
C77   C79   S    
C2    H34   S    
C38   C39   A    
C57   H19   S    
C7    H78   S    
C76   H73   S    
C1    C19   S    
O18   Zn3   S    
C25   H7    S    
C74   C75   S    
C73   H64   S    
C60   H26   S    
C24   C25   S    
O20   Zn4   S    
C13   C47   S    
C8    C9    A    
O2    Zn7   S    
C21   H5    S    
C49   O8    A    
C40   O18   A    
C25   C26   S    
C71   H70   S    
C76   H72   S    
C70   H59   S    
C66   H51   S    
C32   C33   A    
C26   C68   S    
O1    Zn2   S    
O17   Zn4   S    
C37   C43   A    
C75   C76   S    
C34   C45   S    
C32   C51   S    
C4    C78   S    
C62   C63   S    
O15   Zn3   S    
C45   H20   S    
O9    Zn8   S    
C74   H77   S    
C66   H49   S    
C39   H15   S    
C31   C32   A    
C49   O26   A    
C30   C31   A    
C59   H29   S    
C71   H71   S    
C83   H88   S    
C59   H28   S    
C15   C61   S    
O10   Zn6   S    
C52   O17   A    
C42   C48   S    
C20   C21   A    
C50   O9    A    
C12   C56   S    
C68   H63   S    
O7    Zn5   S    
C61   H46   S    
C15   H2    S    
C7    H67   S    
C62   H42   S    
C81   H93   S    
C82   H92   S    
O23   Zn6   S    
C82   C83   S    
C43   C44   S    
C58   H31   S    
C52   O19   A    
C22   C24   A    
C51   O3    A    
C63   H41   S    
C42   C43   A    
C1    O21   A    
C79   H83   S    
C80   H81   S    
C68   H62   S    
C23   C54   S    
C20   N4    S    
C75   H75   S    
C15   C17   S    
O5    Zn8   S    
C70   H57   S    
O26   Zn6   S    
C72   H69   S    
C47   O24   A    
C73   H65   S    
C17   H3    S    
C68   C69   S    
C70   H58   S    
C50   O2    A    
C28   O15   A    
O24   Zn8   S    
C72   C73   S    
C3    C5    A    
C54   H1    S    
C63   H39   S    
C6    C7    S    
C35   H11   S    
C27   C36   S    
O1    Zn1   S    
C31   H10   S    
C55   H17   S    
C8    C17   S    
C28   O20   A    
C10   N2    S    
C2    C3    A    
O1    Zn4   S    
C65   H53   S    
C71   C72   S    
C60   H27   S    
C64   C65   S    
O12   Zn1   S    
C12   H22   S    
C11   C13   A    
C23   C52   S    
C5    C6    S    
C40   O16   A    
C53   O7    A    
C76   H74   S    
O22   Zn3   S    
C16   O14   A    
C33   C35   S    
C61   H44   S    
C56   H12   S    
C53   O5    A    
C69   C70   S    
O16   Zn2   S    
O8    Zn5   S    
C58   C59   S    
C29   C40   S    
C65   H52   S    
C16   O12   A    
C10   C11   A    
C45   N1    S    
C7    C67   S    
C79   C80   S    
C78   C84   A    
C62   H43   S    
C34   C55   S    
C82   H91   S    
O23   Zn7   S    
C34   C53   S    
C77   H85   S    
C65   C66   S    
H35   N2    S    
C83   H90   S    
C58   H30   S    
C14   C15   S    
C36   H14   S    
H36   N2    S    
C37   C46   S    
C35   H13   S    
O1    Zn3   S    
H33   N1    S    
C9    C28   S    
C16   C38   S    
C64   H55   S    
