data_mof_unit_22909.cif
_audit_creation_date              2012-12-10T21:34:04-0500
_audit_creation_method            fapswitch 2.2
_symmetry_space_group_name_H-M    P1
_symmetry_Int_Tables_number       1
_space_group_crystal_system       triclinic
_cell_length_a                    13.535011
_cell_length_b                    16.141491
_cell_length_c                    16.700437
_cell_angle_alpha                 88.100589
_cell_angle_beta                  90.606117
_cell_angle_gamma                 96.159918
_cell_volume                      3625.48241135

loop_
_atom_site_label
_atom_site_type_symbol
_atom_type_description
_atom_site_fract_x
_atom_site_fract_y
_atom_site_fract_z
_atom_type_partial_charge
C1    C     C_R   0.503794 0.511068 0.347184 0.904662
C2    C     C_R   0.506706 0.490206 0.652988 0.898713
C3    C     C_R   0.478681 0.572783 0.131691 -0.271985
C4    C     C_R   0.550670 0.408351 0.860880 -0.267406
C5    C     C_R   0.473789 0.575002 0.214479 -0.277948
C6    C     C_R   0.523102 0.411884 0.780838 -0.288645
C7    C     C_R   0.432306 0.229847 0.514327 0.464218
C8    C     C_R   0.525604 0.767757 0.448378 0.455161
C9    C     C_R   0.433648 0.143094 0.506654 0.263425
C10   C     C_R   0.514132 0.853550 0.447862 0.297712
C11   C     C_R   0.522427 0.111053 0.483528 0.076797
C12   C     C_R   0.476791 0.888695 0.516725 0.068402
C13   C     C_R   0.603919 0.168768 0.459158 -0.209160
C14   C     C_R   0.440292 0.833638 0.580326 -0.211869
C15   C     C_R   0.595215 0.255039 0.462427 -0.156767
C16   C     C_R   0.446648 0.747225 0.574360 -0.155399
C17   C     C_R   0.685424 0.515986 0.501028 0.859642
C18   C     C_R   0.314557 0.484040 0.499422 0.893915
C19   C     C_1   0.210457 0.470197 0.499444 -0.189568
C20   C     C_1   0.789390 0.529637 0.505220 -0.214000
C21   C     C_2   0.016678 0.461826 0.498832 0.388214
C22   C     C_2   0.982115 0.534608 0.513060 0.405807
C23   C     C_1   0.877454 0.536556 0.509311 -0.062649
C24   C     C_1   0.122229 0.462362 0.499390 -0.085124
C25   C     C_R   0.520108 0.517237 0.261606 -0.236611
C26   C     C_R   0.535102 0.487955 0.737388 -0.203901
C27   C     C_R   0.577572 0.460529 0.225975 0.358140
C28   C     C_R   0.581744 0.560382 0.773748 0.347435
C29   C     C_R   0.574010 0.452903 0.143376 0.417090
C30   C     C_R   0.602860 0.557497 0.855809 0.374588
C31   C     C_R   0.528061 0.512282 0.095562 0.128618
C32   C     C_R   0.588025 0.481036 0.898462 0.188015
H1    H     H_    0.442171 0.617353 0.095233 0.177640
H2    H     H_    0.537970 0.349927 0.894881 0.163635
H3    H     H_    0.431335 0.619815 0.241550 0.196544
H4    H     H_    0.491153 0.355384 0.753275 0.182908
H5    H     H_    0.656243 0.299643 0.443238 0.217041
H6    H     H_    0.417774 0.704151 0.621589 0.224602
N1    N     N_2   0.526784 0.512110 0.011304 -0.175827
N2    N     N_2   0.596400 0.479235 0.981829 -0.096198
N3    N     N_R   0.511670 0.283920 0.490320 -0.144507
N4    N     N_R   0.488330 0.716080 0.509680 -0.154405
N5    N     N_2   0.529636 0.023091 0.478773 -0.046676
N6    N     N_2   0.471437 0.976797 0.522717 -0.040180
O1    O     O_R   0.495820 0.577170 0.387320 -0.568390
O2    O     O_R   0.504180 0.422830 0.612680 -0.620245
O3    O     O_R   0.503320 0.438390 0.381110 -0.576951
O4    O     O_R   0.496680 0.561610 0.618890 -0.584191
O5    O     O_R   0.636060 0.579370 0.503570 -0.635406
O6    O     O_R   0.363940 0.420630 0.496430 -0.558685
O7    O     O_R   0.643560 0.440600 0.497360 -0.609981
O8    O     O_R   0.356440 0.559400 0.502640 -0.608364
Zn1   Zn    Zn3+2 0.495000 0.592660 0.504150 0.965969
Zn2   Zn    Zn3+2 0.505000 0.407340 0.495850 0.983548
O9    O     O_3   0.044343 0.600638 0.543513 -0.656188
C33   C     C_3   0.040814 0.673800 0.495042 0.080192
H7    H     H_    0.071997 0.727163 0.531140 0.184953
H8    H     H_    0.963684 0.686096 0.478692 0.120933
C34   C     C_3   0.104853 0.670991 0.420029 -0.365038
H9    H     H_    0.179045 0.652560 0.437700 0.249680
H10   H     H_    0.068855 0.623795 0.378986 0.208838
C35   C     C_3   0.119038 0.755528 0.375724 -0.962158
H11   H     H_    0.045979 0.776300 0.358377 0.272669
H12   H     H_    0.163066 0.750619 0.320680 0.270193
H13   H     H_    0.159918 0.802556 0.414362 0.269143
O10   O     O_3   0.951079 0.393955 0.474817 -0.676740
C36   C     C_3   0.990505 0.316512 0.484600 0.119002
H14   H     H_    0.927662 0.268425 0.499021 0.192175
H15   H     H_    0.043225 0.314405 0.536159 0.119620
C37   C     C_3   0.037414 0.293434 0.406451 -0.331416
H16   H     H_    0.979680 0.287986 0.358515 0.246979
H17   H     H_    0.096657 0.342851 0.387342 0.219383
C38   C     C_3   0.082379 0.211086 0.416539 -0.942697
H18   H     H_    0.140059 0.215331 0.464487 0.281817
H19   H     H_    0.117460 0.196960 0.359503 0.258450
H20   H     H_    0.023845 0.159642 0.432179 0.272473
O11   O     O_3   0.603304 0.635048 0.730960 -0.633501
C39   C     C_3   0.692890 0.634006 0.688021 0.143548
H21   H     H_    0.685590 0.670957 0.631368 0.177590
H22   H     H_    0.707989 0.570362 0.670683 0.102881
C40   C     C_3   0.781215 0.675193 0.735436 -0.371843
H23   H     H_    0.765661 0.738497 0.752429 0.241347
H24   H     H_    0.792556 0.637519 0.790961 0.250156
C41   C     C_3   0.876345 0.682240 0.686223 -0.923506
H25   H     H_    0.894809 0.619282 0.670928 0.285679
H26   H     H_    0.938817 0.713264 0.721580 0.276004
H27   H     H_    0.867489 0.719747 0.630116 0.253512
O12   O     O_3   0.628925 0.405350 0.271268 -0.627661
C42   C     C_3   0.718131 0.447048 0.301750 0.137294
H28   H     H_    0.742837 0.408321 0.352796 0.195259
H29   H     H_    0.707670 0.508726 0.326241 0.086815
C43   C     C_3   0.800248 0.456485 0.238518 -0.324976
H30   H     H_    0.806794 0.395047 0.212044 0.256807
H31   H     H_    0.781025 0.500847 0.189978 0.220373
C44   C     C_3   0.900185 0.489068 0.275093 -0.971763
H32   H     H_    0.894848 0.549321 0.304088 0.265797
H33   H     H_    0.957188 0.498780 0.227420 0.268309
H34   H     H_    0.924147 0.443288 0.320339 0.294299
O13   O     O_3   0.642800 0.627893 0.894890 -0.642699
C45   C     C_3   0.568721 0.682187 0.904706 0.141648
H35   H     H_    0.494597 0.647794 0.918855 0.133297
H36   H     H_    0.561928 0.721110 0.849151 0.198062
C46   C     C_3   0.599332 0.739476 0.973785 -0.348131
H37   H     H_    0.611100 0.701099 0.028866 0.239254
H38   H     H_    0.670491 0.777587 0.958925 0.229864
C47   C     C_3   0.520271 0.797337 0.990163 -0.953496
H39   H     H_    0.508199 0.837253 0.936232 0.280087
H40   H     H_    0.545038 0.838068 0.040449 0.268809
H41   H     H_    0.449058 0.760465 0.007010 0.261951
O14   O     O_3   0.619306 0.389061 0.110458 -0.622508
C48   C     C_3   0.546875 0.321967 0.092705 0.092408
H42   H     H_    0.575570 0.288735 0.042113 0.166029
H43   H     H_    0.474478 0.342611 0.071932 0.117964
C49   C     C_3   0.530886 0.260662 0.164755 -0.303697
H44   H     H_    0.603931 0.243695 0.187155 0.258237
H45   H     H_    0.493996 0.290440 0.213658 0.236396
C50   C     C_3   0.465880 0.181482 0.142530 -0.993495
H46   H     H_    0.392008 0.196922 0.120742 0.267688
H47   H     H_    0.455039 0.138968 0.196119 0.266110
H48   H     H_    0.501965 0.148799 0.095159 0.271097
O15   O     O_3   0.565431 0.734322 0.382632 -0.620026
C51   C     C_3   0.669902 0.751088 0.385095 0.110092
H49   H     H_    0.700607 0.720930 0.439435 0.141918
H50   H     H_    0.693537 0.819340 0.385434 0.169040
C52   C     C_3   0.712449 0.716324 0.310394 -0.305699
H51   H     H_    0.683874 0.649644 0.305601 0.224015
H52   H     H_    0.687576 0.750654 0.256329 0.223999
C53   C     C_3   0.825699 0.724147 0.313017 -1.007207
H53   H     H_    0.851556 0.686832 0.364601 0.258925
H54   H     H_    0.856208 0.790416 0.318461 0.270412
H55   H     H_    0.854033 0.700270 0.257036 0.278188
O16   O     O_3   0.347579 0.261153 0.540167 -0.616764
C54   C     C_3   0.338633 0.246893 0.623843 0.122689
H56   H     H_    0.410514 0.264000 0.655521 0.118461
H57   H     H_    0.313274 0.180145 0.637555 0.184121
C55   C     C_3   0.261567 0.300029 0.655403 -0.325093
H58   H     H_    0.287947 0.367093 0.645306 0.228438
H59   H     H_    0.190386 0.286141 0.622301 0.219027
C56   C     C_3   0.243422 0.283015 0.744744 -0.974615
H60   H     H_    0.214654 0.216670 0.756248 0.268857
H61   H     H_    0.187610 0.322945 0.765639 0.274150
H62   H     H_    0.313322 0.297459 0.779317 0.264426
O17   O     O_3   0.540830 0.901868 0.379882 -0.606075
C57   C     C_3   0.455220 0.912966 0.332800 0.115965
H63   H     H_    0.466210 0.976671 0.304805 0.162078
H64   H     H_    0.385207 0.909692 0.368138 0.107854
C58   C     C_3   0.443151 0.849425 0.266294 -0.330734
H65   H     H_    0.514322 0.850274 0.233494 0.240951
H66   H     H_    0.423683 0.785947 0.293037 0.238117
C59   C     C_3   0.361272 0.868549 0.207199 -0.989525
H67   H     H_    0.289082 0.866742 0.238585 0.265831
H68   H     H_    0.354126 0.821184 0.160158 0.272791
H69   H     H_    0.379533 0.931082 0.177995 0.272411
O18   O     O_3   0.347540 0.090800 0.521261 -0.600787
C60   C     C_3   0.298131 0.075160 0.447501 0.120166
H70   H     H_    0.347437 0.049035 0.404044 0.118081
H71   H     H_    0.273554 0.133786 0.420963 0.144327
C61   C     C_3   0.207187 0.012015 0.461973 -0.302082
H72   H     H_    0.230828 0.954673 0.491799 0.237161
H73   H     H_    0.154889 0.038923 0.502172 0.229100
C62   C     C_3   0.153933 0.988691 0.383588 -1.010418
H74   H     H_    0.130848 0.044987 0.351764 0.276297
H75   H     H_    0.086546 0.944962 0.396495 0.273973
H76   H     H_    0.203494 0.957814 0.344205 0.265835
C63   C     C_2   0.698717 0.141375 0.429781 0.959917
O19   O     O_2   0.762153 0.192612 0.400012 -0.663331
O20   O     O_R   0.716697 0.057679 0.436223 -0.770350
H77   H     H_    0.783773 0.047808 0.414096 0.334500
C64   C     C_2   0.394827 0.864049 0.653332 0.959087
O21   O     O_2   0.380307 0.817552 0.712371 -0.646862
O22   O     O_R   0.367311 0.945050 0.655074 -0.769203
H78   H     H_    0.336997 0.957472 0.708036 0.336609

loop_
_geom_bond_atom_site_label_1
_geom_bond_atom_site_label_2
_ccdc_geom_bond_type
C61   H73   S    
O22   H78   S    
C63   O19   D    
C21   O10   S    
C60   H71   S    
C64   O22   S    
C38   H18   S    
C44   H32   S    
C41   H27   S    
O9    C33   S    
C53   H53   S    
C17   O7    A    
C49   H44   S    
C44   H34   S    
C18   O8    A    
O11   C39   S    
C2    O2    A    
O6    Zn2   S    
C52   H51   S    
C58   H66   S    
C41   H26   S    
C50   H47   S    
N4    Zn1   S    
C56   H62   S    
C39   H22   S    
C8    O15   S    
C27   C29   A    
C47   H39   S    
C3    H1    S    
O17   C57   S    
C11   C13   A    
C17   C20   S    
C33   H7    S    
C18   C19   S    
C64   O21   D    
O14   C48   S    
C15   H5    S    
C35   H12   S    
C46   H37   S    
C61   C62   S    
C62   H75   S    
C14   C64   S    
C46   H38   S    
C58   H65   S    
C6    H4    S    
O16   C54   S    
C59   H69   S    
C52   C53   S    
C11   N5    S    
C37   H16   S    
C42   H29   S    
C35   H13   S    
C7    N3    A    
O10   C36   S    
O1    Zn1   S    
C34   H9    S    
C63   O20   S    
C21   C22   D    
C60   C61   S    
C1    C25   S    
C38   H19   S    
C57   C58   S    
C48   C49   S    
C55   C56   S    
C45   H36   S    
C40   H24   S    
C62   H74   S    
C33   H8    S    
O4    Zn1   S    
C4    H2    S    
C34   H10   S    
C37   H17   S    
C36   H14   S    
C29   O14   S    
C58   C59   S    
C41   H25   S    
C15   N3    A    
C57   H64   S    
C50   H48   S    
C17   O5    A    
O20   H77   S    
C39   H21   S    
C1    O3    A    
C2    O4    A    
C30   O13   S    
C45   C46   S    
C40   H23   S    
C36   H15   S    
N5    N6    D    
C35   H11   S    
C54   C55   S    
C54   H56   S    
C13   C63   S    
O13   C45   S    
C20   C23   T    
O2    Zn2   S    
C37   C38   S    
C43   H31   S    
C7    O16   S    
C48   H43   S    
C42   C43   S    
C3    C31   A    
C28   O11   S    
C9    C11   A    
O18   C60   S    
O15   C51   S    
C4    C32   A    
C10   C12   A    
O3    Zn2   S    
C5    C25   A    
C55   H59   S    
C12   C14   A    
C9    O18   S    
C13   C15   A    
C61   H72   S    
C38   H20   S    
C59   H68   S    
C4    C6    A    
C43   C44   S    
C51   H50   S    
C53   H55   S    
C16   N4    A    
N1    N2    D    
C62   H76   S    
O8    Zn1   S    
C18   O6    A    
C52   H52   S    
C7    C9    A    
C34   C35   S    
C48   H42   S    
C22   C23   S    
C8    N4    A    
C57   H63   S    
C3    C5    A    
C53   H54   S    
C2    C26   S    
C49   H45   S    
C56   H60   S    
C44   H33   S    
C22   O9    S    
C25   C27   A    
C26   C28   A    
C59   H67   S    
C33   C34   S    
O7    Zn2   S    
C36   C37   S    
C51   C52   S    
C28   C30   A    
C19   C24   T    
C42   H28   S    
C29   C31   A    
C50   H46   S    
C30   C32   A    
C56   H61   S    
C39   C40   S    
C1    O1    A    
C6    C26   A    
C47   H40   S    
O5    Zn1   S    
C5    H3    S    
C43   H30   S    
C31   N1    S    
C46   C47   S    
C14   C16   A    
C10   O17   S    
C32   N2    S    
C27   O12   S    
N3    Zn2   S    
C49   C50   S    
O12   C42   S    
C8    C10   A    
C21   C24   S    
C60   H70   S    
C54   H57   S    
C40   C41   S    
C12   N6    S    
C45   H35   S    
C51   H49   S    
C55   H58   S    
C16   H6    S    
C47   H41   S    
