data_mof_unit_49204.cif
_audit_creation_date              2012-10-26T19:16:12-0400
_audit_creation_method            fapswitch 2.2
_symmetry_space_group_name_H-M    P1
_symmetry_Int_Tables_number       1
_space_group_crystal_system       triclinic
_cell_length_a                    14.75292
_cell_length_b                    15.61308
_cell_length_c                    15.989887
_cell_angle_alpha                 89.990436
_cell_angle_beta                  90.024935
_cell_angle_gamma                 70.07533
_cell_volume                      3462.62226192

loop_
_atom_site_label
_atom_site_type_symbol
_atom_type_description
_atom_site_fract_x
_atom_site_fract_y
_atom_site_fract_z
_atom_type_partial_charge
C1    C     C_R   0.499974 0.499979 0.340822 0.526794
C2    C     C_R   0.500104 0.499585 0.087214 0.037534
C3    C     C_R   0.416642 0.503215 0.956293 -0.110634
C4    C     C_R   0.583676 0.495813 0.043684 -0.109283
C5    C     C_1   0.500168 0.499662 0.823324 -0.069434
C6    C     C_1   0.500033 0.499723 0.176670 -0.073453
C7    C     C_1   0.499988 0.499853 0.251721 -0.049464
C8    C     C_1   0.500132 0.499797 0.748278 -0.033745
C9    C     C_R   0.933275 0.552148 0.557963 -0.119511
C10   C     C_R   0.067673 0.445229 0.443402 -0.124297
C11   C     C_R   0.903243 0.498955 0.500482 0.006897
C12   C     C_R   0.500054 0.499944 0.659178 0.550727
C13   C     C_R   0.097457 0.499091 0.500436 -0.002220
C14   C     C_R   0.971813 0.445268 0.443326 -0.120880
C15   C     C_R   0.028969 0.552494 0.557759 -0.120726
C16   C     C_R   0.558174 0.326289 0.497769 0.544891
C17   C     C_R   0.441861 0.673722 0.497430 0.542371
C18   C     C_1   0.802907 0.499565 0.500236 0.115321
C19   C     C_1   0.197404 0.499582 0.500178 0.113245
C20   C     C_R   0.594117 0.225382 0.499198 -0.071493
C21   C     C_R   0.406420 0.774661 0.497396 -0.070750
C22   C     C_R   0.724185 0.078726 0.512829 0.316624
C23   C     C_R   0.612968 0.903246 0.570613 0.238539
C24   C     C_R   0.278227 0.923260 0.501505 0.312935
C25   C     C_R   0.692872 0.172543 0.491804 0.251121
C26   C     C_R   0.308514 0.828336 0.485596 0.247545
C27   C     C_R   0.527291 0.181849 0.511848 -0.177248
C28   C     C_R   0.473512 0.817805 0.511784 -0.179106
C29   C     C_R   0.555497 0.089692 0.533837 -0.083535
C30   C     C_R   0.445435 0.910485 0.532066 -0.084396
C31   C     C_R   0.655345 0.037452 0.536229 -0.023491
C32   C     C_R   0.345819 0.963793 0.529477 -0.019873
C33   C     C_R   0.485559 0.047700 0.549335 -0.056588
C34   C     C_R   0.387319 0.097164 0.567759 0.236465
C35   C     C_R   0.515156 0.952281 0.549827 -0.058143
C36   C     C_3   0.819086 0.814303 0.543924 -0.052112
C37   C     C_3   0.182362 0.190355 0.543758 -0.048798
C38   C     C_3   0.250732 0.761184 0.379962 0.018714
C39   C     C_3   0.169038 0.726210 0.356962 -0.240798
C40   C     C_3   0.177719 0.692708 0.266684 -0.488004
C41   C     C_3   0.749431 0.235697 0.383264 0.014241
C42   C     C_3   0.819746 0.284524 0.360577 -0.245096
C43   C     C_3   0.815309 0.307434 0.267570 -0.492179
C44   C     C_3   0.867283 0.010825 0.437535 0.038930
C45   C     C_R   0.683849 0.944800 0.560851 0.301770
C46   C     C_3   0.814019 0.973942 0.371088 -0.304660
C47   C     C_3   0.870075 0.953171 0.289106 -0.491702
C48   C     C_3   0.159804 0.986443 0.403405 0.037190
C49   C     C_3   0.098544 0.084780 0.383436 -0.265825
C50   C     C_3   0.063326 0.094297 0.293008 -0.507987
C51   C     C_3   0.607501 0.817858 0.685585 0.007637
C52   C     C_3   0.630452 0.719874 0.715906 -0.251611
C53   C     C_3   0.594024 0.716610 0.804728 -0.482499
C54   C     C_3   0.391507 0.179872 0.685064 0.006396
C55   C     C_3   0.370810 0.277066 0.716721 -0.250793
C56   C     C_R   0.316202 0.056434 0.554226 0.303578
C57   C     C_3   0.405538 0.278122 0.806484 -0.483274
C58   C     C_R   0.583698 0.495835 0.956411 -0.110200
C59   C     C_R   0.416587 0.503282 0.043566 -0.109456
C60   C     C_R   0.500180 0.499542 0.912767 0.036404
Cu1   Cu    Cu3+1 0.589210 0.500030 0.500000 0.980943
Cu2   Cu    Cu3+1 0.410790 0.499970 0.500000 0.979354
H1    H     H_    0.548636 0.777492 0.505763 0.209689
H2    H     H_    0.118598 0.403100 0.398642 0.100145
H3    H     H_    0.778822 0.805876 0.487302 0.097090
H4    H     H_    0.823979 0.759085 0.589171 0.156336
H5    H     H_    0.893597 0.806110 0.523972 0.131074
H6    H     H_    0.219819 0.201247 0.486309 0.098092
H7    H     H_    0.183813 0.239953 0.593001 0.169433
H8    H     H_    0.105403 0.205241 0.527586 0.127340
H9    H     H_    0.320400 0.705857 0.368547 0.147876
H10   H     H_    0.248004 0.818143 0.337345 0.083163
H11   H     H_    0.170971 0.669200 0.399327 0.189476
H12   H     H_    0.452255 0.221328 0.502848 0.207108
H13   H     H_    0.098634 0.781791 0.365322 0.149878
H14   H     H_    0.174274 0.749085 0.223024 0.142057
H15   H     H_    0.117369 0.667843 0.252150 0.145476
H16   H     H_    0.246883 0.635794 0.257419 0.158411
H17   H     H_    0.675436 0.281610 0.367498 0.134768
H18   H     H_    0.764682 0.173855 0.343724 0.101670
H19   H     H_    0.801599 0.348518 0.397144 0.191868
H20   H     H_    0.894148 0.240828 0.377295 0.155255
H21   H     H_    0.834598 0.244171 0.229594 0.143591
H22   H     H_    0.867266 0.342832 0.253439 0.139428
H23   H     H_    0.648547 0.492894 0.077155 0.106351
H24   H     H_    0.741726 0.353002 0.250225 0.159351
H25   H     H_    0.939324 0.958092 0.447117 0.164096
H26   H     H_    0.882871 0.071128 0.414702 0.157900
H27   H     H_    0.804754 0.910627 0.394200 0.161932
H28   H     H_    0.741517 0.024300 0.357887 0.135209
H29   H     H_    0.873019 0.017146 0.260924 0.140404
H30   H     H_    0.833168 0.921516 0.244493 0.153418
H31   H     H_    0.944498 0.905228 0.299694 0.139098
H32   H     H_    0.117064 0.942134 0.388026 0.154066
H33   H     H_    0.224605 0.968453 0.361939 0.085108
H34   H     H_    0.351789 0.506080 0.922827 0.106151
H35   H     H_    0.035685 0.107852 0.426371 0.183573
H36   H     H_    0.142855 0.128891 0.391948 0.154163
H37   H     H_    0.125421 0.070135 0.249348 0.149218
H38   H     H_    0.022832 0.166892 0.278918 0.146707
H39   H     H_    0.015228 0.054049 0.282848 0.140332
H40   H     H_    0.528077 0.853229 0.689846 0.139288
H41   H     H_    0.644671 0.853072 0.726728 0.150154
H42   H     H_    0.595923 0.683688 0.673385 0.195324
H43   H     H_    0.709738 0.684006 0.714175 0.165906
H44   H     H_    0.628236 0.751599 0.848632 0.146057
H45   H     H_    0.648577 0.492967 0.923042 0.106634
H46   H     H_    0.612533 0.644556 0.824720 0.154258
H47   H     H_    0.514447 0.749846 0.807283 0.154282
H48   H     H_    0.470434 0.142504 0.690827 0.140456
H49   H     H_    0.351723 0.145648 0.724460 0.148605
H50   H     H_    0.407918 0.312338 0.675788 0.195167
H51   H     H_    0.291967 0.314914 0.713714 0.169475
H52   H     H_    0.368623 0.244155 0.848847 0.146082
H53   H     H_    0.388916 0.349673 0.827361 0.154110
H54   H     H_    0.484719 0.242696 0.810415 0.154772
H55   H     H_    0.351680 0.506240 0.076944 0.105778
H56   H     H_    0.049493 0.594562 0.602616 0.116180
H57   H     H_    0.951298 0.403271 0.398407 0.094791
H58   H     H_    0.882582 0.593464 0.603271 0.100564
N1    N     N_1   0.276700 0.500030 0.499980 -0.191561
N2    N     N_1   0.723300 0.499970 0.500020 -0.195144
O1    O     O_R   0.575310 0.500040 0.380310 -0.499655
O2    O     O_3   0.219775 0.100541 0.575540 -0.509353
O3    O     O_3   0.240084 0.789155 0.464892 -0.533434
O4    O     O_3   0.759976 0.212538 0.469495 -0.537362
O5    O     O_3   0.821943 0.027933 0.517140 -0.488103
O6    O     O_3   0.182386 0.977048 0.489911 -0.489122
O7    O     O_3   0.640796 0.815637 0.602593 -0.596821
O8    O     O_3   0.360062 0.184072 0.601266 -0.600272
O9    O     O_R   0.424690 0.499960 0.619690 -0.488968
O10   O     O_R   0.424640 0.500000 0.380310 -0.501699
O11   O     O_R   0.575360 0.500000 0.619690 -0.488395
O12   O     O_R   0.617590 0.370200 0.500000 -0.447143
O13   O     O_R   0.382410 0.629800 0.500000 -0.451261
O14   O     O_R   0.466910 0.370160 0.500000 -0.506184
O15   O     O_R   0.533090 0.629840 0.500000 -0.506547
O16   O     O_3   0.779171 0.899611 0.584200 -0.506068

loop_
_geom_bond_atom_site_label_1
_geom_bond_atom_site_label_2
_ccdc_geom_bond_type
C21   C26   A    
C11   C18   S    
C34   C56   A    
C23   C45   A    
C12   O9    A    
C37   H7    S    
C55   H50   S    
C27   C29   A    
C43   H21   S    
C47   H30   S    
C42   H20   S    
C1    O10   A    
C16   O12   A    
C41   H18   S    
C1    O1    A    
C51   O7    S    
C36   H5    S    
Cu1   O11   S    
C44   O5    S    
C46   H27   S    
C51   H40   S    
C54   H48   S    
C50   H37   S    
C48   H32   S    
C30   C35   A    
C56   O2    S    
C48   H33   S    
C24   C26   A    
C38   C39   S    
C11   C14   A    
C36   H4    S    
C20   C25   A    
C51   H41   S    
C37   H6    S    
C29   C33   A    
C23   O7    S    
C58   H45   S    
C41   C42   S    
Cu2   O14   S    
C49   H36   S    
C46   C47   S    
C53   H44   S    
C19   N1    T    
C22   C25   A    
C17   O13   A    
C3    H34   S    
C39   H13   S    
C44   H25   S    
C16   C20   S    
C3    C60   A    
C59   H55   S    
C1    C7    S    
C37   H8    S    
C43   H22   S    
C2    C6    S    
C42   H19   S    
Cu2   O9    S    
C44   C46   S    
Cu1   O12   S    
C57   H54   S    
C54   O8    S    
C38   H10   S    
C22   C31   A    
C13   C19   S    
C51   C52   S    
Cu2   O10   S    
C57   H53   S    
C10   C14   A    
C39   C40   S    
C36   H3    S    
C4    H23   S    
C55   H51   S    
C17   C21   S    
C40   H14   S    
Cu1   N2    S    
C26   O3    S    
Cu2   O13   S    
C2    C4    A    
C25   O4    S    
C24   C32   A    
C48   O6    S    
C37   O2    S    
C8    C12   S    
C33   C34   A    
C47   H31   S    
C9    C11   A    
C6    C7    T    
C18   N2    T    
C48   C49   S    
C21   C28   A    
C52   H43   S    
C14   H57   S    
C23   C35   A    
C12   O11   A    
C55   C57   S    
C40   H16   S    
C42   C43   S    
C27   H12   S    
C38   O3    S    
C52   C53   S    
C53   H47   S    
C54   C55   S    
C52   H42   S    
C5    C60   S    
C2    C59   A    
C43   H24   S    
C47   H29   S    
C41   O4    S    
C10   H2    S    
C10   C13   A    
C41   H17   S    
C5    C8    T    
C57   H52   S    
C46   H28   S    
C20   C27   A    
C50   H38   S    
C15   H56   S    
Cu1   O1    S    
C13   C15   A    
C9    C15   A    
C29   C31   A    
C30   C32   A    
C53   H46   S    
Cu1   O15   S    
C22   O5    S    
C36   O16   S    
C28   C30   A    
C45   O16   S    
C33   C35   A    
C54   H49   S    
C39   H11   S    
Cu1   Cu2   S    
C49   H35   S    
C28   H1    S    
C34   O8    S    
C50   H39   S    
C49   C50   S    
C31   C45   A    
C4    C58   A    
C24   O6    S    
C9    H58   S    
C40   H15   S    
C17   O15   A    
C44   H26   S    
C58   C60   A    
C32   C56   A    
Cu2   N1    S    
C38   H9    S    
C3    C59   A    
C16   O14   A    
