data_mof_unit_35190.cif
_audit_creation_date              2012-12-10T17:11:01-0500
_audit_creation_method            fapswitch 2.2
_symmetry_space_group_name_H-M    P1
_symmetry_Int_Tables_number       1
_space_group_crystal_system       triclinic
_cell_length_a                    11.666574
_cell_length_b                    12.962321
_cell_length_c                    13.498685
_cell_angle_alpha                 92.033598
_cell_angle_beta                  76.378793
_cell_angle_gamma                 100.103708
_cell_volume                      1953.13180338

loop_
_atom_site_label
_atom_site_type_symbol
_atom_type_description
_atom_site_fract_x
_atom_site_fract_y
_atom_site_fract_z
_atom_type_partial_charge
C1    C     C_R   0.522821 0.700727 0.496560 0.848718
C2    C     C_R   0.470057 0.541962 0.963259 -0.000491
C3    C     C_R   0.467375 0.487783 0.870858 0.061621
C4    C     C_R   0.537750 0.510316 0.028872 0.047271
C5    C     C_R   0.621551 0.443001 0.989055 0.029194
C6    C     C_R   0.616269 0.388162 0.897622 -0.146266
C7    C     C_R   0.534691 0.407082 0.843128 -0.185420
C8    C     C_R   0.522043 0.538470 0.133619 -0.067658
C9    C     C_R   0.705158 0.472721 0.138571 -0.023939
C10   C     C_R   0.402829 0.519252 0.804338 -0.129158
C11   C     C_R   0.461428 0.185763 0.515169 -0.189360
C12   C     C_R   0.436353 0.497447 0.695449 0.841276
C13   C     C_R   0.537514 0.814244 0.488455 -0.118476
C14   C     C_R   0.652283 0.985094 0.433219 -0.181811
C15   C     C_R   0.645463 0.876534 0.435534 -0.020100
C16   C     C_R   0.438871 0.860747 0.534650 -0.226539
C17   C     C_R   0.445320 0.968873 0.530818 0.053546
C18   C     C_R   0.553007 0.031011 0.479074 0.088344
C19   C     C_R   0.560102 0.138423 0.471903 -0.237316
C20   C     C_R   0.353216 0.124947 0.569659 -0.138343
C21   C     C_R   0.346245 0.015846 0.578419 0.429069
C22   C     C_R   0.947071 0.598280 0.593657 -0.365941
C23   C     C_R   0.476978 0.299238 0.503987 0.863827
C24   C     C_R   0.826003 0.587787 0.587089 0.727043
C25   C     C_R   0.856856 0.457236 0.459939 0.034440
C26   C     C_R   0.977116 0.463937 0.466521 0.007254
C27   C     C_R   0.022632 0.535473 0.534066 0.009587
C28   C     C_R   0.143271 0.543025 0.539824 -0.032392
C29   C     C_R   0.172595 0.409071 0.416075 0.741869
C30   C     C_R   0.052850 0.401435 0.406631 -0.349061
C31   C     C_R   0.564538 0.508715 0.303729 0.854350
C32   C     C_R   0.710430 0.433675 0.040536 -0.264692
C33   C     C_R   0.601833 0.512477 0.190491 -0.157706
C34   C     C_R   0.331741 0.596546 0.833984 -0.307364
C35   C     C_R   0.336496 0.653187 0.923529 0.552128
C36   C     C_R   0.413408 0.631228 0.981844 -0.197686
Cu1   Cu    Cu3+1 0.386470 0.492430 0.492410 1.016062
Cu2   Cu    Cu3+1 0.613530 0.507570 0.507590 1.044162
H1    H     H_    0.733956 0.033838 0.392349 0.170007
H2    H     H_    0.356762 0.811781 0.574249 0.182778
H3    H     H_    0.179323 0.598206 0.591512 0.137023
H4    H     H_    0.982430 0.655649 0.643917 0.151567
H5    H     H_    0.019320 0.347877 0.352569 0.141824
H6    H     H_    0.821102 0.402692 0.407652 0.141259
H7    H     H_    0.785422 0.396149 0.004120 0.192688
H8    H     H_    0.285069 0.621905 0.781262 0.147752
H9    H     H_    0.430587 0.687718 0.039431 0.167885
H10   H     H_    0.526926 0.359924 0.776323 0.171869
H11   H     H_    0.642798 0.185630 0.430707 0.166138
N1    N     N_R   0.215880 0.481050 0.481000 -0.224494
N2    N     N_R   0.784100 0.518950 0.519000 -0.217719
O1    O     O_R   0.419710 0.645650 0.494620 -0.599874
O2    O     O_R   0.611450 0.658430 0.507430 -0.521594
O3    O     O_R   0.357340 0.490460 0.641450 -0.582587
O4    O     O_R   0.549080 0.503250 0.654260 -0.558465
O5    O     O_R   0.388550 0.341570 0.492570 -0.542466
O6    O     O_R   0.580290 0.354350 0.505380 -0.601633
O7    O     O_R   0.450920 0.496750 0.345740 -0.534213
O8    O     O_R   0.642660 0.509540 0.358550 -0.552649
C37   C     C_2   0.807198 0.465838 0.184322 0.847598
O9    O     O_2   0.851728 0.541867 0.227087 -0.548360
O10   O     O_R   0.856904 0.374294 0.173229 -0.771105
H12   H     H_    0.928037 0.380007 0.205319 0.328897
C38   C     C_2   0.249669 0.173786 0.623179 0.881305
O11   O     O_2   0.148215 0.134358 0.617529 -0.540589
O12   O     O_R   0.267746 0.262720 0.682966 -0.777752
H13   H     H_    0.190394 0.288310 0.715938 0.341500
O13   O     O_3   0.241465 0.954877 0.631461 -0.561052
C39   C     C_3   0.247692 0.947311 0.734063 -0.263850
H14   H     H_    0.163638 0.898725 0.776461 0.192581
H15   H     H_    0.255587 0.025558 0.770954 0.174166
H16   H     H_    0.323135 0.908212 0.740949 0.162209
C40   C     C_2   0.749826 0.832031 0.376643 0.877931
O14   O     O_2   0.734963 0.750646 0.329101 -0.557614
O15   O     O_R   0.865765 0.886129 0.371966 -0.749386
H17   H     H_    0.929500 0.848864 0.328760 0.347202
O16   O     O_3   0.250855 0.350722 0.355207 -0.548497
C41   C     C_3   0.199317 0.243649 0.355632 -0.288492
H18   H     H_    0.272623 0.197097 0.334475 0.195995
H19   H     H_    0.145176 0.228343 0.297487 0.172681
H20   H     H_    0.144627 0.215506 0.432123 0.181953
O17   O     O_3   0.750442 0.651671 0.642612 -0.550999
C42   C     C_3   0.752865 0.652929 0.746788 -0.298208
H21   H     H_    0.828596 0.712014 0.760664 0.166900
H22   H     H_    0.756735 0.574432 0.775636 0.159430
H23   H     H_    0.669122 0.676787 0.791627 0.199487
C43   C     C_2   0.691063 0.307062 0.858161 0.870771
O18   O     O_2   0.743520 0.308819 0.768389 -0.542967
O19   O     O_R   0.699900 0.226531 0.920779 -0.704716
H24   H     H_    0.644875 0.226232 0.991146 0.307513
C44   C     C_2   0.415121 0.583026 0.187753 0.864189
O20   O     O_2   0.314660 0.538339 0.184263 -0.565105
O21   O     O_R   0.430004 0.674769 0.244511 -0.752723
H25   H     H_    0.350927 0.696434 0.279275 0.340945
O22   O     O_3   0.281896 0.740542 0.948134 -0.578225
C45   C     C_3   0.158931 0.715566 0.948774 -0.281874
H26   H     H_    0.115632 0.639691 0.988294 0.182556
H27   H     H_    0.145152 0.715005 0.870089 0.138301
H28   H     H_    0.113191 0.777512 0.991124 0.202271

loop_
_geom_bond_atom_site_label_1
_geom_bond_atom_site_label_2
_ccdc_geom_bond_type
C43   O18   D    
O21   H25   S    
C40   O14   D    
C14   C18   A    
C35   C36   A    
C4    C8    A    
C23   O5    A    
O16   C41   S    
C11   C19   A    
C26   C27   A    
C29   C30   A    
C31   O7    A    
Cu1   Cu2   S    
C18   C19   A    
C3    C7    A    
C5    C6    A    
C41   H19   S    
C45   H28   S    
C28   H3    S    
C36   H9    S    
C37   O10   S    
C34   C35   A    
C32   H7    S    
C31   O8    A    
C39   H15   S    
C24   O17   S    
C1    O2    A    
C9    C32   A    
C14   H1    S    
Cu1   O5    S    
C28   N1    A    
Cu2   O4    S    
O22   C45   S    
C16   C17   A    
C45   H27   S    
C31   C33   S    
C34   H8    S    
Cu1   O7    S    
C5    C32   A    
C24   N2    A    
O12   H13   S    
C9    C33   A    
C40   O15   S    
C25   H6    S    
C29   N1    A    
C11   C20   A    
C44   O20   D    
Cu1   O1    S    
C41   H18   S    
O13   C39   S    
Cu2   N2    S    
C25   C26   A    
C17   C21   A    
C6    C43   S    
C37   O9    D    
C38   O12   S    
C20   C38   S    
C39   H16   S    
C2    C4    A    
O15   H17   S    
C25   N2    A    
O10   H12   S    
C44   O21   S    
Cu2   O6    S    
C19   H11   S    
C42   H21   S    
C45   H26   S    
C17   C18   A    
C10   C34   A    
C8    C44   S    
C10   C12   S    
C16   H2    S    
Cu1   O3    S    
C15   C40   S    
C26   C30   A    
C22   C27   A    
C43   O19   S    
C21   O13   S    
C22   C24   A    
C30   H5    S    
C1    C13   S    
C2    C36   A    
C23   O6    A    
C42   H22   S    
C4    C5    A    
C6    C7    A    
C35   O22   S    
C9    C37   S    
C7    H10   S    
C13   C15   A    
C2    C3    A    
C3    C10   A    
C38   O11   D    
Cu1   N1    S    
C41   H20   S    
C22   H4    S    
Cu2   O2    S    
C11   C23   S    
C8    C33   A    
C39   H14   S    
C1    O1    A    
C12   O4    A    
Cu2   O8    S    
C42   H23   S    
C29   O16   S    
C20   C21   A    
O17   C42   S    
C13   C16   A    
C27   C28   A    
C14   C15   A    
O19   H24   S    
C12   O3    A    
