data_mof_unit_27452.cif
_audit_creation_date              2012-12-11T14:01:25-0500
_audit_creation_method            fapswitch 2.2
_symmetry_space_group_name_H-M    P1
_symmetry_Int_Tables_number       1
_space_group_crystal_system       triclinic
_cell_length_a                    18.971778
_cell_length_b                    10.98432
_cell_length_c                    18.772352
_cell_angle_alpha                 90.173088
_cell_angle_beta                  89.933853
_cell_angle_gamma                 89.997782
_cell_volume                      3911.98902823

loop_
_atom_site_label
_atom_site_type_symbol
_atom_type_description
_atom_site_fract_x
_atom_site_fract_y
_atom_site_fract_z
_atom_type_partial_charge
C1    C     C_R   0.271336 0.045700 0.851733 0.558922
C2    C     C_R   0.016205 0.663313 0.962785 -0.126933
C3    C     C_R   0.500849 0.166529 0.035233 -0.124595
C4    C     C_R   0.516157 0.163323 0.962802 -0.126791
C5    C     C_2   0.248459 0.579328 0.920230 -0.113376
C6    C     C_2   0.736476 0.635485 0.067920 -0.107979
C7    C     C_2   0.748453 0.079315 0.920224 -0.113481
C8    C     C_2   0.236489 0.135425 0.067929 -0.107556
C9    C     C_2   0.250093 0.585513 0.076840 -0.103957
C10   C     C_2   0.744023 0.607277 0.914504 -0.108837
C11   C     C_2   0.750089 0.085499 0.076835 -0.103937
C12   C     C_R   0.727590 0.042018 0.146375 0.552967
C13   C     C_2   0.244030 0.107254 0.914513 -0.109094
C14   C     C_2   0.294054 0.518504 0.036574 -0.169959
C15   C     C_2   0.692347 0.559249 0.954166 -0.161937
C16   C     C_2   0.794044 0.018480 0.036569 -0.170016
C17   C     C_2   0.192357 0.059211 0.954173 -0.162330
C18   C     C_2   0.302994 0.543319 0.960563 -0.162901
C19   C     C_2   0.681531 0.599949 0.027921 -0.165121
C20   C     C_2   0.802986 0.043292 0.960557 -0.162968
C21   C     C_2   0.181542 0.099900 0.027930 -0.164988
C22   C     C_2   0.485870 0.828830 0.571396 -0.100785
C23   C     C_R   0.771335 0.545703 0.851732 0.556604
C24   C     C_2   0.487413 0.839852 0.415451 -0.110171
C25   C     C_2   0.986112 0.328713 0.571492 -0.091194
C26   C     C_2   0.987641 0.339649 0.415561 -0.110500
C27   C     C_2   0.467479 0.742288 0.452076 -0.162629
C28   C     C_2   0.452922 0.749613 0.527710 -0.149872
C29   C     C_2   0.967912 0.241947 0.452184 -0.166790
C30   C     C_2   0.953450 0.249099 0.527824 -0.148025
C31   C     C_2   0.246655 0.566475 0.582790 -0.110461
C32   C     C_2   0.745084 0.612455 0.430653 -0.094086
C33   C     C_2   0.746580 0.065710 0.583013 -0.109917
C34   C     C_R   0.227591 0.542022 0.146377 0.552072
C35   C     C_2   0.253541 0.066506 0.416910 -0.105709
C36   C     C_2   0.238144 0.570304 0.427689 -0.088449
C37   C     C_2   0.743337 0.603734 0.586051 -0.105096
C38   C     C_2   0.737968 0.069468 0.427902 -0.099273
C39   C     C_2   0.261941 0.069205 0.572160 -0.090749
C40   C     C_R   0.471130 0.822007 0.853452 0.539953
C41   C     C_R   0.527973 0.822444 0.147271 0.532036
C42   C     C_R   0.971130 0.322006 0.853452 0.539572
C43   C     C_R   0.027975 0.322445 0.147269 0.532398
C44   C     C_2   0.182369 0.560224 0.471723 -0.148112
C45   C     C_R   0.491622 0.058289 0.072719 -0.077038
C46   C     C_2   0.783083 0.680687 0.549150 -0.164670
C47   C     C_2   0.682261 0.058529 0.471953 -0.150604
C48   C     C_2   0.317783 0.060018 0.528084 -0.147876
C49   C     C_2   0.187000 0.585083 0.547268 -0.165493
C50   C     C_2   0.770966 0.699901 0.473922 -0.149740
C51   C     C_2   0.686838 0.083639 0.547519 -0.163175
C52   C     C_2   0.313125 0.085292 0.452615 -0.164384
C53   C     C_R   0.260792 0.636039 0.851351 0.553199
C54   C     C_R   0.727377 0.679155 0.140367 0.563721
C55   C     C_R   0.760791 0.136034 0.851349 0.553133
C56   C     C_R   0.517823 0.052298 0.926672 -0.088138
C57   C     C_R   0.227384 0.179129 0.140366 0.562745
C58   C     C_R   0.273848 0.042329 0.646286 0.550182
C59   C     C_R   0.726186 0.042605 0.353692 0.552057
C60   C     C_R   0.770978 0.548226 0.649699 0.555753
C61   C     C_R   0.226268 0.542864 0.353581 0.553969
C62   C     C_R   0.467922 0.823169 0.646110 0.547389
C63   C     C_R   0.527641 0.824688 0.350629 0.553060
C64   C     C_R   0.967999 0.323155 0.646160 0.549758
C65   C     C_R   0.027668 0.324660 0.350635 0.553331
C66   C     C_R   0.260019 0.634160 0.647325 0.552344
C67   C     C_R   0.991659 0.558302 0.072706 -0.076920
C68   C     C_R   0.738286 0.642133 0.356143 0.561025
C69   C     C_R   0.759994 0.134013 0.647371 0.552942
C70   C     C_R   0.240039 0.134204 0.352583 0.565712
C71   C     C_R   0.497968 0.832160 0.075749 0.001607
C72   C     C_R   0.497158 0.829259 0.926659 0.003309
C73   C     C_R   0.997973 0.332167 0.075747 0.001726
C74   C     C_R   0.997160 0.329253 0.926657 0.003609
C75   C     C_R   0.497776 0.944255 0.038021 0.028194
C76   C     C_R   0.504406 0.941989 0.962903 0.023931
C77   C     C_R   0.997796 0.444259 0.038014 0.028092
C78   C     C_R   0.017854 0.552283 0.926660 -0.088145
C79   C     C_R   0.004423 0.441983 0.962897 0.024058
C80   C     C_R   0.493170 0.720835 0.965672 -0.152454
C81   C     C_R   0.491605 0.722560 0.038500 -0.160324
C82   C     C_R   0.993160 0.220835 0.965673 -0.152351
C83   C     C_R   0.991598 0.222566 0.038501 -0.160270
C84   C     C_R   0.000901 0.666534 0.035216 -0.124587
Cr1   Cr    Cr6+3 0.230530 0.836340 0.748870 1.020757
Cr2   Cr    Cr6+3 0.614360 0.677860 0.250770 1.022842
Cr3   Cr    Cr6+3 0.885640 0.177860 0.749230 1.015447
Cr4   Cr    Cr6+3 0.114360 0.177860 0.250770 1.021257
Cr5   Cr    Cr6+3 0.769470 0.836340 0.251130 1.013234
Cr6   Cr    Cr6+3 0.730530 0.336340 0.748870 1.019876
Cr7   Cr    Cr6+3 0.269470 0.336340 0.251130 1.015380
Cr8   Cr    Cr6+3 0.387420 0.989430 0.750820 1.017004
Cr9   Cr    Cr6+3 0.612580 0.989430 0.249180 1.011735
Cr10  Cr    Cr6+3 0.887420 0.489430 0.750820 1.019395
Cr11  Cr    Cr6+3 0.112580 0.489430 0.249180 1.014480
Cr12  Cr    Cr6+3 0.385640 0.677860 0.749230 1.017286
H1    H     H_    0.488029 0.632748 0.940065 0.137375
H2    H     H_    0.789384 0.786293 0.452742 0.156802
H3    H     H_    0.641884 0.128307 0.572239 0.152725
H4    H     H_    0.357947 0.130446 0.428115 0.152500
H5    H     H_    0.291194 0.588835 0.446436 0.086594
H6    H     H_    0.694543 0.567823 0.564137 0.111475
H7    H     H_    0.790958 0.088397 0.446682 0.084698
H8    H     H_    0.208830 0.086954 0.553439 0.094142
H9    H     H_    0.289839 0.515004 0.559382 0.104001
H10   H     H_    0.726092 0.525453 0.450077 0.095828
H11   H     H_    0.789787 0.014190 0.559665 0.095137
H12   H     H_    0.489724 0.635643 0.065625 0.136585
H13   H     H_    0.210483 0.014585 0.440013 0.110301
H14   H     H_    0.478019 0.065144 0.128527 0.134407
H15   H     H_    0.531144 0.053702 0.870665 0.128845
H16   H     H_    0.978055 0.565172 0.128514 0.135176
H17   H     H_    0.031171 0.553674 0.870652 0.128544
H18   H     H_    0.997067 0.753103 0.062665 0.108372
H19   H     H_    0.025729 0.747224 0.934246 0.108878
H20   H     H_    0.497002 0.253093 0.062685 0.108206
H21   H     H_    0.525670 0.247242 0.934267 0.109074
H22   H     H_    0.323052 0.442379 0.058909 0.147865
H23   H     H_    0.988007 0.132747 0.940070 0.137364
H24   H     H_    0.661024 0.483344 0.934742 0.148160
H25   H     H_    0.823039 0.942351 0.058903 0.147831
H26   H     H_    0.161034 0.983309 0.934746 0.148047
H27   H     H_    0.355731 0.535237 0.938463 0.151059
H28   H     H_    0.628984 0.593925 0.050600 0.152724
H29   H     H_    0.855723 0.035202 0.938457 0.150997
H30   H     H_    0.128992 0.093897 0.050605 0.152842
H31   H     H_    0.222758 0.663479 0.054457 0.116801
H32   H     H_    0.772904 0.686734 0.933022 0.109899
H33   H     H_    0.722757 0.163468 0.054451 0.116899
H34   H     H_    0.989708 0.135652 0.065629 0.136657
H35   H     H_    0.272910 0.186707 0.933037 0.109984
H36   H     H_    0.195503 0.583500 0.942309 0.113193
H37   H     H_    0.789699 0.635732 0.046442 0.114952
H38   H     H_    0.695498 0.083492 0.942303 0.113212
H39   H     H_    0.289713 0.135654 0.046454 0.114874
H40   H     H_    0.467648 0.652101 0.428111 0.154032
H41   H     H_    0.417786 0.680215 0.548764 0.154461
H42   H     H_    0.968074 0.151796 0.428168 0.153198
H43   H     H_    0.918487 0.179427 0.548861 0.152826
H44   H     H_    0.483137 0.930706 0.438179 0.095199
H45   H     H_    0.129913 0.541141 0.451201 0.151691
H46   H     H_    0.520942 0.899592 0.552152 0.084467
H47   H     H_    0.983416 0.430454 0.438346 0.104803
H48   H     H_    0.021037 0.399693 0.552257 0.085118
H49   H     H_    0.829717 0.722457 0.572253 0.152492
H50   H     H_    0.629883 0.038986 0.451382 0.151919
H51   H     H_    0.370306 0.041690 0.548581 0.155752
H52   H     H_    0.142086 0.629812 0.572028 0.153898
O1    O     O_R   0.215090 0.709860 0.828130 -0.521520
O2    O     O_R   0.543740 0.718170 0.330000 -0.509854
O3    O     O_R   0.956260 0.218170 0.670000 -0.515173
O4    O     O_R   0.043740 0.218170 0.330000 -0.510236
O5    O     O_R   0.320940 0.626760 0.674370 -0.507199
O6    O     O_R   0.679060 0.626760 0.325630 -0.488060
O7    O     O_R   0.820940 0.126760 0.674370 -0.508274
O8    O     O_R   0.179060 0.126760 0.325630 -0.493313
O9    O     O_3   0.334530 0.834540 0.749640 -0.245806
O10   O     O_3   0.665470 0.834540 0.250360 -0.263273
O11   O     O_3   0.834530 0.334540 0.749640 -0.243914
O12   O     O_R   0.784910 0.709860 0.171870 -0.520269
O13   O     O_3   0.165470 0.334540 0.250360 -0.261857
O14   O     O_R   0.236990 0.958390 0.823710 -0.497057
O15   O     O_R   0.763010 0.958390 0.176290 -0.511406
O16   O     O_R   0.736990 0.458390 0.823710 -0.498145
O17   O     O_R   0.263010 0.458390 0.176290 -0.512344
O18   O     O_R   0.332380 0.074750 0.830850 -0.511217
O19   O     O_R   0.667620 0.074750 0.169150 -0.508120
O20   O     O_R   0.832380 0.574750 0.830850 -0.513460
O21   O     O_R   0.167620 0.574750 0.169150 -0.508545
O22   O     O_R   0.445800 0.917770 0.825070 -0.504198
O23   O     O_R   0.715090 0.209860 0.828130 -0.521233
O24   O     O_R   0.554200 0.917770 0.174930 -0.510279
O25   O     O_R   0.945800 0.417770 0.825070 -0.505028
O26   O     O_R   0.054200 0.417770 0.174930 -0.510180
O27   O     O_R   0.456410 0.716580 0.829970 -0.524173
O28   O     O_R   0.543590 0.716580 0.170030 -0.531770
O29   O     O_R   0.956410 0.216580 0.829970 -0.524426
O30   O     O_R   0.043590 0.216580 0.170030 -0.531579
O31   O     O_R   0.321080 0.625290 0.822650 -0.496477
O32   O     O_R   0.678920 0.625290 0.177350 -0.489104
O33   O     O_R   0.821080 0.125290 0.822650 -0.496980
O34   O     O_R   0.284910 0.209860 0.171870 -0.523255
O35   O     O_R   0.178920 0.125290 0.177350 -0.490954
O36   O     O_R   0.214930 0.711450 0.668160 -0.512927
O37   O     O_R   0.785070 0.711450 0.331840 -0.513107
O38   O     O_R   0.714930 0.211450 0.668160 -0.512804
O39   O     O_R   0.285070 0.211450 0.331840 -0.510924
O40   O     O_R   0.236850 0.959870 0.675420 -0.494895
O41   O     O_R   0.763150 0.959870 0.324580 -0.503267
O42   O     O_R   0.736850 0.459870 0.675420 -0.499633
O43   O     O_R   0.263150 0.459870 0.324580 -0.494700
O44   O     O_R   0.332230 0.076350 0.670880 -0.517572
O45   O     O_R   0.445660 0.919250 0.676780 -0.505709
O46   O     O_R   0.667770 0.076350 0.329120 -0.510645
O47   O     O_R   0.832230 0.576350 0.670880 -0.515287
O48   O     O_R   0.167770 0.576350 0.329120 -0.512994
O49   O     O_R   0.554340 0.919250 0.323220 -0.507994
O50   O     O_R   0.945660 0.419250 0.676780 -0.497132
O51   O     O_R   0.054340 0.419250 0.323220 -0.506013
O52   O     O_R   0.456260 0.718170 0.670000 -0.511917

loop_
_geom_bond_atom_site_label_1
_geom_bond_atom_site_label_2
_ccdc_geom_bond_type
C44   C49   S    
C43   C73   S    
C31   C66   S    
C43   O30   A    
Cr11  O48   S    
C56   C76   A    
Cr12  O27   S    
C64   O50   A    
C80   H1    S    
Cr3   O3    S    
Cr4   O4    S    
C14   C18   S    
C2    C84   A    
Cr9   O46   S    
C67   C77   A    
C24   C27   D    
C7    C55   S    
C72   C76   A    
C12   O19   A    
C40   O22   A    
C39   H8    S    
Cr9   O24   S    
C32   C68   S    
C24   H44   S    
C15   C19   S    
C6    C19   D    
C69   O7    A    
C70   O8    A    
C27   H40   S    
Cr4   O8    S    
C5    C53   S    
Cr11  O26   S    
C31   C49   D    
C6    H37   S    
C68   O6    A    
C10   C15   D    
Cr2   O2    S    
C37   H6    S    
C43   O26   A    
C46   H49   S    
C22   C62   S    
C42   O29   A    
Cr4   O13   S    
C48   H51   S    
C11   H33   S    
C15   H24   S    
C2    H19   S    
Cr6   O11   S    
C75   C76   A    
C65   O51   A    
C5    H36   S    
C35   C70   S    
Cr8   O22   S    
C44   H45   S    
C14   H22   S    
C33   H11   S    
Cr6   O23   S    
C26   H47   S    
C34   O17   A    
C56   H15   S    
C35   H13   S    
C33   C69   S    
C18   H27   S    
C41   C71   S    
C27   C28   S    
Cr1   O40   S    
Cr12  O9    S    
C47   H50   S    
C67   C84   A    
C32   H10   S    
C4    C56   A    
C8    H39   S    
C53   O1    A    
Cr1   O14   S    
C31   H9    S    
C54   O12   A    
Cr1   O9    S    
C82   H23   S    
C6    C54   S    
C10   H32   S    
C53   O31   A    
C55   O23   A    
C57   O34   A    
C77   C79   A    
C59   O46   A    
C51   H3    S    
C41   O24   A    
C19   H28   S    
C50   H2    S    
C42   C74   S    
C64   O3    A    
C58   O40   A    
Cr10  O47   S    
Cr5   O10   S    
C83   H34   S    
Cr8   O45   S    
Cr10  O20   S    
C45   H14   S    
Cr4   O35   S    
C47   C51   S    
C5    C18   D    
Cr6   O38   S    
C39   C58   S    
Cr7   O43   S    
C3    C45   A    
Cr10  O11   S    
C17   C21   S    
C33   C51   D    
C63   O49   A    
C49   H52   S    
Cr6   O16   S    
Cr8   O9    S    
Cr10  O50   S    
C25   C64   S    
Cr9   O49   S    
C9    C14   D    
C63   O2    A    
C38   H7    S    
C2    C78   A    
C8    C57   S    
Cr3   O29   S    
C23   O20   A    
Cr11  O21   S    
C11   C16   D    
C17   H26   S    
C66   O36   A    
Cr12  O5    S    
C16   C20   S    
C22   H46   S    
Cr2   O32   S    
C8    C21   D    
C13   H35   S    
C36   H5    S    
C9    H31   S    
Cr2   O10   S    
C61   O48   A    
C32   C50   D    
C38   C47   D    
C34   O21   A    
C70   O39   A    
C7    H38   S    
Cr11  O51   S    
C41   O28   A    
C68   O37   A    
C7    C20   D    
C24   C63   S    
C74   C79   A    
C58   O44   A    
C9    C34   S    
Cr3   O7    S    
C4    H21   S    
C36   C44   D    
C78   H17   S    
C1    C13   S    
C3    C4    A    
C57   O35   A    
Cr5   O12   S    
C23   O16   A    
Cr6   O42   S    
C25   C30   D    
Cr12  O52   S    
C16   H25   S    
Cr7   O39   S    
C84   H18   S    
C30   H43   S    
C40   C72   S    
C78   C79   A    
C26   C65   S    
Cr5   O37   S    
Cr7   O17   S    
C28   H41   S    
C80   C81   A    
C42   O25   A    
C29   H42   S    
Cr3   O33   S    
C40   O27   A    
C11   C12   S    
Cr4   O30   S    
C36   C61   S    
C10   C23   S    
Cr1   O36   S    
C66   O5    A    
C3    H20   S    
C46   C50   S    
C52   H4    S    
C13   C17   D    
C45   C75   A    
C65   O4    A    
Cr11  O13   S    
Cr2   O6    S    
C62   O52   A    
C20   H29   S    
C72   C80   A    
C12   O15   A    
C71   C75   A    
C1    O18   A    
Cr3   O11   S    
C37   C46   D    
C54   O32   A    
Cr5   O15   S    
Cr2   O28   S    
Cr12  O31   S    
Cr5   O41   S    
Cr9   O10   S    
Cr1   O1    S    
C81   H12   S    
C37   C60   S    
C59   O41   A    
C1    O14   A    
Cr10  O25   S    
C29   C30   S    
C38   C59   S    
C25   H48   S    
Cr8   O18   S    
C67   H16   S    
C48   C52   S    
Cr9   O19   S    
C26   C29   D    
C60   O42   A    
C82   C83   A    
Cr7   O34   S    
C55   O33   A    
C35   C52   D    
C61   O43   A    
C73   C77   A    
Cr7   O13   S    
C22   C28   D    
C62   O45   A    
C21   H30   S    
C69   O38   A    
C73   C83   A    
C74   C82   A    
Cr8   O44   S    
C60   O47   A    
C39   C48   D    
C71   C81   A    
