data_mof_unit_34544.cif
_audit_creation_date              2012-12-10T18:50:54-0500
_audit_creation_method            fapswitch 2.2
_symmetry_space_group_name_H-M    P1
_symmetry_Int_Tables_number       1
_space_group_crystal_system       triclinic
_cell_length_a                    10.568017
_cell_length_b                    9.912664
_cell_length_c                    15.72517
_cell_angle_alpha                 89.926442
_cell_angle_beta                  91.462321
_cell_angle_gamma                 89.841528
_cell_volume                      1646.78049936

loop_
_atom_site_label
_atom_site_type_symbol
_atom_type_description
_atom_site_fract_x
_atom_site_fract_y
_atom_site_fract_z
_atom_type_partial_charge
C1    C     C_R   0.263610 0.500302 0.517052 0.937164
C2    C     C_3   0.607885 0.558940 0.952443 -0.557917
C3    C     C_3   0.618928 0.537660 0.049914 0.642231
C4    C     C_1   0.488671 0.498428 0.825257 0.172394
C5    C     C_1   0.485307 0.499880 0.174465 0.245053
C6    C     C_1   0.492495 0.500185 0.249727 0.039806
C7    C     C_R   0.066825 0.379454 0.554529 0.325697
C8    C     C_R   0.065698 0.624124 0.549610 0.413928
C9    C     C_R   0.938209 0.378804 0.536792 -0.213013
C10   C     C_R   0.937389 0.622738 0.531693 -0.189895
C11   C     C_R   0.875236 0.500068 0.519634 -0.158426
C12   C     C_R   0.133192 0.501480 0.544836 -0.278461
C13   C     C_R   0.573206 0.071419 0.557558 0.332066
C14   C     C_R   0.573207 0.927925 0.557563 0.297878
C15   C     C_R   0.499243 0.500076 0.338475 0.905062
C16   C     C_R   0.429974 0.928656 0.440565 0.363283
C17   C     C_R   0.429813 0.072052 0.440653 0.377474
C18   C     C_R   0.741186 0.499867 0.503037 0.928012
C19   C     C_R   0.500130 0.499903 0.661579 0.905664
C20   C     C_3   0.378545 0.608765 0.045144 0.503190
C21   C     C_3   0.446613 0.347996 0.049210 0.493511
C22   C     C_3   0.471554 0.348527 0.950957 0.179650
C23   C     C_3   0.370628 0.588882 0.945791 0.134364
C24   C     C_1   0.494614 0.499483 0.750178 -0.003348
C25   C     C_3   0.479705 0.498175 0.083008 -0.361055
C26   C     C_3   0.482125 0.497067 0.916760 -0.204275
H1    H     H_    0.566348 0.302361 0.941783 0.191589
H2    H     H_    0.382686 0.688654 0.914419 0.189430
H3    H     H_    0.610729 0.668448 0.936873 0.262545
H4    H     H_    0.690479 0.513500 0.920271 0.260581
H5    H     H_    0.887466 0.284101 0.538234 0.225157
H6    H     H_    0.886207 0.717525 0.528862 0.230031
N1    N     N_R   0.499970 0.857200 0.499980 -0.205870
N2    N     N_R   0.499970 0.142800 0.499980 -0.193823
O1    O     O_R   0.316750 0.614620 0.499990 -0.540754
O2    O     O_R   0.316750 0.385380 0.499990 -0.542897
O3    O     O_R   0.499990 0.614720 0.377140 -0.568524
O4    O     O_R   0.499990 0.385280 0.377140 -0.573108
O5    O     O_R   0.683220 0.614710 0.500000 -0.600741
O6    O     O_R   0.683220 0.385290 0.500000 -0.605209
O7    O     O_R   0.499980 0.614620 0.622860 -0.572997
O8    O     O_R   0.499980 0.385380 0.622860 -0.553792
Zn1   Zn    Zn3+2 0.499980 0.653120 0.500000 1.106914
Zn2   Zn    Zn3+2 0.499980 0.346880 0.500000 1.123434
Cl1   Cl    Cl    0.220757 0.536648 0.901011 -0.325514
Cl2   Cl    Cl    0.372589 0.239531 0.886137 -0.316804
Cl3   Cl    Cl    0.339971 0.843032 0.361888 -0.350341
Cl4   Cl    Cl    0.338197 0.158723 0.362860 -0.387063
S1    S     S_3+6 0.224406 0.628364 0.096662 0.192920
O9    O     O_2   0.243119 0.623726 0.191666 -0.242722
O10   O     O_2   0.171795 0.765387 0.073866 -0.162366
O11   O     O_3   0.109691 0.519231 0.069266 -0.388967
H7    H     H_    0.036886 0.544109 0.104553 0.418884
S2    S     S_3+6 0.292272 0.279535 0.077082 0.198179
O12   O     O_2   0.251950 0.334092 0.161301 -0.235703
O13   O     O_2   0.191345 0.305294 0.010319 -0.120173
O14   O     O_3   0.302696 0.110435 0.086696 -0.371633
H8    H     H_    0.220157 0.081829 0.109033 0.419201
Cl5   Cl    Cl    0.547470 0.221181 0.099000 -0.355338
Cl6   Cl    Cl    0.436278 0.778833 0.061329 -0.377302
Cl7   Cl    Cl    0.692181 0.681793 0.100681 -0.385669
Cl8   Cl    Cl    0.744768 0.418608 0.070565 -0.432178
S3    S     S_3+6 0.135613 0.230774 0.597484 0.129276
O15   O     O_2   0.251533 0.262944 0.650873 -0.214562
O16   O     O_2   0.041863 0.159381 0.651874 -0.161397
O17   O     O_3   0.174781 0.129291 0.517334 -0.474218
H9    H     H_    0.096864 0.122198 0.481256 0.380198
S4    S     S_3+6 0.132517 0.777566 0.585514 0.114449
O18   O     O_2   0.167545 0.858312 0.509151 -0.250246
O19   O     O_2   0.036596 0.855170 0.634885 -0.170598
O20   O     O_3   0.261176 0.749650 0.648242 -0.519618
H10   H     H_    0.303216 0.838566 0.653487 0.399318
Cl9   Cl    Cl    0.671697 0.157748 0.630969 -0.429765
Cl10  Cl    Cl    0.671995 0.840781 0.630840 -0.442254

loop_
_geom_bond_atom_site_label_1
_geom_bond_atom_site_label_2
_ccdc_geom_bond_type
O3    Zn1   S    
C4    C26   S    
C18   O5    A    
C17   Cl4   S    
C11   C18   S    
O4    Zn2   S    
C20   S1    S    
C23   Cl1   S    
C16   N1    A    
C20   Cl6   S    
O1    Zn1   S    
O7    Zn1   S    
C19   O8    A    
C2    H4    S    
C8    C12   A    
S1    O11   S    
C10   C11   A    
C21   C22   S    
C14   N1    A    
S3    O16   D    
C2    C3    S    
S3    O17   S    
O20   H10   S    
C15   O4    A    
C21   Cl5   S    
C13   C14   A    
C9    C11   A    
C7    S3    S    
O14   H8    S    
C5    C6    T    
C1    C12   S    
O8    Zn2   S    
C2    H3    S    
C5    C25   S    
C13   N2    A    
C14   Cl10  S    
C16   Cl3   S    
S4    O19   D    
C22   Cl2   S    
C13   Cl9   S    
C8    S4    S    
C7    C9    A    
C22   H1    S    
S4    O20   S    
C22   C26   S    
C21   S2    S    
C4    C24   T    
S2    O13   D    
C7    C12   A    
O2    Zn2   S    
C16   C17   A    
C20   C25   S    
C9    H5    S    
C3    Cl7   S    
S3    O15   D    
N1    Zn1   S    
C10   H6    S    
O6    Zn2   S    
C3    C25   S    
N2    Zn2   S    
O11   H7    S    
C1    O1    A    
C2    C26   S    
S1    O9    D    
C17   N2    A    
C3    Cl8   S    
O17   H9    S    
C23   C26   S    
C18   O6    A    
C21   C25   S    
S2    O12   D    
C15   O3    A    
O5    Zn1   S    
C6    C15   S    
C23   H2    S    
C20   C23   S    
C19   C24   S    
C8    C10   A    
C19   O7    A    
C1    O2    A    
S4    O18   D    
S1    O10   D    
S2    O14   S    
