data_mof_unit_22929.cif
_audit_creation_date              2012-12-11T15:35:22-0500
_audit_creation_method            fapswitch 2.2
_symmetry_space_group_name_H-M    P1
_symmetry_Int_Tables_number       1
_space_group_crystal_system       triclinic
_cell_length_a                    17.511065
_cell_length_b                    24.22268
_cell_length_c                    14.983319
_cell_angle_alpha                 90.508499
_cell_angle_beta                  124.190281
_cell_angle_gamma                 88.703906
_cell_volume                      5255.63087985

loop_
_atom_site_label
_atom_site_type_symbol
_atom_type_description
_atom_site_fract_x
_atom_site_fract_y
_atom_site_fract_z
_atom_type_partial_charge
C1    C     C_R   0.310228 0.124746 0.912735 -0.222061
C2    C     C_R   0.312838 0.873859 0.909637 -0.246447
C3    C     C_R   0.810225 0.624739 0.912739 -0.222259
C4    C     C_R   0.812835 0.373865 0.909639 -0.246438
C5    C     C_R   0.649517 0.150134 0.090485 -0.173855
C6    C     C_R   0.634065 0.845196 0.089322 -0.143115
C7    C     C_R   0.149492 0.650142 0.090484 -0.173778
C8    C     C_R   0.134059 0.345194 0.089326 -0.142841
C9    C     C_R   0.552072 0.844787 0.912972 -0.068428
C10   C     C_R   0.556631 0.153337 0.912277 0.049691
C11   C     C_R   0.052063 0.344785 0.912976 -0.068443
C12   C     C_R   0.056616 0.653343 0.912281 0.049726
C13   C     C_R   0.553057 0.997009 0.728664 -0.257089
C14   C     C_R   0.053030 0.497004 0.728639 -0.256844
C15   C     C_R   0.824203 0.000093 0.315127 -0.261760
C16   C     C_R   0.324235 0.500094 0.314933 -0.261969
C17   C     C_R   0.620370 0.181699 0.001666 0.044485
C18   C     C_R   0.604000 0.811383 0.001797 0.015209
C19   C     C_R   0.120340 0.681711 0.001668 0.044469
C20   C     C_R   0.103986 0.311379 0.001801 0.015033
C21   C     C_3   0.053475 0.966921 0.572729 -0.489164
C22   C     C_3   0.060695 0.060704 0.521547 -0.431765
C23   C     C_3   0.553445 0.466883 0.572587 -0.489162
C24   C     C_3   0.560682 0.560696 0.521556 -0.431801
C25   C     C_3   0.953016 0.963537 0.483859 -0.443147
C26   C     C_3   0.958260 0.060552 0.436255 -0.443343
C27   C     C_3   0.453012 0.463490 0.483643 -0.443255
C28   C     C_3   0.458261 0.560542 0.436222 -0.443328
C29   C     C_3   0.089789 0.984151 0.422316 -0.214861
C30   C     C_3   0.589883 0.484215 0.422305 -0.214916
C31   C     C_3   0.104774 0.001795 0.536173 0.298986
C32   C     C_3   0.604784 0.501799 0.536144 0.299032
C33   C     C_3   0.926834 0.002040 0.388131 0.205364
C34   C     C_3   0.426868 0.502044 0.387993 0.205504
C35   C     C_R   0.405357 0.871518 0.092162 0.603845
C36   C     C_R   0.404910 0.129827 0.092591 0.617906
C37   C     C_R   0.905357 0.371520 0.092164 0.603857
C38   C     C_R   0.904908 0.629822 0.092593 0.617939
C39   C     C_3   0.977849 0.985969 0.329363 0.996693
C40   C     C_3   0.477956 0.486045 0.329280 0.996767
C41   C     C_R   0.170728 0.820920 0.948471 -0.372893
C42   C     C_R   0.155915 0.183186 0.909466 -0.310822
C43   C     C_R   0.670740 0.320925 0.948529 -0.372919
C44   C     C_R   0.655911 0.683175 0.909475 -0.310814
C45   C     C_R   0.619463 0.277219 0.946864 0.628304
C46   C     C_R   0.596302 0.722674 0.908038 0.618622
C47   C     C_R   0.119442 0.777217 0.946804 0.628295
C48   C     C_R   0.096297 0.222676 0.908031 0.618632
C49   C     C_R   0.667282 0.228467 0.001221 -0.026063
C50   C     C_R   0.626157 0.752053 0.004092 -0.026548
C51   C     C_R   0.167259 0.728477 0.001222 -0.026070
C52   C     C_R   0.126139 0.252049 0.004089 -0.026511
C53   C     C_R   0.761760 0.221051 0.048295 -0.255157
C54   C     C_R   0.696726 0.728437 0.102570 -0.279786
C55   C     C_R   0.261745 0.721064 0.048352 -0.255142
C56   C     C_R   0.196702 0.228427 0.102564 -0.279878
C57   C     C_R   0.310607 0.763080 0.044830 -0.142738
C58   C     C_R   0.252616 0.186563 0.103816 -0.147871
C59   C     C_R   0.810612 0.263075 0.044775 -0.142689
C60   C     C_R   0.752625 0.686564 0.103823 -0.147834
C61   C     C_R   0.265653 0.813266 0.998464 0.110402
C62   C     C_R   0.239677 0.169221 0.006670 0.099752
C63   C     C_R   0.765658 0.313268 0.998464 0.110441
C64   C     C_R   0.739675 0.669211 0.006677 0.099704
C65   C     C_R   0.498657 0.965350 0.550669 -0.184727
C66   C     C_R   0.635359 0.022461 0.645219 -0.154473
C67   C     C_R   0.998655 0.465333 0.550659 -0.184780
C68   C     C_R   0.135334 0.522464 0.645205 -0.154239
C69   C     C_R   0.498365 0.967301 0.459892 -0.200953
C70   C     C_R   0.634548 0.024691 0.552106 -0.225883
C71   C     C_R   0.998365 0.467290 0.459885 -0.200781
C72   C     C_R   0.134527 0.524698 0.552096 -0.225934
C73   C     C_R   0.565341 0.997104 0.460309 0.177723
C74   C     C_R   0.065333 0.497103 0.460303 0.177707
C75   C     C_R   0.544138 0.045197 0.301617 -0.096321
C76   C     C_R   0.546141 0.954120 0.300816 -0.078403
C77   C     C_R   0.044145 0.545196 0.301619 -0.096174
C78   C     C_R   0.046137 0.454119 0.300813 -0.078590
C79   C     C_R   0.565800 0.993660 0.642624 0.172929
C80   C     C_R   0.065789 0.493649 0.642612 0.172585
C81   C     C_R   0.251580 0.955565 0.693281 0.471773
C82   C     C_R   0.250522 0.046708 0.695374 0.502964
C83   C     C_R   0.751566 0.455564 0.693288 0.471740
C84   C     C_R   0.750509 0.546709 0.695384 0.502993
C85   C     C_R   0.314718 0.141194 0.005137 -0.098627
C86   C     C_R   0.319752 0.856830 0.001393 -0.102295
C87   C     C_R   0.814715 0.641185 0.005142 -0.098510
C88   C     C_R   0.819749 0.356837 0.001396 -0.102320
C89   C     C_R   0.557249 0.999290 0.360977 -0.039755
C90   C     C_R   0.057247 0.499289 0.360975 -0.039765
C91   C     C_R   0.202623 0.001722 0.631598 -0.237662
C92   C     C_R   0.702608 0.501723 0.631618 -0.237599
C93   C     C_R   0.518385 0.043796 0.748696 0.518908
C94   C     C_R   0.523958 0.952662 0.758269 0.480112
C95   C     C_R   0.018362 0.543798 0.748661 0.518776
C96   C     C_R   0.023941 0.452660 0.758252 0.480120
C97   C     C_R   0.768708 0.952513 0.272485 0.545120
C98   C     C_R   0.765153 0.046195 0.276944 0.521060
C99   C     C_R   0.268724 0.452514 0.272319 0.544976
C100  C     C_R   0.265174 0.546196 0.276832 0.521074
H1    H     H_    0.250838 0.128301 0.831789 0.203152
H2    H     H_    0.257533 0.865573 0.827186 0.192861
H3    H     H_    0.750831 0.628291 0.831794 0.203166
H4    H     H_    0.757527 0.365580 0.827188 0.192866
H5    H     H_    0.059277 0.986940 0.643639 0.176159
H6    H     H_    0.070109 0.074960 0.598094 0.213336
H7    H     H_    0.559177 0.486873 0.643480 0.176163
H8    H     H_    0.570068 0.574925 0.598104 0.213260
H9    H     H_    0.911481 0.974912 0.516965 0.191862
H10   H     H_    0.923211 0.074002 0.476157 0.227558
H11   H     H_    0.411418 0.474807 0.516698 0.191871
H12   H     H_    0.423177 0.573943 0.476108 0.227510
H13   H     H_    0.939221 0.920257 0.461351 0.220203
H14   H     H_    0.942508 0.091114 0.372874 0.229123
H15   H     H_    0.439267 0.420216 0.461066 0.220243
H16   H     H_    0.442537 0.591138 0.372904 0.229208
H17   H     H_    0.137948 0.860544 0.913205 0.148419
H18   H     H_    0.137635 0.165989 0.833269 0.153760
H19   H     H_    0.637962 0.360557 0.913308 0.148400
H20   H     H_    0.637624 0.665972 0.833279 0.153765
H21   H     H_    0.797238 0.182222 0.085790 0.159740
H22   H     H_    0.715641 0.745798 0.178870 0.135411
H23   H     H_    0.297225 0.682242 0.085889 0.159755
H24   H     H_    0.215595 0.245775 0.178865 0.135463
H25   H     H_    0.383783 0.756921 0.080040 0.153177
H26   H     H_    0.309424 0.171718 0.181313 0.185245
H27   H     H_    0.883781 0.256915 0.079946 0.153128
H28   H     H_    0.809434 0.671722 0.181321 0.185280
H29   H     H_    0.442622 0.944545 0.546613 0.151285
H30   H     H_    0.686559 0.044751 0.716594 0.145900
H31   H     H_    0.942622 0.444523 0.546599 0.151331
H32   H     H_    0.186526 0.544760 0.716579 0.145956
H33   H     H_    0.442858 0.947914 0.387505 0.120981
H34   H     H_    0.686048 0.047965 0.550860 0.116840
H35   H     H_    0.942866 0.447898 0.387498 0.120960
H36   H     H_    0.186019 0.547979 0.550848 0.116817
H37   H     H_    0.558877 0.086867 0.331759 0.153608
H38   H     H_    0.565544 0.912196 0.330324 0.169311
H39   H     H_    0.058898 0.586866 0.331767 0.153581
H40   H     H_    0.065536 0.412194 0.330319 0.169286
H41   H     H_    0.690854 0.164701 0.172133 0.177844
H42   H     H_    0.654086 0.830531 0.167390 0.140925
H43   H     H_    0.190810 0.664715 0.172129 0.177813
H44   H     H_    0.154110 0.330537 0.167413 0.141033
H45   H     H_    0.506409 0.830716 0.831744 0.199386
H46   H     H_    0.512481 0.170094 0.831673 0.127192
H47   H     H_    0.006397 0.330714 0.831748 0.199397
H48   H     H_    0.012476 0.670095 0.831673 0.127084
H49   H     H_    0.082641 0.925371 0.604726 0.208576
H50   H     H_    0.091829 0.092549 0.500090 0.219316
H51   H     H_    0.582614 0.425332 0.604561 0.208663
H52   H     H_    0.591815 0.592564 0.500142 0.219419
N1    N     N_R   0.392140 0.102630 0.941800 -0.067143
N2    N     N_R   0.392140 0.897370 0.941800 -0.072759
N3    N     N_R   0.892140 0.602630 0.941800 -0.067225
N4    N     N_R   0.892140 0.397370 0.941800 -0.072766
N5    N     N_R   0.450890 0.896450 0.057150 -0.093277
N6    N     N_R   0.450890 0.103550 0.057150 -0.101549
N7    N     N_R   0.950890 0.396450 0.057150 -0.093285
N8    N     N_R   0.950890 0.603550 0.057150 -0.101546
N9    N     N_R   0.525160 0.027960 0.206160 -0.053721
N10   N     N_R   0.525160 0.972040 0.206160 -0.051499
N11   N     N_R   0.025160 0.527960 0.206160 -0.053717
N12   N     N_R   0.025160 0.472040 0.206160 -0.051494
N13   N     N_R   0.317870 0.971120 0.792790 -0.120135
N14   N     N_R   0.317870 0.028880 0.792790 -0.121466
N15   N     N_R   0.817870 0.471120 0.792790 -0.120138
N16   N     N_R   0.817870 0.528880 0.792790 -0.121500
N17   N     N_R   0.473480 0.027920 0.793480 -0.145033
N18   N     N_R   0.473480 0.972080 0.793480 -0.140167
N19   N     N_R   0.973480 0.527920 0.793480 -0.144972
N20   N     N_R   0.973480 0.472080 0.793480 -0.140153
N21   N     N_R   0.681610 0.971120 0.207570 -0.126541
N22   N     N_R   0.681610 0.028880 0.207570 -0.131124
N23   N     N_R   0.181610 0.471120 0.207570 -0.126482
N24   N     N_R   0.181610 0.528880 0.207570 -0.131103
N25   N     N_R   0.605410 0.102620 0.056870 -0.054086
N26   N     N_R   0.605410 0.897380 0.056870 -0.055350
N27   N     N_R   0.105410 0.602620 0.056870 -0.054069
N28   N     N_R   0.105410 0.397380 0.056870 -0.055354
N29   N     N_R   0.549680 0.896430 0.944180 -0.054975
N30   N     N_R   0.549680 0.103570 0.944180 -0.051953
N31   N     N_R   0.049680 0.396430 0.944180 -0.054979
N32   N     N_R   0.049680 0.603570 0.944180 -0.051901
Ni1   Ni    Ni4+2 0.433410 0.064680 0.868830 0.187595
Ni2   Ni    Ni4+2 0.433410 0.935320 0.868830 0.181394
Ni3   Ni    Ni4+2 0.933410 0.564680 0.868830 0.187499
Ni4   Ni    Ni4+2 0.933410 0.435320 0.868830 0.181403
Ni5   Ni    Ni4+2 0.565650 0.934380 0.131170 0.227355
Ni6   Ni    Ni4+2 0.565650 0.065620 0.131170 0.190828
Ni7   Ni    Ni4+2 0.065650 0.434380 0.131170 0.227350
Ni8   Ni    Ni4+2 0.065650 0.565620 0.131170 0.190813
C101  C     C_R   0.126752 0.923883 0.419809 0.193999
C102  C     C_R   0.099729 0.875887 0.448222 0.087635
C103  C     C_R   0.125896 0.822641 0.437169 -0.194941
C104  C     C_R   0.177790 0.814845 0.394063 -0.114730
C105  C     C_R   0.200029 0.860165 0.357486 -0.109249
C106  C     C_R   0.172360 0.913309 0.366510 -0.234539
H53   H     H_    0.054847 0.877702 0.474667 0.080937
H54   H     H_    0.104607 0.787214 0.460979 0.106433
H55   H     H_    0.197785 0.773577 0.385368 0.106976
H56   H     H_    0.236013 0.854058 0.318341 0.112567
H57   H     H_    0.182985 0.945423 0.325327 0.139370
C107  C     C_R   0.149006 0.027663 0.407098 0.145566
C108  C     C_R   0.246323 0.019236 0.463812 -0.182517
C109  C     C_R   0.300597 0.052805 0.446399 -0.170526
C110  C     C_R   0.262266 0.099029 0.380194 -0.095050
C111  C     C_R   0.170141 0.112956 0.334670 -0.148918
C112  C     C_R   0.115040 0.078973 0.350152 -0.066366
H58   H     H_    0.280617 0.984768 0.518716 0.117092
H59   H     H_    0.373120 0.043702 0.486208 0.129125
H60   H     H_    0.304952 0.125383 0.368261 0.111011
H61   H     H_    0.141614 0.151059 0.289259 0.119719
H62   H     H_    0.048484 0.096664 0.322773 0.155174
C113  C     C_R   0.626873 0.423963 0.419750 0.193924
C114  C     C_R   0.599842 0.375938 0.448073 0.087435
C115  C     C_R   0.626040 0.322711 0.436974 -0.194986
C116  C     C_R   0.677982 0.314963 0.393920 -0.114554
C117  C     C_R   0.700241 0.360314 0.357439 -0.109275
C118  C     C_R   0.672540 0.413440 0.366503 -0.234518
H63   H     H_    0.554937 0.377715 0.474485 0.080986
H64   H     H_    0.604742 0.287260 0.460716 0.106453
H65   H     H_    0.698003 0.273708 0.385193 0.107006
H66   H     H_    0.736269 0.354247 0.318338 0.112518
H67   H     H_    0.683195 0.445584 0.325398 0.139344
C119  C     C_R   0.649155 0.527754 0.407239 0.145535
C120  C     C_R   0.746479 0.519324 0.464051 -0.182378
C121  C     C_R   0.800826 0.552925 0.446819 -0.170301
C122  C     C_R   0.762556 0.599177 0.380684 -0.095132
C123  C     C_R   0.670407 0.613094 0.335043 -0.148804
C124  C     C_R   0.615233 0.579082 0.350354 -0.066352
H68   H     H_    0.780731 0.484834 0.518907 0.117010
H69   H     H_    0.873354 0.543816 0.486715 0.128957
H70   H     H_    0.805298 0.625557 0.368890 0.110950
H71   H     H_    0.641916 0.651212 0.289677 0.119684
H72   H     H_    0.548660 0.596766 0.322907 0.155210
O1    O     O_3   0.945808 0.933185 0.280292 -0.700429
C125  C     C_3   0.959017 0.920051 0.197009 -0.266026
H73   H     H_    0.007160 0.947530 0.193307 0.179922
H74   H     H_    0.891529 0.920705 0.117742 0.148264
H75   H     H_    0.986553 0.877098 0.209320 0.168647
O2    O     O_3   0.957306 0.026090 0.248648 -0.686459
C126  C     C_3   0.865414 0.030108 0.156254 -0.283829
H76   H     H_    0.821424 0.994695 0.143218 0.146148
H77   H     H_    0.867784 0.033018 0.084022 0.169184
H78   H     H_    0.832707 0.069061 0.159656 0.172344
O3    O     O_3   0.445948 0.433283 0.280093 -0.700436
C127  C     C_3   0.459238 0.420224 0.196847 -0.265964
H79   H     H_    0.507412 0.447733 0.193266 0.179886
H80   H     H_    0.391780 0.420907 0.117545 0.148259
H81   H     H_    0.486781 0.377276 0.209093 0.168671
O4    O     O_3   0.457453 0.526219 0.248663 -0.686498
C128  C     C_3   0.365575 0.530256 0.156242 -0.283747
H82   H     H_    0.321583 0.494826 0.143114 0.146199
H83   H     H_    0.367979 0.533224 0.084040 0.169165
H84   H     H_    0.332846 0.569186 0.159696 0.172379
O5    O     O_3   0.525605 0.282658 0.902331 -0.626145
C129  C     C_3   0.477815 0.295489 0.791436 -0.294004
H85   H     H_    0.500102 0.268291 0.749299 0.123336
H86   H     H_    0.485599 0.339633 0.779194 0.153485
H87   H     H_    0.403190 0.288672 0.753371 0.176643
O6    O     O_3   0.516234 0.736146 0.809726 -0.633945
C130  C     C_3   0.439771 0.722078 0.812362 -0.316383
H88   H     H_    0.435762 0.747354 0.872039 0.143392
H89   H     H_    0.441391 0.677280 0.829594 0.151140
H90   H     H_    0.375766 0.730738 0.731792 0.178005
O7    O     O_3   0.025572 0.782655 0.902207 -0.626132
C131  C     C_3   0.977826 0.795433 0.791292 -0.294063
H91   H     H_    0.000151 0.768202 0.749234 0.123319
H92   H     H_    0.985610 0.839567 0.778983 0.153517
H93   H     H_    0.903196 0.788618 0.753197 0.176648
O8    O     O_3   0.016227 0.236148 0.809719 -0.633953
C132  C     C_3   0.939765 0.222076 0.812353 -0.316333
H94   H     H_    0.935748 0.247353 0.872022 0.143385
H95   H     H_    0.941392 0.177278 0.829593 0.151139
H96   H     H_    0.875760 0.230730 0.731779 0.178012
O9    O     O_3   0.447350 0.851870 0.196485 -0.641177
C133  C     C_3   0.389282 0.861118 0.233022 -0.312417
H97   H     H_    0.336673 0.828843 0.204127 0.173680
H98   H     H_    0.355641 0.902934 0.210666 0.130670
H99   H     H_    0.432154 0.857941 0.322270 0.176026
O10   O     O_3   0.445856 0.148955 0.196277 -0.663182
C134  C     C_3   0.491360 0.198165 0.205954 -0.351090
H100  H     H_    0.441078 0.231205 0.152992 0.170482
H101  H     H_    0.544341 0.191632 0.187679 0.148972
H102  H     H_    0.527453 0.212683 0.290501 0.175380
O11   O     O_3   0.947356 0.351863 0.196483 -0.641167
C135  C     C_3   0.889289 0.361092 0.233026 -0.312431
H103  H     H_    0.836705 0.328802 0.204146 0.173690
H104  H     H_    0.855618 0.402901 0.210662 0.130654
H105  H     H_    0.932168 0.357922 0.322275 0.176011
O12   O     O_3   0.945851 0.648942 0.196284 -0.663172
C136  C     C_3   0.991382 0.698144 0.205987 -0.351163
H106  H     H_    0.941120 0.731191 0.153019 0.170475
H107  H     H_    0.044377 0.691601 0.187740 0.148951
H108  H     H_    0.027459 0.712660 0.290534 0.175413
O13   O     O_3   0.234239 0.901552 0.658341 -0.664079
C137  C     C_3   0.313678 0.876550 0.672814 -0.183247
H109  H     H_    0.365973 0.868375 0.758835 0.147878
H110  H     H_    0.341395 0.901283 0.635285 0.154666
H111  H     H_    0.295323 0.835744 0.632858 0.170249
O14   O     O_3   0.226515 0.101847 0.670536 -0.650389
C138  C     C_3   0.292241 0.128449 0.661801 -0.296635
H112  H     H_    0.277695 0.173555 0.655571 0.175456
H113  H     H_    0.284957 0.115551 0.586574 0.169710
H114  H     H_    0.363630 0.121545 0.733193 0.155704
O15   O     O_3   0.734231 0.401553 0.658331 -0.664084
C139  C     C_3   0.813676 0.376553 0.672820 -0.183216
H115  H     H_    0.865962 0.368375 0.758842 0.147870
H116  H     H_    0.841401 0.401288 0.635304 0.154689
H117  H     H_    0.795325 0.335748 0.632859 0.170232
O16   O     O_3   0.726494 0.601847 0.670522 -0.650370
C140  C     C_3   0.792345 0.628487 0.662068 -0.296536
H118  H     H_    0.777626 0.673578 0.655568 0.175426
H119  H     H_    0.785431 0.615514 0.587088 0.169656
H120  H     H_    0.863642 0.621696 0.733701 0.155654
O17   O     O_3   0.549886 0.096106 0.753756 -0.619615
C141  C     C_3   0.498526 0.121173 0.651031 -0.341525
H121  H     H_    0.522687 0.163992 0.658934 0.173452
H122  H     H_    0.424371 0.124058 0.618708 0.131266
H123  H     H_    0.508629 0.099886 0.592629 0.171048
O18   O     O_3   0.526691 0.897795 0.733252 -0.643282
C142  C     C_3   0.617440 0.881499 0.767446 -0.205866
H124  H     H_    0.671033 0.898686 0.847852 0.118402
H125  H     H_    0.631659 0.892489 0.706534 0.157098
H126  H     H_    0.623562 0.835849 0.775354 0.177371
O19   O     O_3   0.050061 0.596074 0.753942 -0.619536
C143  C     C_3   0.998849 0.621250 0.651314 -0.341647
H127  H     H_    0.023764 0.663872 0.659269 0.173710
H128  H     H_    0.924816 0.624665 0.619416 0.131367
H129  H     H_    0.008267 0.599729 0.592567 0.170625
O20   O     O_3   0.026678 0.397790 0.733249 -0.643287
C144  C     C_3   0.117430 0.381494 0.767454 -0.205879
H130  H     H_    0.171019 0.398687 0.847856 0.118405
H131  H     H_    0.131652 0.392478 0.706542 0.157088
H132  H     H_    0.123555 0.335844 0.775376 0.177372
O21   O     O_3   0.788440 0.901787 0.324230 -0.635844
C145  C     C_3   0.825296 0.863231 0.285754 -0.182038
H133  H     H_    0.900817 0.858663 0.341701 0.166368
H134  H     H_    0.806605 0.872098 0.202891 0.159878
H135  H     H_    0.801585 0.821624 0.287689 0.123605
O22   O     O_3   0.785427 0.100192 0.311099 -0.640488
C146  C     C_3   0.737572 0.116154 0.358000 -0.341777
H136  H     H_    0.750002 0.086416 0.421441 0.142229
H137  H     H_    0.662661 0.121206 0.295307 0.162598
H138  H     H_    0.763006 0.156855 0.397139 0.176946
O23   O     O_3   0.288533 0.401742 0.323931 -0.635937
C147  C     C_3   0.325392 0.363281 0.285306 -0.181889
H139  H     H_    0.400916 0.358719 0.341227 0.166492
H140  H     H_    0.306644 0.372236 0.202446 0.159836
H141  H     H_    0.301729 0.321642 0.287130 0.123610
O24   O     O_3   0.285459 0.600190 0.311010 -0.640476
C148  C     C_3   0.237660 0.616136 0.357990 -0.341863
H142  H     H_    0.250130 0.586386 0.421434 0.142213
H143  H     H_    0.162737 0.621188 0.295348 0.162562
H144  H     H_    0.263108 0.656832 0.397142 0.176966

loop_
_geom_bond_atom_site_label_1
_geom_bond_atom_site_label_2
_ccdc_geom_bond_type
C13   C79   S    
C93   O17   S    
C41   C61   A    
C22   H50   S    
O21   C145  S    
C43   C63   A    
C138  H113  S    
C144  H130  S    
C44   C64   A    
C66   C79   A    
O10   C134  S    
C35   C86   A    
C3    H3    S    
N25   N30   A    
C132  H96   S    
C122  H70   S    
C28   H16   S    
C30   C113  S    
O8    C132  S    
N11   Ni8   S    
N12   Ni7   S    
C139  H117  S    
C39   O2    S    
N16   Ni3   S    
C97   O21   S    
C15   C97   A    
C121  C122  A    
C148  H143  S    
C99   O23   S    
C148  H142  S    
C125  H74   S    
C11   C20   A    
C97   N21   A    
C142  H124  S    
C135  H105  S    
C60   H28   S    
N26   Ni5   S    
C109  C110  A    
C44   C46   A    
C78   C90   A    
C82   C91   A    
N30   Ni1   S    
C113  C114  A    
C24   C32   S    
C122  C123  A    
C84   N16   A    
C8    N28   A    
N23   N24   A    
C68   C72   A    
C23   H7    S    
O24   C148  S    
C131  H92   S    
C96   O20   S    
C7    C19   A    
C55   C57   A    
C10   N30   A    
C137  H109  S    
C1    H1    S    
C14   C95   A    
C95   O19   S    
C144  H132  S    
C47   O7    S    
C130  H89   S    
C141  H123  S    
C104  C105  A    
C57   C61   A    
C59   C63   A    
C13   C94   A    
C60   C64   A    
C74   C90   S    
N3    Ni3   S    
C113  C118  A    
C94   N18   A    
C32   C92   S    
C49   C53   A    
C4    H4    S    
C147  H139  S    
C51   C55   A    
C36   O10   S    
C103  C104  A    
C48   C52   A    
C101  C102  A    
C70   H34   S    
N31   Ni4   S    
C101  C106  A    
O4    C128  S    
C27   H15   S    
C111  H61   S    
C65   C79   A    
C30   C119  S    
C37   O11   S    
C7    H43   S    
C116  H65   S    
C66   C70   A    
C21   C31   S    
N6    Ni6   S    
C57   H25   S    
C128  H82   S    
C29   C101  S    
C140  H119  S    
C2    H2    S    
C59   H27   S    
O16   C140  S    
O5    C129  S    
N1    N6    A    
C141  H122  S    
C16   C34   S    
C117  H66   S    
C21   H49   S    
C42   C62   A    
C64   C87   S    
C25   H9    S    
C76   C89   A    
C27   H11   S    
C2    N2    A    
C29   C107  S    
O9    C133  S    
C134  H102  S    
C139  H116  S    
C100  O24   S    
C7    N27   A    
O20   C144  S    
C17   C49   S    
C35   N5    A    
C16   C100  A    
C115  C116  A    
C94   O18   S    
C83   N15   A    
C147  H141  S    
C142  H125  S    
C135  H104  S    
C136  H106  S    
C26   C33   S    
C126  H78   S    
C41   C47   A    
C105  H56   S    
C42   C48   A    
C43   C45   A    
C121  H69   S    
C124  H72   S    
C10   H46   S    
C58   H26   S    
C145  H134  S    
C146  H137  S    
C39   O1    S    
C40   O3    S    
N27   N32   A    
C21   C25   S    
N25   Ni6   S    
C24   C28   S    
C143  H127  S    
N28   Ni7   S    
C128  H84   S    
N29   Ni2   S    
O6    C130  S    
C4    C88   A    
C145  H135  S    
C31   C91   S    
N13   Ni2   S    
N32   Ni3   S    
C75   N9    A    
C37   N7    A    
C129  H85   S    
C38   N8    A    
C108  H58   S    
N15   Ni4   S    
C132  H95   S    
C56   C58   A    
O18   C142  S    
C105  C106  A    
C9    N29   A    
C75   C89   A    
C9    C18   A    
C99   N23   A    
C107  C108  A    
C48   O8    S    
C119  C120  A    
C134  H100  S    
C133  H97   S    
C84   C92   A    
C41   H17   S    
C104  H55   S    
C82   O14   S    
C43   H19   S    
C58   C62   A    
C77   N11   A    
C63   C88   S    
C37   C88   A    
N19   N20   A    
N9    N10   A    
C98   O22   S    
C130  H88   S    
C28   H12   S    
C125  H75   S    
C93   N17   A    
C50   C54   A    
C56   H24   S    
C136  H108  S    
C40   O4    S    
C5    C17   A    
C44   H20   S    
C126  H76   S    
O13   C137  S    
C68   H32   S    
C114  H63   S    
C24   H52   S    
C127  H80   S    
C111  C112  A    
C133  H99   S    
C107  C112  A    
C100  N24   A    
C69   C73   A    
C24   H8    S    
C6    H42   S    
N4    Ni4   S    
C102  C103  A    
C28   C34   S    
C6    N26   A    
C137  H110  S    
C143  H129  S    
C14   C96   A    
C138  H114  S    
C55   H23   S    
C144  H131  S    
C77   C90   A    
C110  C111  A    
N7    Ni7   S    
N8    Ni8   S    
N2    N5    A    
C72   C74   A    
C75   H37   S    
C117  C118  A    
C42   H18   S    
C47   C51   A    
C108  C109  A    
O15   C139  S    
C13   C93   A    
C137  H111  S    
C25   H13   S    
N2    Ni2   S    
O11   C135  S    
C45   C49   A    
O7    C131  S    
N18   Ni2   S    
C70   C73   A    
C147  H140  S    
O2    C126  S    
C123  H71   S    
C33   C39   S    
C1    N1    A    
N22   Ni6   S    
C4    N4    A    
C3    N3    A    
C15   C98   A    
O23   C147  S    
C148  H144  S    
C127  H79   S    
C18   C50   S    
C82   N14   A    
C115  H64   S    
C125  H73   S    
O22   C146  S    
C67   C80   A    
C77   H39   S    
C78   H40   S    
C71   C74   A    
C65   H29   S    
C45   O5    S    
C76   H38   S    
C36   C85   A    
C112  H62   S    
C38   C87   A    
C23   C32   S    
C73   C89   S    
O19   C143  S    
C53   H21   S    
N23   Ni7   S    
C11   H47   S    
C140  H118  S    
C12   N32   A    
C65   C69   A    
C12   C19   A    
C9    H45   S    
C67   C71   A    
C123  C124  A    
N26   N29   A    
N24   Ni8   S    
C61   C86   S    
C81   C91   A    
C131  H91   S    
C136  H107  S    
C22   C26   S    
C106  H57   S    
C95   N19   A    
N10   Ni5   S    
C21   H5    S    
C68   C80   A    
C130  H90   S    
C146  H136  S    
C78   N12   A    
N13   N14   A    
C134  H101  S    
N14   Ni1   S    
N17   N18   A    
C76   N10   A    
N11   N12   A    
C26   H14   S    
C53   C59   A    
C54   C60   A    
N21   N22   A    
C83   C92   A    
C8    C20   A    
C34   C40   S    
O12   C136  S    
C71   H35   S    
C98   N22   A    
C72   H36   S    
C10   C17   A    
C119  C124  A    
C109  H59   S    
N27   Ni8   S    
C120  C121  A    
C126  H77   S    
C23   C27   S    
C26   H10   S    
C127  H81   S    
C36   N6    A    
C120  H68   S    
C54   H22   S    
N15   N16   A    
C138  H112  S    
C38   O12   S    
C27   C34   S    
C1    C85   A    
C6    C18   A    
C62   C85   S    
C22   C31   S    
C3    C87   A    
C11   N31   A    
C114  C115  A    
C143  H128  S    
C128  H83   S    
C140  H120  S    
C22   H6    S    
C129  H86   S    
C141  H121  S    
C81   O13   S    
C5    H41   S    
C102  H53   S    
C131  H93   S    
C83   O15   S    
C29   C39   S    
C132  H94   S    
C30   C40   S    
C8    H44   S    
C5    N25   A    
C14   C80   S    
C110  H60   S    
C133  H98   S    
C129  H87   S    
C84   O16   S    
C139  H115  S    
C103  H54   S    
C23   H51   S    
O14   C138  S    
C69   H33   S    
C35   O9    S    
N3    N8    A    
N4    N7    A    
C67   H31   S    
O3    C127  S    
N28   N31   A    
C16   C99   A    
C46   O6    S    
C46   C50   A    
N19   Ni3   S    
C20   C52   S    
C142  H126  S    
C135  H103  S    
C12   H48   S    
N17   Ni1   S    
C29   C31   S    
C30   C32   S    
C116  C117  A    
N1    Ni1   S    
N20   Ni4   S    
N21   Ni5   S    
C118  H67   S    
C2    C86   A    
O17   C141  S    
N9    Ni6   S    
N5    Ni5   S    
C19   C51   S    
C145  H133  S    
C96   N20   A    
C146  H138  S    
C25   C33   S    
C81   N13   A    
O1    C125  S    
C15   C33   S    
C52   C56   A    
C66   H30   S    
