data_mof_unit_8063.cif
_audit_creation_date              2012-12-10T16:32:39-0500
_audit_creation_method            fapswitch 2.2
_symmetry_space_group_name_H-M    P1
_symmetry_Int_Tables_number       1
_space_group_crystal_system       triclinic
_cell_length_a                    16.893153
_cell_length_b                    16.900208
_cell_length_c                    16.926744
_cell_angle_alpha                 65.603232
_cell_angle_beta                  65.598046
_cell_angle_gamma                 65.561663
_cell_volume                      3831.89417267

loop_
_atom_site_label
_atom_site_type_symbol
_atom_type_description
_atom_site_fract_x
_atom_site_fract_y
_atom_site_fract_z
_atom_type_partial_charge
C1    C     C_R   0.591578 0.031667 0.592030 0.078037
C2    C     C_R   0.821258 0.563651 0.034986 0.926188
C3    C     C_R   0.436419 0.964437 0.178618 0.927261
C4    C     C_R   0.563634 0.035431 0.821386 0.929456
C5    C     C_R   0.563436 0.821253 0.035750 0.909928
C6    C     C_R   0.436876 0.178638 0.963775 0.921226
C7    C     C_R   0.035409 0.563646 0.821394 0.935362
C8    C     C_R   0.964584 0.436354 0.178605 0.938417
C9    C     C_R   0.821332 0.035878 0.563279 0.915485
C10   C     C_R   0.178677 0.964099 0.436717 0.915188
C11   C     C_R   0.544740 0.014937 0.545086 0.131634
C12   C     C_R   0.408702 0.967595 0.408116 0.078354
C13   C     C_R   0.455609 0.984223 0.455060 0.131436
C14   C     C_R   0.015106 0.544719 0.545030 0.130154
C15   C     C_R   0.984745 0.455325 0.455008 0.130218
C16   C     C_R   0.542487 0.543851 0.019485 0.131823
C17   C     C_R   0.454510 0.454180 0.986932 0.131705
C18   C     C_R   0.552653 0.059862 0.452514 -0.187311
C19   C     C_R   0.447698 0.939291 0.547629 -0.187379
C20   C     C_R   0.954568 0.491649 0.591981 -0.182477
C21   C     C_R   0.045279 0.508398 0.408060 -0.181844
C22   C     C_R   0.488774 0.591563 0.959617 -0.187413
C23   C     C_R   0.031702 0.591623 0.592003 0.077132
C24   C     C_R   0.508152 0.406465 0.046875 -0.187467
C25   C     C_R   0.508591 0.044834 0.408092 -0.182922
C26   C     C_R   0.491766 0.954318 0.592050 -0.183340
C27   C     C_R   0.445247 0.547303 0.943693 -0.187199
C28   C     C_R   0.551686 0.450741 0.062811 -0.186963
C29   C     C_R   0.939715 0.447455 0.547565 -0.185754
C30   C     C_R   0.060131 0.552592 0.452475 -0.185416
C31   C     C_R   0.551119 0.035424 0.681398 -0.260408
C32   C     C_R   0.449183 0.963782 0.318767 -0.259412
C33   C     C_R   0.037283 0.680463 0.550358 -0.246290
C34   C     C_R   0.968167 0.408411 0.408032 0.076488
C35   C     C_R   0.962608 0.319564 0.449671 -0.246333
C36   C     C_R   0.679282 0.549532 0.039265 -0.256078
C37   C     C_R   0.318940 0.448344 0.965098 -0.262452
C38   C     C_R   0.319750 0.962235 0.449722 -0.246772
C39   C     C_R   0.680419 0.037329 0.550343 -0.246919
C40   C     C_R   0.450041 0.318842 0.962975 -0.241158
C41   C     C_R   0.548215 0.679686 0.041575 -0.244944
C42   C     C_R   0.964430 0.448852 0.318665 -0.255487
C43   C     C_R   0.035463 0.551173 0.681363 -0.256256
C44   C     C_R   0.596266 0.052095 0.724579 -0.094076
C45   C     C_R   0.589356 0.590538 0.036402 0.074769
C46   C     C_R   0.403875 0.947489 0.275471 -0.096278
C47   C     C_R   0.053740 0.724136 0.595146 -0.135990
C48   C     C_R   0.946212 0.275868 0.404861 -0.136179
C49   C     C_R   0.723656 0.594918 0.053967 -0.100976
C50   C     C_R   0.275652 0.403760 0.947773 -0.090442
C51   C     C_R   0.275958 0.945977 0.404901 -0.135278
C52   C     C_R   0.724091 0.053829 0.595103 -0.134989
C53   C     C_R   0.405077 0.275698 0.946080 -0.130527
C54   C     C_R   0.594581 0.723632 0.055526 -0.103033
C55   C     C_R   0.947887 0.403692 0.275420 -0.090977
C56   C     C_R   0.408339 0.407443 0.969163 0.075670
C57   C     C_R   0.052068 0.596312 0.724583 -0.090192
C58   C     C_R   0.677007 0.074262 0.676590 0.143179
C59   C     C_R   0.323005 0.925554 0.323388 0.144874
C60   C     C_R   0.074177 0.677062 0.676634 0.142953
C61   C     C_R   0.925813 0.322922 0.323349 0.142719
C62   C     C_R   0.676116 0.675281 0.076303 0.143806
C63   C     C_R   0.323581 0.323099 0.925470 0.139926
C64   C     C_3   0.758286 0.091205 0.759897 -0.652458
C65   C     C_3   0.241572 0.909046 0.239935 -0.652636
C66   C     C_3   0.091065 0.758323 0.759975 -0.654609
C67   C     C_R   0.964156 0.178657 0.436701 0.915551
C68   C     C_3   0.909132 0.241595 0.239923 -0.655366
C69   C     C_3   0.660788 0.716650 0.204826 -0.760575
C70   C     C_3   0.240163 0.242029 0.908272 -0.652281
C71   C     C_R   0.035830 0.821342 0.563303 0.915566
C72   C     C_R   0.178660 0.436351 0.964622 0.936269
H1    H     H_    0.485530 0.917174 0.662899 0.129955
H2    H     H_    0.481668 0.662863 0.923625 0.130082
H3    H     H_    0.082497 0.514616 0.337223 0.132574
H4    H     H_    0.917352 0.485430 0.662820 0.132345
H5    H     H_    0.484949 0.024368 0.717677 0.162088
H6    H     H_    0.515462 0.974597 0.282561 0.163326
H7    H     H_    0.024605 0.716778 0.484959 0.165213
H8    H     H_    0.975265 0.283259 0.515080 0.165150
H9    H     H_    0.715860 0.484599 0.025340 0.163947
H10   H     H_    0.282071 0.513129 0.979303 0.165013
H11   H     H_    0.283438 0.974956 0.515107 0.164759
H12   H     H_    0.514811 0.081992 0.337243 0.130160
H13   H     H_    0.716757 0.024641 0.484945 0.164916
H14   H     H_    0.516690 0.282870 0.973020 0.161406
H15   H     H_    0.481343 0.715675 0.032096 0.160451
H16   H     H_    0.975394 0.515035 0.282432 0.164129
H17   H     H_    0.024480 0.484998 0.717605 0.162783
H18   H     H_    0.717369 0.186515 0.647098 0.206364
H19   H     H_    0.821808 0.111702 0.724625 0.211458
H20   H     H_    0.722351 0.116551 0.820315 0.227409
H21   H     H_    0.776791 0.015741 0.782122 0.249462
H22   H     H_    0.282347 0.813531 0.352743 0.206834
H23   H     H_    0.108090 0.591892 0.414642 0.131372
H24   H     H_    0.177982 0.888668 0.275125 0.211413
H25   H     H_    0.277467 0.883774 0.179470 0.227691
H26   H     H_    0.223186 0.984501 0.217793 0.248659
H27   H     H_    0.186456 0.717434 0.647169 0.206560
H28   H     H_    0.111559 0.821823 0.724721 0.211138
H29   H     H_    0.116413 0.722412 0.820392 0.226960
H30   H     H_    0.015568 0.776801 0.782196 0.249533
H31   H     H_    0.813620 0.282461 0.352705 0.206406
H32   H     H_    0.888685 0.178068 0.275144 0.211223
H33   H     H_    0.984627 0.223168 0.217743 0.248673
H34   H     H_    0.891760 0.408151 0.585397 0.131143
H35   H     H_    0.883824 0.277478 0.179480 0.227246
H36   H     H_    0.742112 0.759269 0.071181 0.254992
H37   H     H_    0.700488 0.732654 0.231630 0.233441
H38   H     H_    0.645959 0.651760 0.251189 0.242365
H39   H     H_    0.595958 0.772139 0.203354 0.231940
H40   H     H_    0.353042 0.283124 0.813168 0.211318
H41   H     H_    0.275626 0.178599 0.887622 0.212589
H42   H     H_    0.179564 0.277968 0.883049 0.228680
H43   H     H_    0.217913 0.223423 0.983606 0.247342
H44   H     H_    0.591664 0.412340 0.110103 0.131691
H45   H     H_    0.405435 0.585692 0.896252 0.131509
H46   H     H_    0.408440 0.891299 0.585470 0.129512
H47   H     H_    0.591883 0.107877 0.414669 0.129456
H48   H     H_    0.515392 0.335113 0.082695 0.130287
N1    N     N_2   0.700672 0.131928 0.700609 -0.311938
N2    N     N_2   0.299160 0.868094 0.299275 -0.310735
N3    N     N_2   0.131839 0.700737 0.700671 -0.309805
N4    N     N_2   0.868250 0.299182 0.299242 -0.309028
N5    N     N_2   0.713285 0.707800 0.114787 -0.290941
N6    N     N_2   0.299443 0.299679 0.867772 -0.308528
O1    O     O_R   0.982940 0.138950 0.510160 -0.638788
O2    O     O_R   0.982940 0.510160 0.138950 -0.640862
O3    O     O_R   0.861050 0.017060 0.489840 -0.638994
O4    O     O_R   0.138950 0.982940 0.510160 -0.638874
O5    O     O_R   0.867700 0.025880 0.612340 -0.620496
O6    O     O_R   0.132300 0.974120 0.387660 -0.620691
O7    O     O_R   0.025880 0.612340 0.867700 -0.619510
O8    O     O_R   0.974120 0.387660 0.132300 -0.620640
O9    O     O_R   0.612340 0.867700 0.025880 -0.634657
O10   O     O_R   0.387660 0.132300 0.974120 -0.623703
O11   O     O_R   0.387660 0.974120 0.132300 -0.615532
O12   O     O_R   0.017060 0.861050 0.489840 -0.638745
O13   O     O_R   0.612340 0.025880 0.867700 -0.616237
O14   O     O_R   0.132300 0.387660 0.974120 -0.620121
O15   O     O_R   0.867700 0.612340 0.025880 -0.620913
O16   O     O_R   0.974120 0.132300 0.387660 -0.620747
O17   O     O_R   0.025880 0.867700 0.612340 -0.620625
O18   O     O_R   0.138950 0.510160 0.982940 -0.646753
O19   O     O_R   0.861050 0.489840 0.017060 -0.643115
O20   O     O_R   0.510160 0.982940 0.138950 -0.644140
O21   O     O_R   0.489840 0.017060 0.861050 -0.648328
O22   O     O_R   0.489840 0.861050 0.017060 -0.637498
O23   O     O_R   0.510160 0.138950 0.982940 -0.639549
O24   O     O_R   0.017060 0.489840 0.861050 -0.646252
Zn1   Zn    Zn3+2 0.004880 0.004880 0.583590 0.902913
Zn2   Zn    Zn3+2 0.995120 0.995120 0.416410 0.902522
Zn3   Zn    Zn3+2 0.004880 0.583590 0.004880 0.921399
Zn4   Zn    Zn3+2 0.995120 0.416410 0.995120 0.906591
Zn5   Zn    Zn3+2 0.583590 0.004880 0.004880 0.911649
Zn6   Zn    Zn3+2 0.416410 0.995120 0.995120 0.902794

loop_
_geom_bond_atom_site_label_1
_geom_bond_atom_site_label_2
_ccdc_geom_bond_type
C16   C28   A    
C11   C18   A    
C38   H11   S    
C53   C63   A    
C66   H30   S    
O5    Zn1   S    
C34   C42   A    
C68   N4    S    
C23   C43   A    
C70   H42   S    
C2    O19   A    
C18   C25   A    
C43   H17   S    
C61   N4    S    
O7    Zn3   S    
C71   O17   A    
C64   H21   S    
C7    O7    A    
O10   Zn6   S    
C35   C48   A    
C66   H28   S    
C64   N1    S    
C35   H8    S    
C1    C31   A    
C26   H1    S    
O9    Zn5   S    
C20   H4    S    
C5    O9    A    
C34   C35   A    
C40   H14   S    
O18   Zn3   S    
C19   C26   A    
C50   C72   S    
C6    O10   A    
C28   H44   S    
O1    Zn1   S    
C47   C60   A    
C37   C56   A    
C69   H37   S    
C8    O2    A    
C65   H24   S    
O20   Zn5   S    
C19   H46   S    
C44   C58   A    
C23   C33   A    
C1    C11   S    
C25   H12   S    
C31   H5    S    
C3    O11   A    
C68   H35   S    
H36   N5    S    
C15   C34   S    
H40   N6    S    
C70   N6    S    
C59   N2    S    
O17   Zn1   S    
C39   C52   A    
C69   N5    S    
C5    O22   A    
C12   C32   A    
C50   C63   A    
C6    O23   A    
C66   H29   S    
C13   C25   A    
C9    C52   S    
C14   C30   A    
C10   C51   S    
C8    C55   S    
C15   C29   A    
C71   O12   A    
C20   C29   A    
C9    O5    A    
C70   H41   S    
C41   H15   S    
C24   H48   S    
C17   C24   A    
C31   C44   A    
C13   C19   A    
C8    O8    A    
C17   C27   A    
C14   C20   A    
C5    C54   S    
O3    Zn2   S    
C1    C39   A    
C33   H7    S    
C57   C60   A    
C38   C51   A    
C4    C44   S    
C11   C26   A    
C40   C56   A    
C4    O21   A    
O11   Zn6   S    
C14   C23   S    
C60   N3    S    
O16   Zn2   S    
C10   O4    A    
C30   H23   S    
C2    C49   S    
C67   O1    A    
C42   C55   A    
C7    O24   A    
C69   H38   S    
O13   Zn5   S    
C36   H9    S    
C36   C45   A    
C65   N2    S    
O21   Zn6   S    
C17   C56   S    
C47   C71   S    
C52   C58   A    
O2    Zn3   S    
C3    O20   A    
O19   Zn4   S    
H22   N2    S    
H31   N4    S    
C22   C27   A    
O6    Zn2   S    
H18   N1    S    
C37   H10   S    
C42   H16   S    
C68   H33   S    
C39   H13   S    
C6    C53   S    
H27   N3    S    
C27   H45   S    
C72   O18   A    
C58   N1    S    
C16   C22   A    
C49   C62   A    
C32   C46   A    
C24   C28   A    
C16   C45   S    
C65   H26   S    
C62   N5    S    
C9    O3    A    
C70   H43   S    
C54   C62   A    
C21   C30   A    
C21   H3    S    
C3    C46   S    
C64   H19   S    
O12   Zn2   S    
C68   H32   S    
O23   Zn5   S    
C65   H25   S    
C72   O14   A    
C41   C45   A    
C4    O13   A    
C37   C50   A    
C69   H39   S    
O15   Zn3   S    
C48   C61   A    
O8    Zn4   S    
C33   C47   A    
C55   C61   A    
C48   C67   S    
C12   C38   A    
C29   H34   S    
C10   O6    A    
C41   C54   A    
C63   N6    S    
C43   C57   A    
C32   H6    S    
C15   C21   A    
C51   C59   A    
C12   C13   S    
C46   C59   A    
C40   C53   A    
O24   Zn4   S    
O4    Zn1   S    
C2    O15   A    
C22   H2    S    
C66   N3    S    
O22   Zn6   S    
C64   H20   S    
C67   O16   A    
C18   H47   S    
C7    C57   S    
C36   C49   A    
O14   Zn4   S    
