data_mof_unit_5015.cif
_audit_creation_date              2012-12-11T15:06:49-0500
_audit_creation_method            fapswitch 2.2
_symmetry_space_group_name_H-M    P1
_symmetry_Int_Tables_number       1
_space_group_crystal_system       triclinic
_cell_length_a                    19.575065
_cell_length_b                    11.276285
_cell_length_c                    18.724235
_cell_angle_alpha                 89.999546
_cell_angle_beta                  90.157597
_cell_angle_gamma                 90.000085
_cell_volume                      4133.05987508

loop_
_atom_site_label
_atom_site_type_symbol
_atom_type_description
_atom_site_fract_x
_atom_site_fract_y
_atom_site_fract_z
_atom_type_partial_charge
C1    C     C_R   0.761299 0.523669 0.639087 0.537752
C2    C     C_R   0.238701 0.523672 0.360912 0.537751
C3    C     C_R   0.261299 0.023669 0.639087 0.537753
C4    C     C_R   0.738701 0.023672 0.360912 0.537751
C5    C     C_3   0.811053 0.130737 0.449260 -0.261283
C6    C     C_3   0.188945 0.130725 0.550738 -0.261280
C7    C     C_3   0.311053 0.630737 0.449260 -0.261283
C8    C     C_3   0.688945 0.630725 0.550738 -0.261280
C9    C     C_3   0.747035 0.056681 0.436837 0.066406
C10   C     C_3   0.252965 0.056675 0.563162 0.066405
C11   C     C_3   0.247035 0.556681 0.436837 0.066406
C12   C     C_3   0.752965 0.556675 0.563162 0.066405
C13   C     C_3   0.760034 0.090450 0.574212 0.066410
C14   C     C_3   0.239966 0.090446 0.425787 0.066397
C15   C     C_3   0.260034 0.590450 0.574212 0.066410
C16   C     C_3   0.739966 0.590446 0.425787 0.066397
C17   C     C_3   0.753441 0.957607 0.561909 -0.262793
C18   C     C_3   0.246567 0.957605 0.438090 -0.262791
C19   C     C_3   0.253441 0.457607 0.561909 -0.262793
C20   C     C_3   0.746567 0.457605 0.438090 -0.262791
C21   C     C_3   0.823340 0.133388 0.530199 -0.215181
C22   C     C_3   0.176660 0.133377 0.469800 -0.215192
C23   C     C_3   0.323340 0.633388 0.530199 -0.215182
C24   C     C_3   0.676660 0.633377 0.469800 -0.215192
C25   C     C_3   0.003672 0.204341 0.459019 -0.232436
C26   C     C_3   0.996331 0.204343 0.540983 -0.232435
C27   C     C_3   0.503672 0.704341 0.459019 -0.232436
C28   C     C_3   0.496331 0.704343 0.540983 -0.232435
C29   C     C_3   0.064730 0.406294 0.474448 -0.212358
C30   C     C_3   0.935272 0.406297 0.525550 -0.212356
C31   C     C_3   0.564730 0.906294 0.474448 -0.212358
C32   C     C_3   0.435272 0.906297 0.525550 -0.212356
C33   C     C_3   0.941374 0.390582 0.444524 -0.262811
C34   C     C_3   0.058626 0.390590 0.555474 -0.262814
C35   C     C_3   0.441374 0.890582 0.444524 -0.262811
C36   C     C_3   0.558626 0.890590 0.555474 -0.262814
C37   C     C_3   0.010489 0.333072 0.430978 0.064700
C38   C     C_3   0.989512 0.333075 0.569021 0.064699
C39   C     C_3   0.510489 0.833072 0.430978 0.064700
C40   C     C_3   0.489513 0.833075 0.569021 0.064699
C41   C     C_3   0.814582 0.016292 0.045438 -0.225866
C42   C     C_3   0.185418 0.016282 0.954562 -0.225857
C43   C     C_3   0.314582 0.516289 0.045438 -0.225864
C44   C     C_3   0.685417 0.516286 0.954562 -0.225858
C45   C     C_R   0.774023 0.120849 0.649451 0.537135
C46   C     C_R   0.225977 0.120848 0.350548 0.537135
C47   C     C_R   0.274023 0.620849 0.649451 0.537136
C48   C     C_R   0.725977 0.620848 0.350548 0.537135
C49   C     C_3   0.819667 0.030523 0.966112 -0.226905
C50   C     C_3   0.180330 0.030526 0.033888 -0.226908
C51   C     C_3   0.319667 0.530519 0.966111 -0.226904
C52   C     C_3   0.680330 0.530527 0.033888 -0.226907
C53   C     C_3   0.683219 0.030369 0.031026 -0.214936
C54   C     C_3   0.316782 0.030386 0.968970 -0.214937
C55   C     C_3   0.183219 0.530370 0.031026 -0.214937
C56   C     C_3   0.816780 0.530383 0.968970 -0.214937
C57   C     C_3   0.753965 0.204313 0.061733 -0.261664
C58   C     C_3   0.246024 0.204312 0.938258 -0.261664
C59   C     C_3   0.253967 0.704311 0.061734 -0.261663
C60   C     C_3   0.746025 0.704315 0.938259 -0.261666
C61   C     C_3   0.747454 0.070991 0.074747 0.061971
C62   C     C_3   0.252544 0.070991 0.925249 0.061986
C63   C     C_3   0.247454 0.570990 0.074747 0.061972
C64   C     C_3   0.752543 0.570995 0.925249 0.061984
C65   C     C_3   0.759670 0.105549 0.936033 0.061636
C66   C     C_3   0.240326 0.105558 0.063962 0.061627
C67   C     C_3   0.259671 0.605549 0.936033 0.061637
C68   C     C_3   0.740326 0.605560 0.063962 0.061629
C69   C     C_3   0.695615 0.031047 0.949088 -0.261154
C70   C     C_3   0.304383 0.031060 0.050907 -0.261146
C71   C     C_3   0.195615 0.531049 0.949087 -0.261154
C72   C     C_3   0.804384 0.531063 0.050907 -0.261149
C73   C     C_3   0.748818 0.223187 0.979603 -0.217539
C74   C     C_3   0.251172 0.223194 0.020385 -0.217559
C75   C     C_3   0.248821 0.723187 0.979604 -0.217541
C76   C     C_3   0.751173 0.723196 0.020386 -0.217556
C77   C     C_3   0.004343 0.478416 0.040053 -0.227568
C78   C     C_3   0.995660 0.478417 0.959946 -0.227565
C79   C     C_3   0.504342 0.978415 0.040053 -0.227568
C80   C     C_3   0.495658 0.978415 0.959947 -0.227564
C81   C     C_3   0.064129 0.274490 0.026561 -0.213072
C82   C     C_3   0.935864 0.274502 0.973444 -0.213074
C83   C     C_3   0.564129 0.774491 0.026561 -0.213071
C84   C     C_3   0.435864 0.774498 0.973444 -0.213077
C85   C     C_3   0.941454 0.292216 0.055260 -0.263263
C86   C     C_3   0.058541 0.292207 0.944745 -0.263262
C87   C     C_3   0.441455 0.792214 0.055260 -0.263263
C88   C     C_3   0.558541 0.792208 0.944745 -0.263260
C89   C     C_R   0.969172 0.342108 0.644936 0.535516
C90   C     C_R   0.030827 0.342107 0.355063 0.535514
C91   C     C_R   0.469172 0.842108 0.644936 0.535516
C92   C     C_R   0.530827 0.842107 0.355063 0.535514
C93   C     C_3   0.010753 0.350115 0.069263 0.062726
C94   C     C_3   0.989245 0.350115 0.930739 0.062725
C95   C     C_3   0.510753 0.850115 0.069263 0.062726
C96   C     C_3   0.489245 0.850114 0.930739 0.062724
C97   C     C_R   0.760518 0.534359 0.848840 0.534563
C98   C     C_R   0.239480 0.534353 0.151157 0.534564
C99   C     C_R   0.260520 0.034351 0.848840 0.534581
C100  C     C_R   0.739480 0.034354 0.151157 0.534562
C101  C     C_R   0.774142 0.133062 0.859033 0.534044
C102  C     C_R   0.225855 0.133071 0.140963 0.534049
C103  C     C_R   0.274142 0.633063 0.859034 0.534045
C104  C     C_R   0.725855 0.633072 0.140963 0.534049
C105  C     C_R   0.968335 0.353027 0.854189 0.535187
C106  C     C_R   0.031663 0.353027 0.145813 0.535183
C107  C     C_R   0.468335 0.853027 0.854189 0.535185
C108  C     C_R   0.531663 0.853027 0.145813 0.535183
C109  C     C_3   0.687158 0.132728 0.465254 -0.234403
C110  C     C_3   0.312841 0.132723 0.534746 -0.234405
C111  C     C_3   0.187158 0.632728 0.465254 -0.234403
C112  C     C_3   0.812841 0.632723 0.534746 -0.234405
C113  C     C_3   0.692203 0.145187 0.546430 -0.231343
C114  C     C_3   0.307793 0.145196 0.453570 -0.231342
C115  C     C_3   0.192203 0.645187 0.546430 -0.231343
C116  C     C_3   0.807793 0.645196 0.453570 -0.231342
C117  C     C_3   0.756616 0.938718 0.480653 -0.216935
C118  C     C_3   0.243389 0.938711 0.519346 -0.216929
C119  C     C_3   0.256616 0.438718 0.480653 -0.216935
C120  C     C_3   0.743389 0.438711 0.519346 -0.216929
Cr1   Cr    Cr6+3 0.885690 0.492860 0.745310 0.993025
Cr2   Cr    Cr6+3 0.114310 0.492860 0.254690 0.993025
Cr3   Cr    Cr6+3 0.385690 0.992860 0.745310 0.993023
Cr4   Cr    Cr6+3 0.614310 0.992860 0.254690 0.993025
Cr5   Cr    Cr6+3 0.729880 0.332270 0.748190 0.992412
Cr6   Cr    Cr6+3 0.270120 0.332270 0.251810 0.992414
Cr7   Cr    Cr6+3 0.229880 0.832270 0.748190 0.992410
Cr8   Cr    Cr6+3 0.770120 0.832270 0.251810 0.992414
Cr9   Cr    Cr6+3 0.888120 0.178590 0.753010 0.992970
Cr10  Cr    Cr6+3 0.111880 0.178590 0.246990 0.992970
Cr11  Cr    Cr6+3 0.388120 0.678590 0.753010 0.992970
Cr12  Cr    Cr6+3 0.611880 0.678590 0.246990 0.992970
H1    H     H_    0.637891 0.097181 0.449698 0.131040
H2    H     H_    0.362108 0.097165 0.550297 0.131044
H3    H     H_    0.137891 0.597181 0.449698 0.131040
H4    H     H_    0.862108 0.597165 0.550297 0.131044
H5    H     H_    0.863894 0.067087 0.540486 0.125967
H6    H     H_    0.136107 0.067075 0.459511 0.125975
H7    H     H_    0.363894 0.567087 0.540486 0.125967
H8    H     H_    0.636107 0.567075 0.459511 0.125975
H9    H     H_    0.809439 0.908852 0.469998 0.124727
H10   H     H_    0.190570 0.908829 0.530000 0.124728
H11   H     H_    0.309439 0.408852 0.469998 0.124727
H12   H     H_    0.690570 0.408829 0.530000 0.124728
H13   H     H_    0.795795 0.909704 0.588982 0.120017
H14   H     H_    0.204218 0.909697 0.411014 0.120014
H15   H     H_    0.295795 0.409704 0.588982 0.120017
H16   H     H_    0.704218 0.409696 0.411014 0.120014
H17   H     H_    0.045903 0.149272 0.441843 0.130215
H18   H     H_    0.954102 0.149271 0.558161 0.130216
H19   H     H_    0.545903 0.649272 0.441843 0.130215
H20   H     H_    0.454102 0.649271 0.558161 0.130216
H21   H     H_    0.958732 0.160962 0.434570 0.106588
H22   H     H_    0.041272 0.160969 0.565433 0.106590
H23   H     H_    0.458732 0.660962 0.434570 0.106588
H24   H     H_    0.541272 0.660969 0.565433 0.106590
H25   H     H_    0.616799 0.891982 0.455834 0.112784
H26   H     H_    0.383204 0.891995 0.544166 0.112781
H27   H     H_    0.116798 0.391982 0.455834 0.112784
H28   H     H_    0.883204 0.391995 0.544166 0.112781
H29   H     H_    0.600548 0.835106 0.576792 0.103944
H30   H     H_    0.399453 0.835089 0.423213 0.103945
H31   H     H_    0.100548 0.335106 0.576792 0.103944
H32   H     H_    0.899453 0.335089 0.423213 0.103945
H33   H     H_    0.938294 0.477975 0.417459 0.121391
H34   H     H_    0.061698 0.477987 0.582534 0.121391
H35   H     H_    0.438294 0.977974 0.417459 0.121391
H36   H     H_    0.561698 0.977987 0.582534 0.121391
H37   H     H_    0.947818 0.500506 0.535747 0.129197
H38   H     H_    0.052188 0.500501 0.464244 0.129206
H39   H     H_    0.447818 0.000506 0.535747 0.129197
H40   H     H_    0.552188 0.000501 0.464244 0.129206
H41   H     H_    0.819842 0.922477 0.058474 0.137291
H42   H     H_    0.180164 0.922467 0.941532 0.137282
H43   H     H_    0.319841 0.422474 0.058474 0.137291
H44   H     H_    0.680163 0.422470 0.941531 0.137285
H45   H     H_    0.687967 0.221582 0.440305 0.106576
H46   H     H_    0.312036 0.221573 0.559701 0.106576
H47   H     H_    0.187967 0.721583 0.440305 0.106575
H48   H     H_    0.812036 0.721573 0.559701 0.106576
H49   H     H_    0.859456 0.058494 0.071523 0.114981
H50   H     H_    0.140540 0.058469 0.928473 0.114983
H51   H     H_    0.359457 0.558490 0.071523 0.114982
H52   H     H_    0.640539 0.558474 0.928474 0.114981
H53   H     H_    0.869426 0.068191 0.953725 0.133588
H54   H     H_    0.130571 0.068203 0.046269 0.133580
H55   H     H_    0.369428 0.568184 0.953724 0.133587
H56   H     H_    0.630571 0.568202 0.046271 0.133581
H57   H     H_    0.820406 0.941709 0.940439 0.115825
H58   H     H_    0.179589 0.941716 0.059567 0.115834
H59   H     H_    0.320404 0.441705 0.940439 0.115824
H60   H     H_    0.679591 0.441716 0.059566 0.115834
H61   H     H_    0.661741 0.947892 0.050447 0.112359
H62   H     H_    0.338271 0.947914 0.949554 0.112360
H63   H     H_    0.161741 0.447893 0.050445 0.112359
H64   H     H_    0.838262 0.447909 0.949559 0.112361
H65   H     H_    0.702780 0.940039 0.928590 0.109073
H66   H     H_    0.297220 0.940050 0.071403 0.109076
H67   H     H_    0.202779 0.440041 0.928589 0.109072
H68   H     H_    0.797222 0.440055 0.071407 0.109073
H69   H     H_    0.712520 0.252805 0.089731 0.109581
H70   H     H_    0.287463 0.252813 0.910254 0.109579
H71   H     H_    0.212523 0.752804 0.089731 0.109580
H72   H     H_    0.787465 0.752814 0.910256 0.109579
H73   H     H_    0.803088 0.237756 0.082955 0.108159
H74   H     H_    0.196895 0.237741 0.917038 0.108160
H75   H     H_    0.303090 0.737751 0.082958 0.108158
H76   H     H_    0.696897 0.737746 0.917039 0.108157
H77   H     H_    0.779933 0.296133 0.961210 0.109082
H78   H     H_    0.220051 0.296136 0.038766 0.109073
H79   H     H_    0.279940 0.796133 0.961214 0.109080
H80   H     H_    0.720051 0.796137 0.038767 0.109073
H81   H     H_    0.695555 0.250438 0.969126 0.116355
H82   H     H_    0.304433 0.250454 0.030860 0.116359
H83   H     H_    0.195559 0.750441 0.969127 0.116357
H84   H     H_    0.804434 0.750456 0.030862 0.116361
H85   H     H_    0.643724 0.098185 0.041346 0.118386
H86   H     H_    0.356272 0.098215 0.958649 0.118382
H87   H     H_    0.143724 0.598187 0.041346 0.118385
H88   H     H_    0.856274 0.598201 0.958647 0.118386
H89   H     H_    0.686527 0.237364 0.562438 0.137855
H90   H     H_    0.313442 0.237385 0.437573 0.137863
H91   H     H_    0.186527 0.737364 0.562438 0.137855
H92   H     H_    0.813442 0.737385 0.437573 0.137863
H93   H     H_    0.651256 0.070267 0.920569 0.109611
H94   H     H_    0.348741 0.070284 0.079425 0.109616
H95   H     H_    0.151257 0.570273 0.920569 0.109612
H96   H     H_    0.848742 0.570290 0.079423 0.109616
H97   H     H_    0.047939 0.533450 0.054311 0.132650
H98   H     H_    0.952063 0.533458 0.945687 0.132646
H99   H     H_    0.547938 0.033449 0.054311 0.132650
H100  H     H_    0.452060 0.033454 0.945688 0.132646
H101  H     H_    0.960255 0.523968 0.065136 0.114529
H102  H     H_    0.039750 0.523962 0.934862 0.114529
H103  H     H_    0.460254 0.023966 0.065137 0.114529
H104  H     H_    0.539747 0.023964 0.934862 0.114530
H105  H     H_    0.600272 0.848978 0.924682 0.108488
H106  H     H_    0.399727 0.848986 0.075325 0.108485
H107  H     H_    0.100272 0.348975 0.924682 0.108487
H108  H     H_    0.899727 0.348990 0.075326 0.108485
H109  H     H_    0.938010 0.205707 0.083345 0.108919
H110  H     H_    0.061983 0.205697 0.916661 0.108921
H111  H     H_    0.438011 0.705705 0.083345 0.108920
H112  H     H_    0.561985 0.705698 0.916661 0.108920
H113  H     H_    0.949612 0.181054 0.963021 0.120838
H114  H     H_    0.050371 0.181045 0.036983 0.120835
H115  H     H_    0.449614 0.681051 0.963021 0.120837
H116  H     H_    0.550371 0.681046 0.036983 0.120835
H117  H     H_    0.648152 0.100783 0.571844 0.106265
H118  H     H_    0.351854 0.100827 0.428146 0.106270
H119  H     H_    0.148152 0.600783 0.571844 0.106265
H120  H     H_    0.851854 0.600827 0.428146 0.106270
H121  H     H_    0.722517 0.867845 0.463507 0.109915
H122  H     H_    0.277492 0.867847 0.536493 0.109923
H123  H     H_    0.222517 0.367845 0.463507 0.109915
H124  H     H_    0.777492 0.367847 0.536493 0.109923
H125  H     H_    0.705009 0.923531 0.584340 0.104023
H126  H     H_    0.295002 0.923542 0.415662 0.104030
H127  H     H_    0.205009 0.423531 0.584340 0.104023
H128  H     H_    0.795002 0.423542 0.415662 0.104030
H129  H     H_    0.855366 0.090016 0.421743 0.122676
H130  H     H_    0.144633 0.089998 0.578253 0.122682
H131  H     H_    0.355366 0.590016 0.421743 0.122676
H132  H     H_    0.644633 0.589998 0.578253 0.122682
H133  H     H_    0.804560 0.221326 0.427643 0.104277
H134  H     H_    0.195435 0.221314 0.572355 0.104275
H135  H     H_    0.304560 0.721326 0.427643 0.104277
H136  H     H_    0.695435 0.721314 0.572355 0.104275
H137  H     H_    0.842515 0.219326 0.548149 0.113529
H138  H     H_    0.157488 0.219318 0.451850 0.113530
H139  H     H_    0.342515 0.719326 0.548149 0.113529
H140  H     H_    0.657488 0.719318 0.451850 0.113530
O1    O     O_R   0.957210 0.449410 0.665480 -0.533323
O2    O     O_R   0.042790 0.449410 0.334520 -0.533324
O3    O     O_R   0.457210 0.949410 0.665480 -0.533322
O4    O     O_R   0.542790 0.949410 0.334520 -0.533324
O5    O     O_R   0.736260 0.212010 0.826560 -0.509841
O6    O     O_R   0.263740 0.212010 0.173440 -0.509839
O7    O     O_R   0.236260 0.712010 0.826560 -0.509843
O8    O     O_R   0.763740 0.712010 0.173440 -0.509839
O9    O     O_R   0.832520 0.095300 0.836000 -0.533570
O10   O     O_R   0.167480 0.095300 0.164000 -0.533571
O11   O     O_R   0.332520 0.595300 0.836000 -0.533570
O12   O     O_R   0.667480 0.595300 0.164000 -0.533572
O13   O     O_R   0.946380 0.253940 0.826940 -0.512257
O14   O     O_R   0.053620 0.253940 0.173060 -0.512263
O15   O     O_R   0.446380 0.753940 0.826940 -0.512258
O16   O     O_R   0.553620 0.753940 0.173060 -0.512263
O17   O     O_3   0.834560 0.334570 0.748840 -0.270604
O18   O     O_3   0.165440 0.334570 0.251160 -0.270607
O19   O     O_3   0.334560 0.834570 0.748840 -0.270608
O20   O     O_3   0.665440 0.834570 0.251160 -0.270607
O21   O     O_R   0.820730 0.541240 0.668250 -0.514937
O22   O     O_R   0.179270 0.541240 0.331750 -0.514934
O23   O     O_R   0.320730 0.041240 0.668250 -0.514937
O24   O     O_R   0.679270 0.041240 0.331750 -0.514934
O25   O     O_R   0.714240 0.455060 0.663710 -0.532810
O26   O     O_R   0.285760 0.455060 0.336290 -0.532809
O27   O     O_R   0.214240 0.955060 0.663710 -0.532810
O28   O     O_R   0.785760 0.955060 0.336290 -0.532809
O29   O     O_R   0.736780 0.204870 0.675910 -0.515246
O30   O     O_R   0.263220 0.204870 0.324090 -0.515246
O31   O     O_R   0.236780 0.704870 0.675910 -0.515246
O32   O     O_R   0.763220 0.704870 0.324090 -0.515246
O33   O     O_R   0.833070 0.087590 0.673490 -0.530021
O34   O     O_R   0.166930 0.087590 0.326510 -0.530018
O35   O     O_R   0.333070 0.587590 0.673490 -0.530021
O36   O     O_R   0.666930 0.587590 0.326510 -0.530018
O37   O     O_R   0.946890 0.246800 0.676300 -0.512416
O38   O     O_R   0.053110 0.246800 0.323700 -0.512416
O39   O     O_R   0.446890 0.746800 0.676300 -0.512416
O40   O     O_R   0.553110 0.746800 0.323700 -0.512416
O41   O     O_R   0.956650 0.457120 0.827980 -0.531473
O42   O     O_R   0.043350 0.457120 0.172020 -0.531473
O43   O     O_R   0.456650 0.957120 0.827980 -0.531474
O44   O     O_R   0.543350 0.957120 0.172020 -0.531473
O45   O     O_R   0.820220 0.548390 0.818890 -0.509150
O46   O     O_R   0.179780 0.548390 0.181110 -0.509147
O47   O     O_R   0.320220 0.048390 0.818890 -0.509158
O48   O     O_R   0.679780 0.048390 0.181110 -0.509147
O49   O     O_R   0.713680 0.462770 0.826210 -0.532494
O50   O     O_R   0.286320 0.462770 0.173790 -0.532493
O51   O     O_R   0.213680 0.962770 0.826210 -0.532500
O52   O     O_R   0.786320 0.962770 0.173790 -0.532493
H141  H     H_    0.615772 0.783676 0.046587 0.112494
H142  H     H_    0.384221 0.783700 0.953426 0.112488
H143  H     H_    0.115772 0.283675 0.046587 0.112494
H144  H     H_    0.884220 0.283708 0.953426 0.112487

loop_
_geom_bond_atom_site_label_1
_geom_bond_atom_site_label_2
_ccdc_geom_bond_type
C58   C62   S    
C82   C94   S    
C119  H11   S    
C120  H12   S    
C45   O33   A    
C53   C69   S    
C104  O8    A    
C43   C63   S    
C44   C64   S    
C5    H133  S    
Cr6   O6    S    
C84   H115  S    
C80   H100  S    
C63   C98   S    
Cr2   O2    S    
C19   H127  S    
C35   C39   S    
C31   H40   S    
C28   C40   S    
C36   H36   S    
C30   C38   S    
Cr9   O33   S    
C56   C72   S    
C21   H5    S    
C8    H132  S    
C18   C118  S    
C81   C86   S    
C83   C88   S    
C87   H106  S    
C48   O32   A    
C74   H82   S    
C89   O1    A    
C41   C49   S    
C111  H3    S    
C54   H86   S    
Cr1   O45   S    
Cr2   O42   S    
C109  H1    S    
Cr4   O48   S    
C26   C38   S    
Cr10  O34   S    
C14   C114  S    
Cr11  O39   S    
C60   C76   S    
C24   H8    S    
Cr8   O52   S    
C69   H93   S    
C30   H37   S    
C6    C10   S    
C54   C70   S    
C48   O36   A    
C68   C72   S    
C23   H139  S    
C97   O45   A    
C13   C21   S    
C99   O47   A    
C79   H99   S    
C31   H25   S    
C64   C97   S    
C36   H29   S    
C15   C115  S    
C20   C120  S    
C1    O25   A    
C84   H142  S    
C77   H97   S    
C70   H94   S    
Cr4   O20   S    
C57   C61   S    
C82   C85   S    
Cr6   O50   S    
C59   C63   S    
Cr11  O19   S    
C60   C64   S    
Cr9   O13   S    
C13   C45   S    
C102  O6    A    
C78   C94   S    
C43   H51   S    
C95   C108  S    
C113  H89   S    
C62   C99   S    
C107  O43   A    
C5    C21   S    
C58   H70   S    
C110  H46   S    
C31   C36   S    
C47   O35   A    
C4    O28   A    
C55   C71   S    
C90   O38   A    
C54   H62   S    
Cr1   O21   S    
C80   H104  S    
Cr2   O18   S    
C65   C101  S    
Cr10  O14   S    
Cr3   O23   S    
Cr11  O11   S    
C67   C103  S    
C66   C70   S    
C37   C90   S    
C24   H140  S    
C73   H77   S    
Cr5   O17   S    
C115  H119  S    
C66   C74   S    
C113  H117  S    
C25   H17   S    
C57   C73   S    
C85   C93   S    
C60   H72   S    
C56   H88   S    
C55   C63   S    
C6    H134  S    
C56   C64   S    
C7    H131  S    
Cr7   O51   S    
C42   C62   S    
C78   H102  S    
C112  H48   S    
Cr5   O29   S    
C44   C52   S    
C70   H66   S    
Cr6   O18   S    
C1    C12   S    
C43   H43   S    
C112  H4    S    
C2    C11   S    
C77   H101  S    
Cr3   O3    S    
C53   H85   S    
C111  H47   S    
C6    H130  S    
C42   H42   S    
Cr9   O37   S    
C55   H87   S    
C25   C26   S    
C105  O13   A    
C107  O15   A    
C5    C9    S    
C108  O16   A    
C59   H71   S    
C93   C106  S    
C8    C12   S    
C90   O2    A    
C51   C67   S    
C7    H135  S    
C42   C50   S    
Cr2   O46   S    
Cr3   O43   S    
C110  H2    S    
C61   C100  S    
C67   C75   S    
C17   H125  S    
C91   O3    A    
C50   H54   S    
C112  C116  S    
C51   H59   S    
C58   C74   S    
Cr10  O38   S    
C59   H75   S    
C41   H41   S    
C81   H114  S    
C33   H33   S    
C44   H44   S    
C68   C76   S    
C13   C17   S    
C98   O46   A    
C85   H108  S    
C14   C22   S    
C3    O23   A    
C7    C23   S    
C8    C24   S    
C40   C91   S    
C101  O9    A    
Cr7   O27   S    
C46   O30   A    
C99   O51   A    
Cr8   O20   S    
C49   H53   S    
C57   H69   S    
C52   H56   S    
Cr7   O7    S    
C4    C9    S    
Cr4   O24   S    
Cr8   O8    S    
C86   H110  S    
C81   H143  S    
C5    H129  S    
C88   C96   S    
C94   C105  S    
C59   C75   S    
C83   H141  S    
C53   H61   S    
C12   C112  S    
C41   H49   S    
C21   H137  S    
C14   C46   S    
C77   C78   S    
C42   H50   S    
C15   C19   S    
C82   H144  S    
C115  H91   S    
C75   H79   S    
C101  O5    A    
C58   H74   S    
C6    C22   S    
C2    O22   A    
Cr11  O35   S    
C56   H64   S    
Cr8   O28   S    
Cr2   O22   S    
C103  O7    A    
Cr3   O19   S    
C46   O34   A    
C82   H113  S    
C17   C117  S    
C19   C119  S    
C27   H23   S    
C73   H81   S    
Cr12  O36   S    
C16   C116  S    
C9    C109  S    
C25   H21   S    
C26   H18   S    
C105  O41   A    
C60   H76   S    
C54   C62   S    
C18   H14   S    
Cr3   O47   S    
C29   C34   S    
C108  O44   A    
C33   C37   S    
C41   C61   S    
C116  H92   S    
C30   H28   S    
C79   C95   S    
Cr5   O25   S    
C76   H84   S    
Cr6   O30   S    
C85   H109  S    
C86   H107  S    
C114  H90   S    
Cr12  O12   S    
C32   H39   S    
C91   O39   A    
C100  O52   A    
C39   C92   S    
C27   H19   S    
C106  O14   A    
C14   C18   S    
C68   C104  S    
C119  H123  S    
C17   H13   S    
C88   H112  S    
C71   H67   S    
C1    O21   A    
C78   H98   S    
C22   H6    S    
Cr5   O49   S    
C19   H15   S    
C104  O12   A    
C43   C51   S    
Cr5   O5    S    
C65   C69   S    
C77   C93   S    
C10   C110  S    
C67   C71   S    
C50   H58   S    
Cr1   O1    S    
C18   H126  S    
C51   H55   S    
C3    O27   A    
C79   H103  S    
C109  H45   S    
C72   H96   S    
C29   C37   S    
C11   C111  S    
C34   H34   S    
C55   H63   S    
C9    C117  S    
C102  O10   A    
C117  H9    S    
C84   C87   S    
C15   C47   S    
C8    H136  S    
C11   C119  S    
C16   C48   S    
C29   H27   S    
C7    C11   S    
C38   C89   S    
C49   C65   S    
C74   H78   S    
C23   H7    S    
Cr7   O31   S    
Cr8   O32   S    
C49   H57   S    
Cr1   O41   S    
C114  H118  S    
C57   H73   S    
C65   C73   S    
C52   H60   S    
Cr4   O44   S    
C118  H122  S    
C25   C37   S    
C12   C120  S    
C27   C39   S    
C83   H116  S    
C35   H35   S    
Cr12  O20   S    
C29   H38   S    
C80   C96   S    
C86   C94   S    
C44   H52   S    
C52   C68   S    
C16   C20   S    
C22   H138  S    
C15   C23   S    
Cr9   O17   S    
C16   C24   S    
C69   H65   S    
C53   C61   S    
C2    O26   A    
C103  O11   A    
C32   H26   S    
C35   H30   S    
C117  H121  S    
C32   C35   S    
C36   C40   S    
C33   H32   S    
C34   H31   S    
C97   O49   A    
C66   C102  S    
Cr7   O19   S    
C116  H120  S    
C87   C95   S    
C120  H124  S    
C10   C118  S    
C72   H68   S    
C81   C93   S    
C87   H111  S    
C83   C95   S    
Cr10  O18   S    
C20   H16   S    
Cr12  O40   S    
Cr9   O9    S    
C50   C66   S    
C100  O48   A    
C20   H128  S    
C28   H20   S    
C45   O29   A    
C26   H22   S    
C92   O4    A    
C84   C96   S    
C106  O42   A    
C92   O40   A    
C110  C114  S    
C30   C33   S    
C34   C38   S    
C71   H95   S    
C96   C107  S    
C47   O31   A    
C4    O24   A    
C118  H10   S    
C89   O37   A    
Cr6   O26   S    
C109  C113  S    
Cr1   O17   S    
Cr10  O10   S    
C3    C10   S    
Cr11  O15   S    
Cr4   O4    S    
C76   H80   S    
Cr12  O16   S    
C88   H105  S    
C75   H83   S    
C31   C39   S    
C32   C40   S    
C79   C80   S    
C98   O50   A    
C27   C28   S    
C28   H24   S    
C111  C115  S    
C13   C113  S    
