data_mof_unit_56972.cif
_audit_creation_date              2012-10-26T21:02:28-0400
_audit_creation_method            fapswitch 2.2
_symmetry_space_group_name_H-M    P1
_symmetry_Int_Tables_number       1
_space_group_crystal_system       triclinic
_cell_length_a                    12.325738
_cell_length_b                    13.177749
_cell_length_c                    15.034727
_cell_angle_alpha                 77.290827
_cell_angle_beta                  101.037775
_cell_angle_gamma                 116.652071
_cell_volume                      2116.98935764

loop_
_atom_site_label
_atom_site_type_symbol
_atom_type_description
_atom_site_fract_x
_atom_site_fract_y
_atom_site_fract_z
_atom_type_partial_charge
C1    C     C_R   0.855075 0.286782 0.506198 0.520505
C2    C     C_R   0.887652 0.438847 0.809120 0.261939
C3    C     C_R   0.997652 0.497081 0.768336 0.001098
C4    C     C_R   0.998731 0.498550 0.671204 0.568805
C5    C     C_R   0.108478 0.550140 0.821295 -0.190582
C6    C     C_R   0.274657 0.024560 0.381334 -0.138731
C7    C     C_R   0.227916 0.835148 0.468187 -0.008021
C8    C     C_R   0.816034 0.083453 0.559382 -0.139478
C9    C     C_R   0.737198 0.968029 0.576144 -0.144990
C10   C     C_R   0.613371 0.931456 0.546980 -0.124905
C11   C     C_R   0.566297 0.009967 0.496243 0.029281
C12   C     C_R   0.112458 0.548671 0.101531 0.016880
C13   C     C_R   0.649658 0.125209 0.469825 0.025187
C14   C     C_R   0.439509 0.977449 0.469397 0.024880
C15   C     C_R   0.399406 0.056265 0.409289 0.046650
C16   C     C_R   0.145059 0.713526 0.486665 0.543819
C17   C     C_R   0.484355 0.164580 0.375529 -0.145516
C18   C     C_R   0.607659 0.197965 0.404060 -0.125738
C19   C     C_R   0.351004 0.868856 0.500845 -0.141727
C20   C     C_R   0.189292 0.913891 0.409740 -0.149483
C21   C     C_R   0.773155 0.163678 0.508939 -0.003804
C22   C     C_R   0.338004 0.317064 0.639588 0.244232
C23   C     C_R   0.777759 0.412428 0.030390 -0.151806
C24   C     C_R   0.761300 0.647745 0.376987 0.048780
C25   C     C_R   0.665582 0.680532 0.350657 -0.161200
C26   C     C_R   0.561087 0.624365 0.396571 -0.131826
C27   C     C_R   0.551029 0.534051 0.469885 -0.000328
C28   C     C_R   0.001047 0.500921 0.329042 0.545609
C29   C     C_R   0.651859 0.503887 0.494421 0.170092
C30   C     C_R   0.445457 0.472766 0.519800 -0.053538
C31   C     C_R   0.441728 0.380867 0.591136 0.025115
C32   C     C_R   0.541765 0.354209 0.613990 -0.141565
C33   C     C_R   0.644453 0.415078 0.567579 -0.081788
C34   C     C_R   0.776735 0.407815 0.938623 -0.132059
C35   C     C_R   0.342805 0.498545 0.502423 0.018019
C36   C     C_R   0.242537 0.350171 0.620657 0.069673
C37   C     C_R   0.112435 0.545755 0.194912 -0.137601
C38   C     C_R   0.001620 0.501441 0.232521 -0.007857
C39   C     C_R   0.890357 0.459093 0.177595 -0.135648
C40   C     C_R   0.888775 0.458175 0.084979 0.012990
C41   C     C_R   0.000119 0.503263 0.046549 0.063920
C42   C     C_3   0.290983 0.124548 0.672114 -0.006351
C43   C     C_3   0.151625 0.059672 0.667555 -0.275345
C44   C     C_3   0.106730 0.941491 0.639900 -0.467484
C45   C     C_R   0.886897 0.449615 0.899917 0.015536
C46   C     C_3   0.756378 0.251518 0.793533 -0.021104
C47   C     C_3   0.844114 0.214586 0.763958 -0.268354
C48   C     C_3   0.803046 0.084961 0.788089 -0.478854
C49   C     C_R   0.999076 0.501663 0.953372 0.016391
C50   C     C_R   0.110326 0.549912 0.914340 -0.002244
C51   C     C_R   0.221384 0.597609 0.968888 -0.123053
C52   C     C_R   0.222496 0.595847 0.062206 -0.131610
Cu1   Cu    Cu3+1 0.098270 0.475420 0.521130 0.913680
Cu2   Cu    Cu3+1 0.901730 0.524580 0.478870 0.922425
H1    H     H_    0.198134 0.579745 0.237979 0.111380
H2    H     H_    0.842118 0.691979 0.341090 0.126110
H3    H     H_    0.489768 0.653102 0.373059 0.096777
H4    H     H_    0.672403 0.749728 0.294455 0.101249
H5    H     H_    0.716768 0.389814 0.591774 0.223327
H6    H     H_    0.691737 0.378660 0.059013 0.112437
H7    H     H_    0.689495 0.371078 0.898116 0.156882
H8    H     H_    0.193302 0.590936 0.789958 0.126555
H9    H     H_    0.307350 0.634980 0.939601 0.109453
H10   H     H_    0.309264 0.631647 0.103535 0.105402
H11   H     H_    0.094059 0.888884 0.383747 0.123966
H12   H     H_    0.455464 0.223787 0.326450 0.108571
H13   H     H_    0.375347 0.807691 0.550233 0.117989
H14   H     H_    0.910211 0.110402 0.588619 0.119831
H15   H     H_    0.163670 0.304161 0.658696 0.129205
H16   H     H_    0.331905 0.069793 0.718698 0.151720
H17   H     H_    0.321631 0.138768 0.603314 0.126907
H18   H     H_    0.121878 0.049170 0.735587 0.174157
H19   H     H_    0.109504 0.109834 0.616289 0.144949
H20   H     H_    0.133482 0.950479 0.571231 0.163568
H21   H     H_    0.005628 0.897149 0.636899 0.149993
H22   H     H_    0.145805 0.888212 0.690659 0.150809
H23   H     H_    0.243596 0.084253 0.335218 0.110304
H24   H     H_    0.662387 0.199330 0.764292 0.143057
H25   H     H_    0.755793 0.230277 0.869321 0.131526
H26   H     H_    0.847887 0.240086 0.689061 0.180770
H27   H     H_    0.937374 0.257929 0.798791 0.155985
H28   H     H_    0.798315 0.057637 0.863137 0.147285
H29   H     H_    0.869547 0.061296 0.767553 0.145664
H30   H     H_    0.711908 0.038987 0.751273 0.156901
H31   H     H_    0.557736 0.840682 0.563202 0.106732
H32   H     H_    0.771607 0.906939 0.614883 0.118782
H33   H     H_    0.669372 0.280301 0.371331 0.149240
H34   H     H_    0.541555 0.285857 0.669137 0.163153
H35   H     H_    0.805059 0.424623 0.207560 0.114891
H36   H     H_    0.337370 0.566198 0.449171 0.128531
N1    N     N_R   0.246280 0.438190 0.553160 -0.268614
N2    N     N_R   0.754320 0.561190 0.447410 -0.240042
O1    O     O_R   0.972510 0.318130 0.526570 -0.509715
O2    O     O_3   0.782937 0.369009 0.760322 -0.597419
O3    O     O_R   0.806530 0.359650 0.490890 -0.534617
O4    O     O_R   0.082980 0.479210 0.647590 -0.514677
O5    O     O_R   0.917000 0.520730 0.611900 -0.481329
O6    O     O_R   0.193470 0.640350 0.509110 -0.507824
O7    O     O_R   0.027490 0.681870 0.473430 -0.507503
O8    O     O_R   0.083000 0.479270 0.388100 -0.499247
O9    O     O_R   0.917020 0.520790 0.352410 -0.514318
O10   O     O_3   0.332170 0.227123 0.709434 -0.591667

loop_
_geom_bond_atom_site_label_1
_geom_bond_atom_site_label_2
_ccdc_geom_bond_type
C43   H19   S    
C10   H31   S    
C1    C21   S    
C43   H18   S    
C29   C33   A    
C27   C29   A    
Cu2   O9    S    
Cu1   Cu2   S    
C26   C27   A    
C37   C38   A    
C13   C18   A    
C46   H25   S    
C11   C14   A    
C23   C40   A    
C32   H34   S    
C24   N2    A    
C42   H16   S    
C12   C37   A    
C44   H22   S    
C6    C15   A    
C4    O4    A    
C28   O9    A    
C47   C48   S    
C8    C9    A    
Cu1   N1    S    
Cu2   O5    S    
C19   H13   S    
C45   C49   A    
C9    C10   A    
C28   O8    A    
C2    C45   A    
C4    O5    A    
Cu1   O4    S    
C47   H26   S    
C42   O10   S    
C41   C49   A    
C12   C52   A    
C17   C18   A    
Cu1   O8    S    
C23   H6    S    
C22   C31   A    
Cu1   O1    S    
C51   C52   A    
C20   H11   S    
C2    O2    S    
C51   H9    S    
C24   C25   A    
C52   H10   S    
C39   C40   A    
C46   H24   S    
C6    H23   S    
C50   C51   A    
C25   C26   A    
C7    C20   A    
C34   H7    S    
C48   H30   S    
C44   H21   S    
C43   C44   S    
Cu2   N2    S    
C12   C41   A    
C9    H32   S    
C31   C32   A    
C46   O2    S    
C28   C38   S    
C30   C31   A    
C1    O3    A    
C23   C34   A    
C8    C21   A    
C17   H12   S    
C13   C21   A    
C34   C45   A    
C44   H20   S    
Cu2   O3    S    
C30   C35   A    
C36   N1    A    
C1    O1    A    
C7    C16   S    
C8    H14   S    
C7    C19   A    
Cu2   O7    S    
C25   H4    S    
C3    C4    S    
C6    C20   A    
C36   H15   S    
C15   C17   A    
C46   C47   S    
C40   C41   A    
C14   C19   A    
C3    C5    A    
C16   O7    A    
Cu1   O6    S    
C24   H2    S    
C22   C36   A    
C18   H33   S    
C22   O10   S    
C48   H29   S    
C32   C33   A    
C2    C3    A    
C11   C13   A    
C16   O6    A    
C38   C39   A    
C42   H17   S    
C48   H28   S    
C5    H8    S    
C47   H27   S    
C5    C50   A    
C26   H3    S    
C10   C11   A    
C37   H1    S    
C35   H36   S    
C33   H5    S    
C49   C50   A    
C42   C43   S    
C14   C15   A    
C39   H35   S    
C29   N2    A    
C27   C30   A    
C35   N1    A    
