data_mof_unit_49823.cif
_audit_creation_date              2012-12-10T16:54:02-0500
_audit_creation_method            fapswitch 2.2
_symmetry_space_group_name_H-M    P1
_symmetry_Int_Tables_number       1
_space_group_crystal_system       triclinic
_cell_length_a                    9.690041
_cell_length_b                    10.952759
_cell_length_c                    13.502066
_cell_angle_alpha                 90.365271
_cell_angle_beta                  73.411427
_cell_angle_gamma                 90.942024
_cell_volume                      1373.18020017

loop_
_atom_site_label
_atom_site_type_symbol
_atom_type_description
_atom_site_fract_x
_atom_site_fract_y
_atom_site_fract_z
_atom_type_partial_charge
C1    C     C_R   0.500940 0.734480 0.501492 0.840840
C2    C     C_R   0.450538 0.557024 0.974416 0.000858
C3    C     C_R   0.495198 0.555021 0.865053 0.014171
C4    C     C_R   0.554128 0.534244 0.028649 0.032567
C5    C     C_R   0.700685 0.515931 0.972669 0.037374
C6    C     C_R   0.745452 0.532908 0.865918 0.431456
C7    C     C_R   0.644663 0.562154 0.815185 -0.257176
C8    C     C_R   0.516240 0.525337 0.136656 -0.223415
C9    C     C_R   0.761730 0.478773 0.131455 -0.174435
C10   C     C_R   0.388906 0.547662 0.810142 -0.152319
C11   C     C_2   0.614736 0.068608 0.479321 -0.161163
C12   C     C_R   0.425562 0.514255 0.698850 0.819487
C13   C     C_2   0.500966 0.135340 0.479740 -0.354691
C14   C     C_2   0.611592 0.936785 0.461787 0.171947
C15   C     C_2   0.499950 0.865615 0.517426 0.037499
C16   C     C_2   0.061559 0.584296 0.544738 -0.035585
C17   C     C_2   0.908912 0.588682 0.538081 -0.073766
C18   C     C_R   0.500446 0.265771 0.495481 0.869383
C19   C     C_R   0.576280 0.499177 0.300612 0.799569
C20   C     C_R   0.801445 0.484369 0.024508 -0.116601
C21   C     C_R   0.619488 0.501010 0.187883 -0.069719
C22   C     C_R   0.245326 0.572658 0.863224 -0.313402
C23   C     C_R   0.205970 0.600893 0.968926 0.535679
C24   C     C_R   0.305182 0.584657 0.024631 -0.232175
Cu1   Cu    Cu3+1 0.361370 0.499980 0.499980 0.932430
Cu2   Cu    Cu3+1 0.638630 0.500020 0.500020 0.928950
H1    H     H_    0.842236 0.456904 0.169850 0.171850
H2    H     H_    0.406880 0.093543 0.464257 0.163892
H3    H     H_    0.096705 0.656472 0.587740 0.165138
H4    H     H_    0.122507 0.437242 0.455260 0.190661
H5    H     H_    0.847581 0.669306 0.568519 0.149003
H6    H     H_    0.901621 0.422164 0.477781 0.189695
H7    H     H_    0.911763 0.464830 0.982436 0.202968
H8    H     H_    0.406747 0.536509 0.182953 0.156175
H9    H     H_    0.164273 0.572338 0.822320 0.201802
H10   H     H_    0.265929 0.600211 0.106673 0.148232
H11   H     H_    0.688479 0.594863 0.737519 0.194018
H12   H     H_    0.713888 0.110946 0.486048 0.165255
N1    N     N_2   0.152660 0.501340 0.501130 -0.297363
N2    N     N_2   0.846520 0.501370 0.501160 -0.291863
O1    O     O_R   0.382960 0.678040 0.499980 -0.578160
O2    O     O_R   0.617100 0.678080 0.500020 -0.590227
O3    O     O_R   0.325800 0.499940 0.650950 -0.578727
O4    O     O_R   0.559930 0.499980 0.650990 -0.586586
O5    O     O_R   0.382900 0.321920 0.499980 -0.581951
O6    O     O_R   0.617040 0.321960 0.500020 -0.580572
O7    O     O_R   0.440070 0.500020 0.349010 -0.584125
O8    O     O_R   0.674200 0.500060 0.349050 -0.573570
C25   C     C_3   0.737139 0.886091 0.378226 -0.849703
H13   H     H_    0.806196 0.960787 0.333893 0.225083
H14   H     H_    0.805620 0.830066 0.412942 0.245775
H15   H     H_    0.697518 0.830165 0.322757 0.226248
C26   C     C_3   0.380001 0.912644 0.607630 -0.911691
H16   H     H_    0.330787 0.837176 0.661499 0.223182
H17   H     H_    0.421665 0.981172 0.653307 0.248376
H18   H     H_    0.293175 0.952116 0.579898 0.235715
O9    O     O_3   0.889745 0.529948 0.811301 -0.611535
C27   C     C_3   0.918561 0.414173 0.764235 -0.355565
H19   H     H_    0.035123 0.409713 0.723184 0.214212
H20   H     H_    0.893243 0.339637 0.822650 0.153685
H21   H     H_    0.858365 0.398950 0.706194 0.186107
O10   O     O_3   0.067491 0.634377 0.022392 -0.594610
C28   C     C_3   0.029642 0.741145 0.978934 -0.318622
H22   H     H_    0.004684 0.720692 0.905190 0.192597
H23   H     H_    0.114817 0.813597 0.967397 0.152915
H24   H     H_    0.930366 0.777812 0.033253 0.194521

loop_
_geom_bond_atom_site_label_1
_geom_bond_atom_site_label_2
_ccdc_geom_bond_type
C11   H12   S    
C2    C4    A    
C23   C24   A    
C28   H23   S    
C13   H2    S    
C6    C7    A    
C1    C15   S    
Cu1   O5    S    
Cu1   O7    S    
C9    C20   A    
Cu2   O8    S    
C4    C8    A    
C25   H15   S    
C9    C21   A    
Cu1   O3    S    
C27   H21   S    
H6    N2    S    
C2    C3    A    
C7    H11   S    
C28   H24   S    
Cu2   O4    S    
C12   O4    A    
C3    C10   A    
C8    H8    S    
C26   H16   S    
C10   C22   A    
C22   H9    S    
C11   C13   D    
C6    O9    S    
Cu2   N2    S    
O9    C27   S    
C24   H10   S    
C10   C12   S    
C13   C18   S    
C20   H7    S    
C18   O6    A    
C1    O1    A    
C19   C21   S    
H4    N1    S    
C8    C21   A    
C12   O3    A    
C3    C7    A    
C26   H17   S    
Cu2   O2    S    
C2    C24   A    
C5    C6    A    
C17   H5    S    
C11   C14   S    
C19   O7    A    
C27   H19   S    
C14   C25   S    
Cu2   O6    S    
C16   N1    D    
C27   H20   S    
C28   H22   S    
C18   O5    A    
C15   C26   S    
C1    O2    A    
C9    H1    S    
C16   H3    S    
C25   H13   S    
C26   H18   S    
Cu1   O1    S    
C5    C20   A    
C22   C23   A    
C16   C17   S    
C19   O8    A    
Cu1   Cu2   S    
C14   C15   D    
C23   O10   S    
Cu1   N1    S    
O10   C28   S    
C4    C5    A    
C25   H14   S    
C17   N2    D    
