data_mof_unit_37330.cif
_audit_creation_date              2013-03-05T15:57:42-0500
_audit_creation_method            fapswitch 2.2
_symmetry_space_group_name_H-M    P1
_symmetry_Int_Tables_number       1
_space_group_crystal_system       triclinic
_cell_length_a                    19.381152
_cell_length_b                    17.721187
_cell_length_c                    12.624125
_cell_angle_alpha                 91.334285
_cell_angle_beta                  98.673534
_cell_angle_gamma                 89.903645
_cell_volume                      4285.08856741

loop_
_atom_site_label
_atom_site_type_symbol
_atom_site_description
_atom_site_fract_x
_atom_site_fract_y
_atom_site_fract_z
_atom_type_partial_charge
O1    O     O_R   0.448200 0.076800 0.373930 -0.614448
O2    O     O_R   0.448200 0.923200 0.373930 -0.618257
O3    O     O_R   0.948200 0.576800 0.373930 -0.614442
O4    O     O_R   0.948200 0.423200 0.373930 -0.618252
O5    O     O_R   0.414750 0.076790 0.542400 -0.612828
O6    O     O_R   0.414750 0.923210 0.542400 -0.628315
O7    O     O_R   0.914750 0.576790 0.542400 -0.612822
O8    O     O_R   0.914750 0.423210 0.542400 -0.628320
C1    C     C_R   0.406906 0.097979 0.442035 0.850884
C2    C     C_R   0.412285 0.895838 0.443996 0.827468
C3    C     C_R   0.906906 0.597980 0.442036 0.850866
C4    C     C_R   0.912278 0.395844 0.443991 0.827451
Zn1   Zn    Zn3+2 0.522330 1.000000 0.387520 0.918497
Zn2   Zn    Zn3+2 0.022330 0.500000 0.387520 0.918508
Zn3   Zn    Zn3+2 0.477660 0.000000 0.612480 0.940897
Zn4   Zn    Zn3+2 0.977660 0.500000 0.612480 0.940836
O9    O     O_R   0.585240 0.923200 0.457600 -0.623136
O10   O     O_R   0.585240 0.076800 0.457600 -0.610922
O11   O     O_R   0.085240 0.423200 0.457600 -0.623121
O12   O     O_R   0.085240 0.576800 0.457600 -0.610911
O13   O     O_R   0.551780 0.923190 0.626070 -0.595029
O14   O     O_R   0.551780 0.076810 0.626070 -0.593322
O15   O     O_R   0.051780 0.423190 0.626070 -0.595094
O16   O     O_R   0.051780 0.576810 0.626070 -0.593323
C5    C     C_R   0.584725 0.893346 0.551744 0.886184
C6    C     C_R   0.589382 0.102680 0.557021 0.906571
C7    C     C_R   0.084728 0.393348 0.551745 0.886285
C8    C     C_R   0.089386 0.602678 0.557022 0.906592
C9    C     C_R   0.744407 0.190742 0.725045 -0.312697
C10   C     C_R   0.659240 0.711882 0.677145 -0.338823
C11   C     C_R   0.244412 0.690739 0.725065 -0.312639
C12   C     C_R   0.159294 0.211915 0.677181 -0.338570
H1    H     H_    0.374306 0.741846 0.749255 0.149757
H2    H     H_    0.227711 0.080578 0.669398 0.147694
H3    H     H_    0.874296 0.241838 0.749214 0.149759
H4    H     H_    0.727667 0.580547 0.669346 0.147689
H5    H     H_    0.770080 0.192390 0.807566 0.167384
H6    H     H_    0.664062 0.680929 0.750763 0.140502
H7    H     H_    0.270076 0.692398 0.807590 0.167446
H8    H     H_    0.164137 0.180998 0.750832 0.140664
C13   C     C_R   0.644458 0.157653 0.593722 -0.205950
C14   C     C_R   0.618408 0.819344 0.568843 -0.177861
C15   C     C_R   0.144470 0.657644 0.593726 -0.206070
C16   C     C_R   0.118423 0.319353 0.568849 -0.177957
C17   C     C_R   0.340301 0.821077 0.300094 -0.192861
C18   C     C_R   0.357459 0.198310 0.321538 -0.192876
C19   C     C_R   0.840269 0.321115 0.300077 -0.192858
C20   C     C_R   0.857473 0.698331 0.321568 -0.192887
C21   C     C_R   0.288524 0.767692 0.267676 -0.157375
C22   C     C_R   0.309965 0.256112 0.296031 -0.163607
C23   C     C_R   0.788480 0.267743 0.267654 -0.157373
C24   C     C_R   0.809986 0.756140 0.296073 -0.163611
C25   C     C_R   0.257478 0.730576 0.344291 -0.194996
C26   C     C_R   0.254813 0.265952 0.353621 -0.188319
C27   C     C_R   0.757436 0.230621 0.344266 -0.195015
C28   C     C_R   0.754828 0.765974 0.353653 -0.188326
C29   C     C_R   0.279441 0.745206 0.454760 0.110588
C30   C     C_R   0.243025 0.214293 0.432791 0.104899
C31   C     C_R   0.779409 0.245234 0.454736 0.110577
C32   C     C_R   0.743028 0.714302 0.432802 0.104882
C33   C     C_R   0.341511 0.786264 0.485588 0.083757
C34   C     C_R   0.288807 0.152703 0.453926 0.082652
C35   C     C_R   0.841485 0.286282 0.485561 0.083836
C36   C     C_R   0.788807 0.652709 0.453931 0.082657
C37   C     C_R   0.743131 0.218984 0.535928 0.053847
C38   C     C_R   0.691942 0.726865 0.500279 0.054193
C39   C     C_R   0.243156 0.718964 0.535947 0.053852
C40   C     C_R   0.191951 0.226866 0.500285 0.054239
C41   C     C_R   0.778408 0.217110 0.643170 0.062877
C42   C     C_R   0.694153 0.685314 0.594580 0.092937
C43   C     C_R   0.278423 0.717101 0.643196 0.062774
C44   C     C_R   0.194186 0.185333 0.594607 0.092811
C45   C     C_R   0.346308 0.744727 0.668422 -0.213546
C46   C     C_R   0.231344 0.117981 0.603926 -0.209313
C47   C     C_R   0.846293 0.244729 0.668387 -0.213621
C48   C     C_R   0.731314 0.617962 0.603892 -0.209298
C49   C     C_R   0.377219 0.780213 0.590944 -0.208459
C50   C     C_R   0.274454 0.099234 0.528912 -0.210254
C51   C     C_R   0.877200 0.280217 0.590909 -0.208614
C52   C     C_R   0.774445 0.599231 0.528899 -0.210281
C53   C     C_R   0.672165 0.197864 0.515727 0.079090
C54   C     C_R   0.641160 0.782364 0.480242 0.056156
C55   C     C_R   0.172189 0.697846 0.515733 0.079105
C56   C     C_R   0.141166 0.282365 0.480248 0.056179
C57   C     C_R   0.676723 0.162213 0.701333 0.437261
C58   C     C_R   0.623793 0.781662 0.667651 0.427843
C59   C     C_R   0.176728 0.662210 0.701341 0.437369
C60   C     C_R   0.123831 0.281678 0.667663 0.427641
C61   C     C_R   0.365889 0.832127 0.409551 -0.118428
C62   C     C_R   0.349146 0.148486 0.403563 -0.113727
C63   C     C_R   0.865867 0.332147 0.409533 -0.118432
C64   C     C_R   0.849150 0.648495 0.403574 -0.113723
H9    H     H_    0.359718 0.854144 0.239739 0.155880
H10   H     H_    0.402776 0.195106 0.280801 0.160107
H11   H     H_    0.859686 0.354186 0.239727 0.155872
H12   H     H_    0.902794 0.695131 0.280839 0.160102
H13   H     H_    0.717332 0.189780 0.316169 0.154423
H14   H     H_    0.724292 0.816456 0.338940 0.151804
H15   H     H_    0.217380 0.689729 0.316199 0.154417
H16   H     H_    0.224274 0.316431 0.338899 0.151801
H17   H     H_    0.270363 0.757356 0.183220 0.146266
H18   H     H_    0.318213 0.296128 0.235620 0.142602
H19   H     H_    0.770312 0.257420 0.183197 0.146249
H20   H     H_    0.818242 0.796167 0.235679 0.142586
H21   H     H_    0.429742 0.801542 0.613804 0.177921
H22   H     H_    0.298624 0.044351 0.533182 0.162761
H23   H     H_    0.929725 0.301539 0.613758 0.177762
H24   H     H_    0.798620 0.544350 0.533171 0.162767
C65   C     C_R   0.642878 0.999505 0.128393 -0.267802
C66   C     C_R   0.142878 0.499543 0.128394 -0.267969
H25   H     H_    0.698158 0.999894 0.122457 0.198495
H26   H     H_    0.198157 0.499943 0.122456 0.198407
N1    N     N_R   0.552340 1.000000 0.237260 -0.103543
N2    N     N_R   0.052340 0.500000 0.237260 -0.103550
C67   C     C_R   0.378486 0.992438 0.762352 0.012783
C68   C     C_R   0.878486 0.492433 0.762352 0.012715
C69   C     C_R   0.352012 0.986162 0.858396 0.170834
C70   C     C_R   0.852012 0.486165 0.858396 0.170869
C71   C     C_R   0.398392 0.988889 0.954212 -0.187695
C72   C     C_R   0.898392 0.488903 0.954212 -0.187692
C73   C     C_R   0.470974 0.995336 0.953316 -0.031798
C74   C     C_R   0.970973 0.495357 0.953318 -0.031754
C75   C     C_R   0.494649 0.998941 0.853109 0.101844
C76   C     C_R   0.994648 0.498962 0.853110 0.101610
C77   C     C_R   0.520938 0.996874 0.047071 -0.062283
C78   C     C_R   0.020938 0.496897 0.047073 -0.062184
C79   C     C_R   0.593139 0.997749 0.037441 -0.012710
C80   C     C_R   0.093138 0.497791 0.037444 -0.012751
C81   C     C_R   0.615302 0.996729 0.937160 0.428114
C82   C     C_R   0.115299 0.496792 0.937162 0.428147
C83   C     C_R   0.565667 0.999516 0.846507 -0.163620
C84   C     C_R   0.065667 0.499549 0.846510 -0.163441
C85   C     C_R   0.502334 0.998416 0.150541 -0.064058
C86   C     C_R   0.002334 0.498422 0.150542 -0.064080
C87   C     C_R   0.622292 0.000306 0.228354 0.323784
C88   C     C_R   0.122292 0.500318 0.228354 0.323866
N3    N     N_R   0.448170 0.000000 0.762060 -0.138741
N4    N     N_R   0.948170 0.500000 0.762060 -0.138794
H27   H     H_    0.449068 0.999159 0.165239 0.131078
H28   H     H_    0.949067 0.499154 0.165242 0.131073
H29   H     H_    0.343866 0.988829 0.687155 0.132241
H30   H     H_    0.843867 0.488818 0.687154 0.132274
H31   H     H_    0.376405 0.983364 0.027147 0.140792
H32   H     H_    0.876403 0.483383 0.027148 0.140780
H33   H     H_    0.584153 0.003148 0.771685 0.236228
H34   H     H_    0.084160 0.503160 0.771688 0.236293
O17   O     O_3   0.641764 0.141338 0.783732 -0.580243
C89   C     C_3   0.614877 0.207753 0.826739 0.130137
H35   H     H_    0.577559 0.236385 0.764525 0.132988
H36   H     H_    0.657640 0.247788 0.858970 0.128096
C90   C     C_3   0.576138 0.188382 0.918688 -0.810829
H37   H     H_    0.611343 0.158295 0.981400 0.265100
H38   H     H_    0.557784 0.241028 0.954809 0.197142
H39   H     H_    0.530026 0.152737 0.888824 0.253942
O18   O     O_3   0.596183 0.815056 0.752916 -0.624116
C91   C     C_3   0.558827 0.762492 0.805215 0.082536
H40   H     H_    0.595488 0.729566 0.862799 0.142803
H41   H     H_    0.526652 0.723448 0.747071 0.138626
C92   C     C_3   0.509938 0.804800 0.869057 -0.832046
H42   H     H_    0.472691 0.839217 0.814740 0.262668
H43   H     H_    0.480026 0.764026 0.909901 0.201840
H44   H     H_    0.540505 0.842186 0.930620 0.251133
O19   O     O_3   0.141760 0.641353 0.783737 -0.580128
C93   C     C_3   0.114817 0.707771 0.826649 0.130110
H45   H     H_    0.077465 0.736321 0.764396 0.132998
H46   H     H_    0.157544 0.747870 0.858802 0.128082
C94   C     C_3   0.076113 0.688430 0.918647 -0.810776
H47   H     H_    0.111347 0.658397 0.981383 0.265127
H48   H     H_    0.057736 0.741085 0.954716 0.197132
H49   H     H_    0.030018 0.652745 0.888850 0.253920
O20   O     O_3   0.096227 0.315029 0.752947 -0.624124
C95   C     C_3   0.058483 0.262515 0.804672 0.082950
H50   H     H_    0.094861 0.229169 0.862060 0.142822
H51   H     H_    0.026177 0.223857 0.746142 0.138416
C96   C     C_3   0.009732 0.304899 0.868666 -0.832140
H52   H     H_    0.972628 0.339548 0.814482 0.262668
H53   H     H_    0.979651 0.264170 0.909287 0.201746
H54   H     H_    0.040409 0.342057 0.930400 0.251294
O21   O     O_3   0.685699 0.001993 0.928900 -0.599987
C97   C     C_3   0.707300 0.935624 0.879251 0.137121
H55   H     H_    0.686721 0.934243 0.792089 0.171092
H56   H     H_    0.690133 0.883977 0.917046 0.158234
C98   C     C_3   0.786528 0.934745 0.891474 -0.851856
H57   H     H_    0.809059 0.935088 0.977795 0.249917
H58   H     H_    0.804146 0.883065 0.851919 0.212892
H59   H     H_    0.805477 0.985125 0.853590 0.264370
O22   O     O_3   0.185684 0.502119 0.928878 -0.599861
C99   C     C_3   0.207371 0.435640 0.879618 0.136759
H60   H     H_    0.186585 0.433849 0.792542 0.171532
H61   H     H_    0.190481 0.384112 0.917987 0.157802
C100  C     C_3   0.286581 0.435045 0.891357 -0.851820
H62   H     H_    0.309333 0.435989 0.977580 0.250155
H63   H     H_    0.304273 0.383190 0.852332 0.212881
H64   H     H_    0.305221 0.485221 0.852668 0.264265
C101  C     C_3   0.275414 0.974763 0.859591 -0.972448
H65   H     H_    0.246002 0.969467 0.777198 0.233249
H66   H     H_    0.267170 0.922197 0.902270 0.248185
H67   H     H_    0.254342 0.023366 0.901595 0.247844
C102  C     C_3   0.775415 0.474763 0.859592 -0.972450
H68   H     H_    0.746003 0.469459 0.777200 0.233253
H69   H     H_    0.767173 0.422201 0.902280 0.248176
H70   H     H_    0.754340 0.523370 0.901587 0.247829
C103  C     C_3   0.621069 0.231370 0.425785 -0.879127
H71   H     H_    0.570833 0.244706 0.454388 0.226810
H72   H     H_    0.640521 0.285673 0.399523 0.240833
H73   H     H_    0.609793 0.191402 0.356433 0.258092
C104  C     C_3   0.597750 0.784272 0.369211 -0.830413
H74   H     H_    0.541291 0.785160 0.376250 0.238822
H75   H     H_    0.610000 0.834036 0.323780 0.256929
H76   H     H_    0.606513 0.732885 0.320903 0.225958
C105  C     C_3   0.121104 0.731351 0.425778 -0.879104
H77   H     H_    0.070863 0.744692 0.454366 0.226798
H78   H     H_    0.140561 0.785652 0.399518 0.240830
H79   H     H_    0.109832 0.691382 0.356427 0.258096
C106  C     C_3   0.097744 0.284262 0.369228 -0.830489
H80   H     H_    0.041287 0.285149 0.376284 0.238808
H81   H     H_    0.109986 0.334023 0.323786 0.256942
H82   H     H_    0.106504 0.232871 0.320926 0.225974
C107  C     C_3   0.680939 0.001399 0.321427 -0.869409
H83   H     H_    0.665706 0.998549 0.400557 0.295877
H84   H     H_    0.715817 0.952497 0.313508 0.200751
H85   H     H_    0.712048 0.053757 0.319964 0.214337
C108  C     C_3   0.180939 0.501389 0.321427 -0.869398
H86   H     H_    0.165706 0.498546 0.400557 0.295881
H87   H     H_    0.215802 0.452475 0.313501 0.200761
H88   H     H_    0.212064 0.553736 0.319969 0.214313

loop_
_geom_bond_atom_site_label_1
_geom_bond_atom_site_label_2
_geom_bond_distance
_ccdc_geom_bond_type
C30   C34   1.410197 A    
C59   O19   1.381770 S    
C103  H71   1.111534 S    
C67   H29   1.077346 S    
C39   C55   1.410098 A    
C27   C31   1.413410 A    
C65   C87   1.379429 A    
C71   H31   1.077787 S    
C4    C63   1.461167 S    
C66   C88   1.379425 A    
O17   C89   1.415999 S    
C72   H32   1.077791 S    
C89   C90   1.520265 S    
C28   H14   1.076043 S    
C106  H80   1.111179 S    
C17   H9    1.083294 S    
C19   H11   1.083294 S    
C69   C71   1.393893 A    
C79   C81   1.396581 A    
C108  H88   1.109411 S    
C96   H53   1.110243 S    
C35   C51   1.410013 A    
C87   C107  1.506348 S    
C25   H15   1.077281 S    
O7    C3    1.316547 A    
C14   C54   1.410182 A    
C81   O21   1.387397 S    
C76   C84   1.391510 A    
C22   C26   1.389021 A    
Zn1   O10   1.935396 S    
C99   C100  1.519964 S    
C76   N4    1.349665 A    
C91   H40   1.111904 S    
C89   H36   1.114738 S    
C98   H58   1.110744 S    
C86   H28   1.076103 S    
C95   H50   1.111582 S    
C37   C41   1.422774 A    
C39   C43   1.422772 A    
C107  H84   1.110088 S    
C23   H19   1.082652 S    
C12   C60   1.412212 A    
C20   H12   1.083422 S    
C15   C55   1.399674 A    
C84   H34   1.062892 S    
C10   H6    1.081986 S    
C99   H61   1.115807 S    
C90   H39   1.108626 S    
O2    Zn1   1.966536 S    
C45   C49   1.384806 A    
O13   C5    1.313110 A    
H4    C48   1.081981 S    
C65   H25   1.085252 S    
O6    Zn3   1.935275 S    
C3    C64   1.463918 S    
C65   C79   1.383186 A    
Zn3   O14   1.966516 S    
C24   H20   1.082769 S    
O19   C93   1.415991 S    
C2    C61   1.461160 S    
C33   C61   1.406987 A    
C67   C69   1.392767 A    
O10   C6    1.317183 A    
C85   H27   1.076104 S    
C102  H70   1.110269 S    
C20   C64   1.403980 A    
C90   H37   1.110015 S    
C92   H43   1.110400 S    
C41   C47   1.393028 A    
C14   C58   1.418458 A    
O15   C7    1.313116 A    
C10   C58   1.412339 A    
O11   C7    1.313524 A    
C9    C57   1.393824 A    
C95   C96   1.519594 S    
C40   C44   1.409472 A    
C101  H67   1.110270 S    
C11   C43   1.396394 A    
C32   C38   1.414330 A    
C102  H68   1.110161 S    
O8    Zn4   1.935275 S    
C60   O20   1.392017 S    
N1    C85   1.348037 A    
C90   H38   1.110344 S    
C36   C52   1.411885 A    
C26   H16   1.076047 S    
C29   C39   1.414901 A    
C70   C102  1.500949 S    
C7    C16   1.469806 S    
C54   C104  1.523182 S    
C10   C42   1.398123 A    
C95   H51   1.116085 S    
C32   C36   1.410194 A    
C96   H54   1.110019 S    
C68   N4    1.357987 A    
C71   C73   1.413304 A    
C66   H26   1.085254 S    
C103  H73   1.108995 S    
Zn3   O13   1.968702 S    
C11   C59   1.393839 A    
C104  H74   1.111179 S    
C40   C56   1.390430 A    
Zn2   O12   1.935396 S    
O1    C1    1.308461 A    
C89   H35   1.115076 S    
C108  H86   1.085796 S    
C12   C44   1.398049 A    
C68   C70   1.392763 A    
C106  H82   1.111250 S    
C33   C49   1.410046 A    
C107  H83   1.085796 S    
C43   C45   1.393068 A    
C25   C29   1.413410 A    
C82   O22   1.387326 S    
C19   C23   1.389544 A    
C101  H65   1.110162 S    
O12   C8    1.317187 A    
Zn2   N2    2.066227 S    
C100  H62   1.110828 S    
C94   H48   1.110357 S    
C99   H60   1.111986 S    
C74   C78   1.411473 A    
C82   C84   1.381221 A    
C98   H57   1.111040 S    
C100  H63   1.110644 S    
C105  H77   1.111536 S    
O5    C1    1.316559 A    
C69   C101  1.500950 S    
C104  H76   1.111254 S    
C97   C98   1.520026 S    
C103  H72   1.109892 S    
C37   C53   1.410086 A    
C92   H42   1.109950 S    
C18   H10   1.083419 S    
C17   C21   1.389537 A    
O8    C4    1.317169 A    
O5    Zn3   1.961188 S    
C13   C53   1.399669 A    
C27   H13   1.077283 S    
C108  H87   1.110084 S    
C52   H24   1.077762 S    
N2    C86   1.348031 A    
C92   H44   1.110135 S    
C51   H23   1.081641 S    
C58   O18   1.392177 S    
O20   C95   1.414993 S    
O3    Zn2   1.968720 S    
H2    C46   1.081979 S    
C68   H30   1.077352 S    
C94   H49   1.108601 S    
C44   C46   1.391093 A    
O7    Zn4   1.961188 S    
C105  H78   1.109891 S    
Zn1   N1    2.066227 S    
C73   C77   1.411468 A    
C22   H18   1.082767 S    
Zn4   O15   1.968702 S    
N1    C87   1.377234 A    
C9    H5    1.084421 S    
C31   C35   1.405907 A    
C98   H59   1.111151 S    
O4    C4    1.307211 A    
C67   N3    1.357986 A    
C36   C64   1.413941 A    
C1    C62   1.463921 S    
C74   C76   1.412043 A    
O2    C2    1.307222 A    
Zn3   N3    2.053760 S    
C94   H47   1.110000 S    
C17   C61   1.405230 A    
C97   H55   1.112127 S    
C72   C74   1.413306 A    
O16   C8    1.308624 A    
C102  H69   1.110589 S    
C21   H17   1.082653 S    
C26   C30   1.414701 A    
H1    C45   1.083376 S    
C18   C22   1.386725 A    
C93   H45   1.115054 S    
C78   C80   1.422888 A    
C97   H56   1.115921 S    
C75   C83   1.391506 A    
C31   C37   1.414913 A    
C19   C63   1.405227 A    
Zn2   O11   1.961312 S    
C34   C50   1.411876 A    
C91   C92   1.519639 S    
Zn4   N4    2.053760 S    
H3    C47   1.083347 S    
C104  H75   1.108298 S    
C16   C56   1.410170 A    
C80   C82   1.396568 A    
C5    C14   1.469810 S    
O6    C2    1.317156 A    
C48   C52   1.388652 A    
C56   C106  1.523158 S    
C29   C33   1.405909 A    
C18   C62   1.403981 A    
C13   C57   1.407807 A    
C75   N3    1.349670 A    
C8    C15   1.461690 S    
C77   C85   1.406172 A    
C49   H21   1.081668 S    
Zn1   O9    1.961312 S    
C50   H22   1.077760 S    
C15   C59   1.407815 A    
C93   H46   1.114730 S    
C57   O17   1.381782 S    
C100  H64   1.110954 S    
O9    C5    1.313537 A    
O22   C99   1.412206 S    
C96   H52   1.109837 S    
C53   C103  1.520766 S    
C107  H85   1.109416 S    
C42   C48   1.391111 A    
C30   C40   1.414307 A    
C38   C42   1.409458 A    
C88   C108  1.506349 S    
C24   C28   1.389026 A    
C21   C25   1.391626 A    
C34   C62   1.413909 A    
C91   H41   1.116297 S    
C93   C94   1.520256 S    
C11   H7    1.084421 S    
C83   H33   1.062864 S    
C23   C27   1.391633 A    
C12   H8    1.081995 S    
O4    Zn2   1.966536 S    
C70   C72   1.393895 A    
C73   C75   1.412044 A    
C106  H81   1.108294 S    
O3    C3    1.308478 A    
O14   C6    1.308610 A    
O21   C97   1.412311 S    
C28   C32   1.414702 A    
C20   C24   1.386719 A    
C105  H79   1.108995 S    
O1    Zn1   1.968720 S    
C78   C86   1.406163 A    
Zn4   O16   1.966516 S    
C46   C50   1.388629 A    
C35   C63   1.406968 A    
O18   C91   1.415225 S    
C77   C79   1.422890 A    
N2    C88   1.377236 A    
C9    C41   1.396384 A    
C101  H66   1.110589 S    
C16   C60   1.418446 A    
C47   C51   1.384779 A    
C55   C105  1.520770 S    
C38   C54   1.390403 A    
C6    C13   1.461648 S    
C66   C80   1.383177 A    
C81   C83   1.381287 A    
