data_mof_unit_47905.cif
_audit_creation_date              2012-12-11T14:54:38-0500
_audit_creation_method            fapswitch 2.2
_symmetry_space_group_name_H-M    P1
_symmetry_Int_Tables_number       1
_space_group_crystal_system       triclinic
_cell_length_a                    18.82008
_cell_length_b                    11.005761
_cell_length_c                    18.737739
_cell_angle_alpha                 89.924172
_cell_angle_beta                  89.905422
_cell_angle_gamma                 90.024523
_cell_volume                      3881.12576342

loop_
_atom_site_label
_atom_site_type_symbol
_atom_type_description
_atom_site_fract_x
_atom_site_fract_y
_atom_site_fract_z
_atom_type_partial_charge
C1    C     C_R   0.731648 0.381982 0.647459 0.528469
C2    C     C_R   0.321727 0.926755 0.471237 -0.136364
C3    C     C_R   0.979737 0.549224 0.469364 -0.155418
C4    C     C_R   0.837947 0.112714 0.407736 0.053557
C5    C     C_R   0.906945 0.130921 0.434733 -0.121688
C6    C     C_R   0.958178 0.191572 0.393892 -0.150455
C7    C     C_R   0.941466 0.233193 0.325532 -0.091383
C8    C     C_R   0.873103 0.216335 0.298398 -0.063829
C9    C     C_R   0.820935 0.159715 0.339971 -0.048842
C10   C     C_R   0.166834 0.119987 0.595203 0.051626
C11   C     C_R   0.184807 0.158327 0.664569 -0.041301
C12   C     C_R   0.134062 0.214148 0.708128 -0.055841
C13   C     C_R   0.178306 0.426770 0.528788 -0.136258
C14   C     C_R   0.066256 0.238991 0.681677 -0.078383
C15   C     C_R   0.048995 0.207642 0.611649 -0.144071
C16   C     C_R   0.099080 0.149282 0.568446 -0.132164
C17   C     C_R   0.333188 0.619928 0.404432 0.052428
C18   C     C_R   0.315038 0.658318 0.335060 -0.042424
C19   C     C_R   0.365671 0.714245 0.291299 -0.057445
C20   C     C_R   0.433541 0.739179 0.317558 -0.077087
C21   C     C_R   0.450983 0.707763 0.387583 -0.143517
C22   C     C_R   0.401024 0.649220 0.430977 -0.132079
C23   C     C_R   0.662350 0.613012 0.592088 0.053466
C24   C     C_R   0.818621 0.418988 0.470063 -0.137313
C25   C     C_R   0.593404 0.631421 0.565003 -0.121827
C26   C     C_R   0.542143 0.691828 0.605801 -0.150555
C27   C     C_R   0.558792 0.733072 0.674195 -0.091114
C28   C     C_R   0.627120 0.716079 0.701403 -0.063463
C29   C     C_R   0.679310 0.659675 0.659878 -0.048659
C30   C     C_R   0.688530 0.892143 0.457771 -0.158967
C31   C     C_R   0.313440 0.896715 0.543055 -0.157883
C32   C     C_R   0.186573 0.396637 0.457015 -0.157806
C33   C     C_R   0.811401 0.391981 0.542255 -0.158835
C34   C     C_R   0.743995 0.943754 0.418081 0.015478
C35   C     C_R   0.257204 0.946288 0.582533 0.005928
C36   C     C_R   0.242841 0.446129 0.417442 0.006296
C37   C     C_R   0.268186 0.382198 0.352558 0.518550
C38   C     C_R   0.756080 0.443875 0.581905 0.015754
C39   C     C_R   0.784797 0.039944 0.448754 -0.004586
C40   C     C_R   0.217424 0.044451 0.552500 -0.013422
C41   C     C_R   0.282695 0.544265 0.447331 -0.013032
C42   C     C_R   0.715458 0.540269 0.551157 -0.004817
C43   C     C_R   0.777339 0.063794 0.521471 -0.128744
C44   C     C_R   0.224125 0.067794 0.479330 -0.136395
C45   C     C_R   0.276087 0.567569 0.520491 -0.136797
C46   C     C_R   0.722976 0.564188 0.478421 -0.128695
C47   C     C_R   0.728705 0.999485 0.563002 0.014056
C48   C     C_R   0.231817 0.882272 0.647451 0.521328
C49   C     C_R   0.272750 0.003646 0.437584 0.005029
C50   C     C_R   0.227377 0.503542 0.562352 0.004253
C51   C     C_R   0.771399 0.499559 0.436945 0.014252
C52   C     C_R   0.535485 0.060221 0.972631 -0.126488
C53   C     C_R   0.527534 0.064541 0.045411 -0.137848
C54   C     C_R   0.038563 0.562053 0.973284 -0.122098
C55   C     C_R   0.029892 0.566438 0.046055 -0.133510
C56   C     C_R   0.499747 0.168804 0.077070 0.029713
C57   C     C_R   0.518406 0.161736 0.930442 0.034926
C58   C     C_R   0.999893 0.669369 0.077159 0.029494
C59   C     C_R   0.768358 0.881920 0.352550 0.528455
C60   C     C_R   0.019277 0.661898 0.930667 0.035888
C61   C     C_R   0.486727 0.273486 0.035912 -0.129557
C62   C     C_R   0.496496 0.270056 0.962476 -0.136449
C63   C     C_R   0.985165 0.772907 0.035565 -0.137598
C64   C     C_R   0.995130 0.769191 0.962191 -0.148194
C65   C     C_R   0.534031 0.154290 0.645206 0.541139
C66   C     C_R   0.468610 0.154905 0.352989 0.538386
C67   C     C_R   0.031376 0.654962 0.647012 0.541097
C68   C     C_R   0.965930 0.654223 0.354811 0.538322
C69   C     C_R   0.795788 0.011651 0.971101 -0.129029
C70   C     C_3   0.457854 0.374559 0.462595 -0.259684
C71   C     C_R   0.182495 0.932580 0.043721 -0.137829
C72   C     C_R   0.287118 0.526675 0.973627 -0.125393
C73   C     C_R   0.703548 0.510256 0.029012 -0.124927
C74   C     C_R   0.795464 0.003313 0.044038 -0.138502
C75   C     C_R   0.177519 0.923697 0.970853 -0.126601
C76   C     C_R   0.287697 0.513667 0.046541 -0.138214
C77   C     C_R   0.703802 0.502120 0.956080 -0.132908
C78   C     C_R   0.750065 0.920751 0.077663 0.032894
C79   C     C_R   0.237943 0.896063 0.929701 0.035365
C80   C     C_R   0.248789 0.419937 0.077983 0.027966
C81   C     C_3   0.464361 0.371557 0.543087 -0.286602
C82   C     C_R   0.749787 0.420771 0.922348 0.032148
C83   C     C_R   0.699333 0.856212 0.037919 -0.138112
C84   C     C_R   0.302742 0.871025 0.962776 -0.147320
C85   C     C_R   0.203540 0.346832 0.036514 -0.137645
C86   C     C_R   0.801231 0.357647 0.961974 -0.130039
C87   C     C_R   0.698031 0.867748 0.964150 -0.146805
C88   C     C_R   0.308061 0.882048 0.036265 -0.139766
C89   C     C_R   0.202043 0.361362 0.963045 -0.150647
C90   C     C_R   0.802837 0.369532 0.035725 -0.135291
C91   C     C_R   0.747466 0.943656 0.930428 0.037461
C92   C     C_3   0.036287 0.871116 0.456445 -0.286567
C93   C     C_R   0.248392 0.917975 0.076387 0.026991
C94   C     C_R   0.245758 0.448674 0.931302 0.034283
C95   C     C_R   0.752641 0.443712 0.069586 0.035972
C96   C     C_R   0.726678 0.021639 0.640081 0.571111
C97   C     C_R   0.273676 0.022802 0.359818 0.569885
C98   C     C_R   0.226374 0.522792 0.640113 0.570366
C99   C     C_R   0.773366 0.521648 0.359855 0.571167
C100  C     C_R   0.730674 0.379848 0.851691 0.544049
C101  C     C_R   0.269223 0.379619 0.148321 0.544316
C102  C     C_R   0.227776 0.873691 0.854532 0.544451
C103  C     C_3   0.042883 0.874127 0.536921 -0.259592
C104  C     C_R   0.769293 0.879937 0.148331 0.543494
C105  C     C_R   0.535539 0.156207 0.855286 0.550900
C106  C     C_R   0.468726 0.157621 0.147364 0.550525
C107  C     C_R   0.035843 0.656192 0.855420 0.549622
C108  C     C_R   0.968735 0.657686 0.147372 0.549914
C109  C     C_R   0.740731 0.974181 0.855709 0.553432
C110  C     C_R   0.258211 0.968784 0.146620 0.553677
C111  C     C_R   0.240268 0.475859 0.856193 0.551979
C112  C     C_R   0.759308 0.474337 0.144274 0.554915
C113  C     C_R   0.503914 0.161189 0.421492 0.021451
C114  C     C_R   0.681276 0.919278 0.529921 -0.136920
C115  C     C_R   0.514972 0.157684 0.570505 0.021588
C116  C     C_R   0.984911 0.657556 0.429525 0.022019
C117  C     C_R   0.996009 0.661353 0.578530 0.020876
C118  C     C_R   0.507446 0.269428 0.460373 0.013592
C119  C     C_R   0.514328 0.267736 0.533853 0.032948
C120  C     C_R   0.985940 0.767718 0.465926 0.033618
C121  C     C_R   0.992861 0.769517 0.539395 0.013208
C122  C     C_R   0.519730 0.049214 0.530910 -0.155501
C123  C     C_R   0.517511 0.051521 0.457189 -0.154274
C124  C     C_R   0.981983 0.551701 0.543092 -0.154125
Cr1   Cr    Cr6+3 0.771950 0.169480 0.750100 0.999423
Cr2   Cr    Cr6+3 0.383410 0.010620 0.249390 0.983481
Cr3   Cr    Cr6+3 0.116590 0.510620 0.750610 0.983336
Cr4   Cr    Cr6+3 0.883410 0.510620 0.249390 0.985725
Cr5   Cr    Cr6+3 0.228050 0.169480 0.249900 0.997556
Cr6   Cr    Cr6+3 0.271950 0.669480 0.750100 0.998561
Cr7   Cr    Cr6+3 0.728050 0.669480 0.249900 0.998613
Cr8   Cr    Cr6+3 0.614930 0.323340 0.749170 1.020099
Cr9   Cr    Cr6+3 0.385070 0.323340 0.250830 1.010287
Cr10  Cr    Cr6+3 0.114930 0.823340 0.749170 1.008049
Cr11  Cr    Cr6+3 0.885070 0.823340 0.250830 1.015310
Cr12  Cr    Cr6+3 0.616590 0.010620 0.750610 0.982531
H1    H     H_    0.524751 0.961506 0.556584 0.137936
H2    H     H_    0.125753 0.937631 0.947009 0.137781
H3    H     H_    0.322127 0.571891 0.077792 0.121591
H4    H     H_    0.664288 0.553279 0.926637 0.123622
H5    H     H_    0.663343 0.792666 0.063299 0.117351
H6    H     H_    0.349010 0.845014 0.931908 0.117746
H7    H     H_    0.172939 0.273618 0.060071 0.135397
H8    H     H_    0.837651 0.295065 0.936522 0.120659
H9    H     H_    0.658884 0.817726 0.933674 0.105881
H10   H     H_    0.359639 0.869972 0.060855 0.131586
H11   H     H_    0.167882 0.303806 0.931135 0.112703
H12   H     H_    0.518250 0.965347 0.429321 0.133964
H13   H     H_    0.842716 0.320925 0.066081 0.114077
H14   H     H_    0.010123 0.952547 0.433792 0.151947
H15   H     H_    0.097237 0.851037 0.555371 0.176859
H16   H     H_    0.403422 0.352050 0.444151 0.177797
H17   H     H_    0.490795 0.452723 0.565629 0.152149
H18   H     H_    0.483061 0.455040 0.437517 0.147784
H19   H     H_    0.414232 0.344953 0.570501 0.146473
H20   H     H_    0.086304 0.844020 0.429026 0.145813
H21   H     H_    0.017983 0.954807 0.561908 0.148243
H22   H     H_    0.640510 0.873806 0.560370 0.150502
H23   H     H_    0.980928 0.465603 0.571178 0.134092
H24   H     H_    0.364345 0.885791 0.441297 0.157981
H25   H     H_    0.135594 0.386023 0.558775 0.158131
H26   H     H_    0.859171 0.373112 0.439623 0.150262
H27   H     H_    0.653558 0.825284 0.434283 0.111566
H28   H     H_    0.348437 0.829677 0.566431 0.115054
H29   H     H_    0.151488 0.329695 0.433735 0.114783
H30   H     H_    0.846225 0.324902 0.565800 0.111860
H31   H     H_    0.810604 0.131361 0.546423 0.117168
H32   H     H_    0.191099 0.135647 0.454286 0.119108
H33   H     H_    0.309195 0.635385 0.545408 0.118615
H34   H     H_    0.974406 0.461516 0.443873 0.137914
H35   H     H_    0.689870 0.631963 0.453392 0.117446
H36   H     H_    0.555643 0.976850 0.949634 0.136487
H37   H     H_    0.538832 0.983498 0.076308 0.124600
H38   H     H_    0.060756 0.479947 0.950561 0.139173
H39   H     H_    0.042545 0.486476 0.077386 0.126239
H40   H     H_    0.465016 0.355179 0.059627 0.136781
H41   H     H_    0.485648 0.350339 0.930808 0.123445
H42   H     H_    0.961814 0.853630 0.058858 0.134819
H43   H     H_    0.982645 0.848347 0.930155 0.118284
H44   H     H_    0.921664 0.096075 0.486713 0.098140
H45   H     H_    0.833349 0.073911 0.946932 0.127122
H46   H     H_    0.011119 0.205061 0.414885 0.095597
H47   H     H_    0.981422 0.278791 0.293653 0.109868
H48   H     H_    0.860244 0.248440 0.245367 0.118509
H49   H     H_    0.768025 0.148333 0.318321 0.101296
H50   H     H_    0.237129 0.140033 0.686020 0.100414
H51   H     H_    0.147557 0.239059 0.762279 0.113897
H52   H     H_    0.027308 0.283368 0.715263 0.108680
H53   H     H_    0.996642 0.227729 0.590899 0.094214
H54   H     H_    0.083914 0.123807 0.514888 0.093443
H55   H     H_    0.262667 0.639951 0.313754 0.097056
H56   H     H_    0.135719 0.958500 0.073896 0.127191
H57   H     H_    0.352045 0.739126 0.237138 0.109821
H58   H     H_    0.472403 0.783647 0.283818 0.106608
H59   H     H_    0.503392 0.727892 0.408172 0.093866
H60   H     H_    0.416338 0.623649 0.484518 0.093511
H61   H     H_    0.578731 0.596894 0.512986 0.097890
H62   H     H_    0.489237 0.705441 0.584738 0.095703
H63   H     H_    0.518820 0.778508 0.706034 0.111313
H64   H     H_    0.639934 0.747928 0.754451 0.118609
H65   H     H_    0.732183 0.648159 0.681589 0.101851
H66   H     H_    0.318830 0.598977 0.950607 0.137151
H67   H     H_    0.665454 0.571330 0.053243 0.128375
H68   H     H_    0.834468 0.055351 0.073594 0.120272
O1    O     O_R   0.787510 0.042610 0.670410 -0.515988
O2    O     O_R   0.454250 0.051070 0.169440 -0.529278
O3    O     O_R   0.045750 0.551070 0.830560 -0.530936
O4    O     O_R   0.954250 0.551070 0.169440 -0.524252
O5    O     O_R   0.681210 0.959150 0.825320 -0.514771
O6    O     O_R   0.318790 0.959150 0.174680 -0.513225
O7    O     O_R   0.181210 0.459150 0.825320 -0.514920
O8    O     O_R   0.818790 0.459150 0.174680 -0.509353
O9    O     O_3   0.667820 0.167810 0.749960 -0.262104
O10   O     O_3   0.332180 0.167810 0.250040 -0.257571
O11   O     O_3   0.167820 0.667810 0.749960 -0.263344
O12   O     O_R   0.212490 0.042610 0.329590 -0.521883
O13   O     O_3   0.832180 0.667810 0.250040 -0.259882
O14   O     O_R   0.765670 0.292090 0.675090 -0.527094
O15   O     O_R   0.234330 0.292090 0.324910 -0.524524
O16   O     O_R   0.265670 0.792090 0.675090 -0.522504
O17   O     O_R   0.734330 0.792090 0.324910 -0.527602
O18   O     O_R   0.670220 0.409020 0.668560 -0.504389
O19   O     O_R   0.329780 0.409020 0.331440 -0.517515
O20   O     O_R   0.170220 0.909020 0.668560 -0.515864
O21   O     O_R   0.829780 0.909020 0.331440 -0.503877
O22   O     O_R   0.556580 0.251590 0.674980 -0.490091
O23   O     O_R   0.287510 0.542610 0.670410 -0.518817
O24   O     O_R   0.443420 0.251590 0.325020 -0.500675
O25   O     O_R   0.056580 0.751590 0.674980 -0.498958
O26   O     O_R   0.943420 0.751590 0.325020 -0.491266
O27   O     O_R   0.545890 0.049670 0.670030 -0.539696
O28   O     O_R   0.454110 0.049670 0.329970 -0.539914
O29   O     O_R   0.045890 0.549670 0.670030 -0.538050
O30   O     O_R   0.954110 0.549670 0.329970 -0.541702
O31   O     O_R   0.681340 0.957860 0.676500 -0.508227
O32   O     O_R   0.318660 0.957860 0.323500 -0.503881
O33   O     O_R   0.181340 0.457860 0.676500 -0.502364
O34   O     O_R   0.712490 0.542610 0.329590 -0.516397
O35   O     O_R   0.818660 0.457860 0.323500 -0.508702
O36   O     O_R   0.787380 0.044010 0.830940 -0.522813
O37   O     O_R   0.212620 0.044010 0.169060 -0.519545
O38   O     O_R   0.287380 0.544010 0.830940 -0.521984
O39   O     O_R   0.712620 0.544010 0.169060 -0.522826
O40   O     O_R   0.765540 0.293390 0.823910 -0.508186
O41   O     O_R   0.234460 0.293390 0.176090 -0.506321
O42   O     O_R   0.265540 0.793390 0.823910 -0.506810
O43   O     O_R   0.734460 0.793390 0.176090 -0.508417
O44   O     O_R   0.670090 0.410410 0.829090 -0.526158
O45   O     O_R   0.556450 0.252890 0.823790 -0.496944
O46   O     O_R   0.329910 0.410410 0.170910 -0.525861
O47   O     O_R   0.170090 0.910410 0.829090 -0.530965
O48   O     O_R   0.829910 0.910410 0.170910 -0.529336
O49   O     O_R   0.443550 0.252890 0.176210 -0.500048
O50   O     O_R   0.056450 0.752890 0.823790 -0.502203
O51   O     O_R   0.943550 0.752890 0.176210 -0.503409
O52   O     O_R   0.545750 0.051070 0.830560 -0.532176

loop_
_geom_bond_atom_site_label_1
_geom_bond_atom_site_label_2
_ccdc_geom_bond_type
C44   C49   A    
C47   C114  A    
C57   C105  S    
Cr12  O31   S    
C7    C8    A    
C104  O48   A    
C66   C113  S    
C87   C91   A    
C11   H50   S    
C30   C114  A    
C13   C32   A    
C83   C87   A    
C19   C20   A    
C102  O42   A    
Cr9   O24   S    
Cr11  O48   S    
C108  O4    A    
C101  O41   A    
C85   H7    S    
C62   H41   S    
Cr6   O42   S    
C53   H37   S    
C90   C95   A    
C98   O33   A    
Cr5   O41   S    
C52   C53   A    
Cr4   O35   S    
C73   H67   S    
C26   C27   A    
C28   H64   S    
C63   H42   S    
C74   H68   S    
C6    H46   S    
Cr8   O18   S    
Cr9   O10   S    
C112  O8    A    
C67   O25   A    
C36   C37   S    
C117  C124  A    
Cr2   O2    S    
C98   O23   A    
C59   O21   A    
C9    H49   S    
C3    C116  A    
C54   H38   S    
C42   C46   A    
C5    C6    A    
C23   C29   A    
C109  O36   A    
Cr7   O34   S    
C15   C16   A    
Cr11  O13   S    
C124  H23   S    
C66   O28   A    
C94   C111  S    
C89   C94   A    
Cr11  O21   S    
C81   H17   S    
C46   H35   S    
Cr1   O40   S    
C10   C40   S    
C18   C19   A    
C44   H32   S    
Cr10  O25   S    
C60   C107  S    
Cr5   O10   S    
C70   C81   S    
C117  C121  A    
C118  C119  A    
C114  H22   S    
Cr3   O3    S    
C95   C112  S    
C59   O17   A    
C92   C103  S    
C88   C93   A    
C99   O34   A    
Cr1   O9    S    
C78   C83   A    
C112  O39   A    
C67   O29   A    
Cr2   O28   S    
C101  O46   A    
C8    C9    A    
Cr11  O26   S    
C47   C96   S    
C77   H4    S    
C79   C102  S    
C1    O14   A    
C71   H56   S    
Cr2   O10   S    
C40   C44   A    
C107  O3    A    
C100  O40   A    
C72   C76   A    
C93   C110  S    
C72   C94   A    
Cr1   O14   S    
C8    H48   S    
C24   C51   A    
C15   H53   S    
C115  C122  A    
C21   C22   A    
Cr4   O30   S    
C65   C115  S    
C106  O49   A    
C22   H60   S    
C36   C41   A    
C110  O6    A    
C61   H40   S    
Cr10  O47   S    
C67   C117  S    
C90   H13   S    
C109  O5    A    
C35   C48   S    
C31   H28   S    
C20   H58   S    
C68   O26   A    
Cr8   O45   S    
C111  O7    A    
C122  C123  A    
C51   C99   S    
Cr12  O27   S    
C24   H26   S    
C18   H55   S    
Cr3   O29   S    
C29   H65   S    
C30   C34   A    
C86   H8    S    
C34   C39   A    
C76   C80   A    
C57   C62   A    
C70   H16   S    
Cr10  O50   S    
C92   H20   S    
C86   C90   A    
C50   C98   S    
Cr9   O49   S    
C83   H5    S    
C64   H43   S    
C85   C89   A    
Cr2   O6    S    
C103  H21   S    
C54   C60   A    
C48   O20   A    
C25   C26   A    
C82   C86   A    
C97   O32   A    
C78   C104  S    
C46   C51   A    
C97   O12   A    
Cr10  O11   S    
C113  C118  A    
C107  O50   A    
C2    C31   A    
C30   H27   S    
C13   C50   A    
C5    H44   S    
C80   C85   A    
C100  O44   A    
C2    C49   A    
Cr8   O22   S    
C14   H52   S    
C113  C123  A    
C4    C39   S    
C84   H6    S    
C104  O43   A    
C56   C106  S    
C20   C21   A    
C14   C15   A    
C17   C18   A    
C120  C121  A    
C27   H63   S    
Cr6   O11   S    
Cr7   O17   S    
C41   C45   A    
C21   H59   S    
Cr6   O16   S    
C23   C42   S    
C55   H39   S    
Cr1   O36   S    
C68   O30   A    
C102  O47   A    
C68   C116  S    
C1    C38   S    
Cr3   O7    S    
C12   C14   A    
Cr6   O23   S    
C19   H57   S    
C111  O38   A    
C115  C119  A    
C10   C11   A    
C108  O51   A    
C92   H14   S    
C34   C59   S    
C31   C35   A    
C75   C79   A    
C73   C95   A    
C13   H25   S    
C103  C121  S    
C32   C36   A    
C32   H29   S    
C69   C74   A    
Cr2   O32   S    
C3    C124  A    
C33   H30   S    
C72   H66   S    
Cr12  O9    S    
C48   O16   A    
C53   C56   A    
C58   C63   A    
C89   H11   S    
C54   C55   A    
C28   C29   A    
C88   H10   S    
C87   H9    S    
C70   H18   S    
C82   C100  S    
Cr12  O52   S    
Cr8   O44   S    
C84   C88   A    
C122  H1    S    
C63   C64   A    
C75   H2    S    
C45   H33   S    
C106  O2    A    
C39   C43   A    
C11   C12   A    
C3    H34   S    
Cr3   O33   S    
C6    C7    A    
C71   C93   A    
C103  H15   S    
C81   C119  S    
Cr10  O20   S    
C17   C22   A    
C81   H19   S    
C60   C64   A    
C80   C101  S    
Cr7   O13   S    
Cr4   O13   S    
C91   C109  S    
Cr5   O12   S    
C35   C40   A    
C92   C120  S    
C99   O35   A    
Cr5   O15   S    
C10   C16   A    
Cr7   O43   S    
C65   O27   A    
C71   C75   A    
C43   H31   S    
C12   H51   S    
C110  O37   A    
Cr3   O11   S    
C96   O1    A    
C79   C84   A    
Cr5   O37   S    
C77   C82   A    
C70   C118  S    
Cr6   O38   S    
C16   H54   S    
Cr1   O1    S    
C52   H36   S    
Cr9   O19   S    
C96   O31   A    
C65   O22   A    
C58   C108  S    
C7    H47   S    
C23   C25   A    
C61   C62   A    
C26   H62   S    
C17   C41   S    
Cr8   O9    S    
C49   C97   S    
C25   H61   S    
C52   C57   A    
C105  O45   A    
Cr12  O5    S    
C38   C42   A    
C116  C120  A    
C4    C5    A    
C123  H12   S    
C76   H3    S    
C73   C77   A    
C2    H24   S    
C74   C78   A    
C55   C58   A    
C66   O24   A    
C27   C28   A    
C37   O19   A    
C37   O15   A    
C56   C61   A    
C1    O18   A    
C33   C38   A    
Cr7   O39   S    
C45   C50   A    
Cr4   O4    S    
C105  O52   A    
Cr11  O51   S    
C4    C9    A    
C69   C91   A    
C43   C47   A    
Cr9   O46   S    
Cr4   O8    S    
C24   C33   A    
C69   H45   S    
