data_mof_unit_42864.cif
_audit_creation_date              2013-03-05T15:49:33-0500
_audit_creation_method            fapswitch 2.2
_symmetry_space_group_name_H-M    P1
_symmetry_Int_Tables_number       1
_space_group_crystal_system       triclinic
_cell_length_a                    25.117512
_cell_length_b                    7.240531
_cell_length_c                    21.897694
_cell_angle_alpha                 90.006666
_cell_angle_beta                  110.277063
_cell_angle_gamma                 90.005957
_cell_volume                      3735.60626639

loop_
_atom_site_label
_atom_site_type_symbol
_atom_site_description
_atom_site_fract_x
_atom_site_fract_y
_atom_site_fract_z
_atom_type_partial_charge
O1    O     O_R   0.554350 0.505270 0.581390 -0.580429
O2    O     O_R   0.445650 0.005270 0.418610 -0.580518
O3    O     O_R   0.553380 0.177580 0.454800 -0.594434
O4    O     O_R   0.446620 0.677580 0.545200 -0.594435
C1    C     C_R   0.565905 0.344374 0.438397 0.937013
C2    C     C_R   0.434094 0.844374 0.561602 0.937042
O5    O     O_R   0.560970 0.175640 0.583140 -0.579346
O6    O     O_R   0.439030 0.675640 0.416860 -0.579294
O7    O     O_R   0.453290 0.004120 0.547860 -0.591748
O8    O     O_R   0.546710 0.504120 0.452140 -0.591743
C3    C     C_R   0.576067 0.344015 0.607576 0.896946
C4    C     C_R   0.423929 0.843974 0.392423 0.896937
O9    O     O_3   0.464660 0.338800 0.488280 -0.278054
O10   O     O_3   0.535340 0.838800 0.511720 -0.278055
V1    V     V_3+5 0.506560 0.064420 0.502170 1.177018
V2    V     V_3+5 0.493440 0.564420 0.497830 1.177070
C5    C     C_R   0.146490 0.960014 0.290493 -0.107152
C6    C     C_R   0.853612 0.457490 0.709480 -0.107322
H1    H     H_    0.132577 0.971384 0.331842 0.204706
H2    H     H_    0.867555 0.467803 0.668126 0.204650
C7    C     C_R   0.119983 0.941476 0.173333 -0.196119
C8    C     C_R   0.880029 0.441223 0.826669 -0.196077
C9    C     C_R   0.396071 0.820709 0.273406 -0.163132
C10   C     C_R   0.603840 0.322646 0.726626 -0.163319
C11   C     C_R   0.356463 0.822729 0.210669 -0.091615
C12   C     C_R   0.643417 0.325456 0.789377 -0.091558
C13   C     C_R   0.299210 0.853951 0.200114 -0.164262
C14   C     C_R   0.700706 0.355926 0.799917 -0.164247
C15   C     C_R   0.279717 0.884566 0.252701 0.109426
C16   C     C_R   0.720270 0.384899 0.747298 0.109333
C17   C     C_R   0.320852 0.883146 0.317139 0.049104
C18   C     C_R   0.679175 0.382532 0.682840 0.049076
C19   C     C_R   0.220860 0.914139 0.243383 0.083736
C20   C     C_R   0.779158 0.413803 0.756607 0.083750
C21   C     C_R   0.204527 0.941316 0.298951 -0.077016
C22   C     C_R   0.795558 0.439326 0.701014 -0.077188
C23   C     C_R   0.246183 0.944736 0.362127 0.350114
C24   C     C_R   0.753953 0.441602 0.637808 0.350397
C25   C     C_R   0.303086 0.913168 0.370337 -0.313151
C26   C     C_R   0.697015 0.410806 0.629606 -0.312938
C27   C     C_R   0.177415 0.916755 0.180712 -0.250357
C28   C     C_R   0.822569 0.417280 0.819294 -0.250349
C29   C     C_R   0.104799 0.961144 0.228737 0.307671
C30   C     C_R   0.895271 0.459397 0.771255 0.307633
C31   C     C_R   0.379268 0.851172 0.327067 -0.128886
C32   C     C_R   0.620719 0.351430 0.672931 -0.128697
H3    H     H_    0.186621 0.901101 0.136476 0.105463
H4    H     H_    0.813320 0.402740 0.863541 0.105393
H5    H     H_    0.440282 0.795257 0.280195 0.105611
H6    H     H_    0.559594 0.297946 0.719851 0.105564
H7    H     H_    0.271377 0.852201 0.150084 0.109636
H8    H     H_    0.728508 0.354952 0.849963 0.109624
H9    H     H_    0.370249 0.799137 0.169631 0.120021
H10   H     H_    0.629575 0.303156 0.830442 0.120021
H11   H     H_    0.333803 0.915805 0.419336 0.152750
H12   H     H_    0.666344 0.412580 0.580574 0.152201
C33   C     C_R   0.110530 0.772339 0.869097 -0.110116
C34   C     C_R   0.889361 0.272255 0.130772 -0.109788
H13   H     H_    0.088411 0.648281 0.874260 0.168546
H14   H     H_    0.911402 0.148130 0.125517 0.168372
C35   C     C_R   0.145281 0.764242 0.831120 -0.112377
C36   C     C_R   0.854610 0.264154 0.168747 -0.112409
H15   H     H_    0.149100 0.634158 0.808564 0.137905
H16   H     H_    0.850715 0.134008 0.191212 0.137724
C37   C     C_R   0.175302 0.920890 0.823116 0.109805
C38   C     C_R   0.824682 0.420880 0.176865 0.109887
C39   C     C_R   0.169473 0.086316 0.853894 -0.117870
C40   C     C_R   0.830602 0.586385 0.146198 -0.117877
H17   H     H_    0.191874 0.209676 0.848604 0.125139
H18   H     H_    0.808275 0.709804 0.151579 0.125146
C41   C     C_R   0.133924 0.095317 0.891082 -0.135506
C42   C     C_R   0.866153 0.595386 0.109013 -0.135777
H19   H     H_    0.130126 0.225521 0.913564 0.136292
H20   H     H_    0.870026 0.725653 0.086624 0.136338
C43   C     C_R   0.103994 0.938213 0.899318 -0.134390
C44   C     C_R   0.895995 0.438209 0.100669 -0.134388
N1    N     N_R   0.254846 0.035369 0.790838 -0.062025
N2    N     N_R   0.745211 0.535524 0.209239 -0.061984
N3    N     N_R   0.289368 0.021389 0.756450 -0.051218
N4    N     N_R   0.710691 0.521543 0.243630 -0.051107
C45   C     C_R   0.283234 0.882009 0.712836 0.219415
C46   C     C_R   0.716759 0.382002 0.287155 0.219362
N5    N     N_R   0.240061 0.760209 0.704167 0.001344
N6    N     N_R   0.759866 0.260036 0.295734 0.001419
N7    N     N_R   0.205851 0.773088 0.738865 -0.039521
N8    N     N_R   0.794073 0.272912 0.261032 -0.039518
C47   C     C_R   0.212657 0.910297 0.783249 0.102597
C48   C     C_R   0.787331 0.410286 0.216737 0.102521
C49   C     C_R   0.329974 0.698079 0.644996 0.396686
C50   C     C_R   0.670006 0.198078 0.354983 0.397200
C51   C     C_R   0.365376 0.694256 0.607267 -0.214784
C52   C     C_R   0.634606 0.194258 0.392715 -0.213830
H21   H     H_    0.370691 0.565016 0.585119 0.169601
H22   H     H_    0.629285 0.065022 0.414854 0.169472
C53   C     C_R   0.394945 0.852421 0.599561 -0.165812
C54   C     C_R   0.605052 0.352421 0.400437 -0.166359
C55   C     C_R   0.388004 0.016643 0.630086 -0.116707
C56   C     C_R   0.612002 0.516634 0.369923 -0.117594
H23   H     H_    0.410349 0.141170 0.625819 0.137198
H24   H     H_    0.589664 0.641158 0.374199 0.137399
C57   C     C_R   0.352718 0.022451 0.667400 -0.085175
C58   C     C_R   0.647285 0.522437 0.332606 -0.085427
H25   H     H_    0.348896 0.151510 0.690261 0.195578
H26   H     H_    0.651109 0.651488 0.309751 0.195744
C59   C     C_R   0.322540 0.865489 0.674971 -0.072307
C60   C     C_R   0.677453 0.365482 0.325022 -0.072427
O11   O     O_R   0.953220 0.285790 0.047790 -0.586281
O12   O     O_R   0.046780 0.785790 0.952210 -0.586412
O13   O     O_R   0.939020 0.617570 0.916840 -0.575532
O14   O     O_R   0.060980 0.117570 0.083160 -0.575439
C61   C     C_R   0.924047 0.448617 0.892344 0.967607
C62   C     C_R   0.075954 0.948657 0.107658 0.967605
O15   O     O_R   0.946600 0.615450 0.045180 -0.588114
O16   O     O_R   0.053400 0.115450 0.954820 -0.587945
O17   O     O_R   0.054370 0.786770 0.081410 -0.572376
O18   O     O_R   0.945630 0.286770 0.918590 -0.572325
C63   C     C_R   0.934428 0.447118 0.061821 0.919063
C64   C     C_R   0.065570 0.947119 0.938175 0.918988
O19   O     O_3   0.035300 0.454160 0.011680 -0.284503
O20   O     O_3   0.964700 0.954160 0.988320 -0.284550
V3    V     V_3+5 0.993450 0.728620 0.997830 1.195888
V4    V     V_3+5 0.006550 0.228620 0.002170 1.196066
Br1   Br    Br    0.026985 0.988536 0.222215 -0.522650
Br2   Br    Br    0.973123 0.485713 0.777794 -0.522787
N9    N     N_R   0.304530 0.528534 0.654809 0.220243
O21   O     O_R   0.282332 0.416289 0.606184 -0.348212
O22   O     O_R   0.312462 0.471371 0.713654 -0.441542
N10   N     N_R   0.695436 0.028534 0.345157 0.220245
O23   O     O_R   0.717664 0.916372 0.393784 -0.348233
O24   O     O_R   0.687454 0.971276 0.286305 -0.441665
N11   N     N_R   0.231839 0.984266 0.418896 0.243145
O25   O     O_R   0.203785 0.133740 0.421083 -0.343050
O26   O     O_R   0.256069 0.892354 0.472453 -0.359247
N12   N     N_R   0.768404 0.478959 0.580976 0.242913
O27   O     O_R   0.796264 0.628384 0.578180 -0.342647
O28   O     O_R   0.744506 0.384708 0.527871 -0.359114

loop_
_geom_bond_atom_site_label_1
_geom_bond_atom_site_label_2
_geom_bond_distance
_ccdc_geom_bond_type
C34   C36   1.399987 A    
C38   C40   1.406575 A    
C9    C31   1.396882 A    
C13   C15   1.416195 A    
O1    C3    1.331564 A    
O12   V3    1.972580 S    
C42   C44   1.409042 A    
O2    C4    1.331638 A    
N10   O23   1.301278 A    
C7    C62   1.480397 S    
C2    O7    1.327179 A    
C34   C44   1.407979 A    
C49   N9    1.434113 S    
O5    C3    1.332474 A    
O18   V4    1.981804 S    
O17   V3    1.981644 S    
C21   C23   1.416296 A    
C10   C12   1.389234 A    
O13   C61   1.336257 A    
C38   C48   1.488653 S    
N8    C48   1.358415 A    
C33   H13   1.082470 S    
C34   H14   1.082438 S    
C15   C19   1.436667 A    
C52   C54   1.406494 A    
O6    V2    1.995239 S    
C35   H15   1.083086 S    
C36   H16   1.083049 S    
N11   O26   1.301626 A    
C55   H23   1.083040 S    
C7    C29   1.399402 A    
C25   H11   1.083098 S    
C37   C39   1.406623 A    
C20   C28   1.427029 A    
C61   O18   1.334830 A    
C49   C51   1.408290 A    
C39   C41   1.403078 A    
O6    C4    1.332410 A    
C9    C11   1.389221 A    
C57   H25   1.079924 S    
C10   H6    1.083887 S    
C43   C64   1.492916 S    
C12   H10   1.082720 S    
C45   N5    1.358957 A    
C13   H7    1.076223 S    
C37   C47   1.488671 S    
N1    N3    1.334821 A    
C57   C59   1.407335 A    
C45   C59   1.497969 S    
C41   C43   1.409065 A    
C16   C20   1.436681 A    
N7    C47   1.358441 A    
C16   C18   1.431150 A    
O12   C64   1.334976 A    
C50   C60   1.421194 A    
C42   H20   1.082863 S    
C41   H19   1.082901 S    
C36   C38   1.406104 A    
C5    H1    1.080745 S    
N12   O28   1.301614 A    
O5    V1    1.994958 S    
C26   H12   1.083120 S    
C56   C58   1.398882 A    
C30   Br2   1.920014 S    
C23   N11   1.437848 S    
C54   C56   1.404147 A    
C39   H17   1.083005 S    
O4    V2    1.993936 S    
C5    C29   1.394231 A    
C6    C30   1.394234 A    
C51   H21   1.083282 S    
C50   C52   1.408275 A    
C40   C42   1.403086 A    
C52   H22   1.083280 S    
C27   H3    1.076963 S    
N2    N4    1.334826 A    
O1    V2    1.982956 S    
C28   H4    1.076961 S    
C58   H26   1.079901 S    
O2    V1    1.982796 S    
O16   C64   1.337521 A    
C7    C27   1.406252 A    
N4    C46   1.360881 A    
N5    N7    1.332994 A    
C8    C61   1.480333 S    
C46   N6    1.358947 A    
C18   C26   1.401311 A    
N9    O21   1.301282 A    
O15   C63   1.337542 A    
O4    C2    1.328452 A    
N11   O25   1.301406 A    
C29   Br1   1.920013 S    
C1    C54   1.492556 S    
O3    V1    1.993934 S    
O20   V3    1.768534 S    
N3    C45   1.360886 A    
O19   V4    1.768351 S    
N2    C48   1.359527 A    
C24   N12   1.437667 S    
C8    C30   1.399398 A    
C18   C32   1.425709 A    
C11   H9    1.082733 S    
C4    C31   1.482074 S    
O3    C1    1.328463 A    
N10   O24   1.301394 A    
C53   C55   1.404158 A    
C33   C35   1.399987 A    
N12   O27   1.301355 A    
C11   C13   1.393643 A    
C12   C14   1.393659 A    
C44   C63   1.492934 S    
C19   C27   1.427074 A    
C33   C43   1.408012 A    
C14   C16   1.416188 A    
O7    V1    1.977310 S    
C10   C32   1.396859 A    
C1    O8    1.327192 A    
C15   C17   1.431143 A    
O8    V2    1.977322 S    
O14   V4    1.995216 S    
C24   C26   1.396108 A    
C14   H8    1.076222 S    
O13   V3    1.994935 S    
C8    C28   1.406257 A    
C22   C24   1.416145 A    
C19   C21   1.426026 A    
C20   C22   1.425975 A    
C17   C25   1.401299 A    
C58   C60   1.407342 A    
C6    H2    1.080772 S    
C46   C60   1.498004 S    
C56   H24   1.083042 S    
O14   C62   1.336194 A    
C9    H5    1.083892 S    
C51   C53   1.406505 A    
O16   V4    1.994230 S    
C35   C37   1.406143 A    
O15   V3    1.994229 S    
N1    C47   1.359538 A    
C23   C25   1.396196 A    
C2    C53   1.492570 S    
C17   C31   1.425739 A    
O9    V2    1.769141 S    
C49   C59   1.421191 A    
N9    O22   1.301394 A    
C40   H18   1.082971 S    
C50   N10   1.434090 S    
O10   V1    1.769325 S    
N6    N8    1.332984 A    
C3    C32   1.482004 S    
C5    C21   1.410878 A    
O11   V4    1.972590 S    
C6    C22   1.410857 A    
O11   C63   1.334996 A    
C62   O17   1.334897 A    
C55   C57   1.398892 A    
