data_mof_unit_43336.cif
_audit_creation_date              2012-12-10T20:27:14-0500
_audit_creation_method            fapswitch 2.2
_symmetry_space_group_name_H-M    P1
_symmetry_Int_Tables_number       1
_space_group_crystal_system       triclinic
_cell_length_a                    10.522138
_cell_length_b                    10.665484
_cell_length_c                    9.848136
_cell_angle_alpha                 89.937144
_cell_angle_beta                  102.142097
_cell_angle_gamma                 89.492952
_cell_volume                      1080.42260505

loop_
_atom_site_label
_atom_site_type_symbol
_atom_type_description
_atom_site_fract_x
_atom_site_fract_y
_atom_site_fract_z
_atom_type_partial_charge
C1    C     C_R   0.505412 0.259698 0.501088 0.872313
C2    C     C_R   0.576869 0.579395 0.089142 -0.111433
C3    C     C_R   0.577068 0.579267 0.945137 -0.148480
C4    C     C_R   0.257694 0.507639 0.444157 0.993435
C5    C     C_R   0.430251 0.412882 0.913011 0.184440
C6    C     C_3   0.286724 0.395799 0.874538 0.335765
C7    C     C_3   0.286660 0.395514 0.029063 -0.574115
C8    C     C_R   0.506748 0.740060 0.501288 0.952973
C9    C     C_R   0.742250 0.506739 0.555690 0.968603
C10   C     C_2   0.118843 0.533652 0.417511 -0.410855
C11   C     C_2   0.066564 0.608343 0.502534 -0.089354
C12   C     C_R   0.530994 0.128373 0.504773 -0.093558
C13   C     C_2   0.879819 0.535336 0.580920 -0.501067
C14   C     C_2   0.925981 0.606385 0.489208 0.493204
C15   C     C_R   0.558288 0.063492 0.630528 0.105046
C16   C     C_3   0.892266 0.771624 0.331113 -0.324391
C17   C     C_3   0.125435 0.274562 0.745567 -0.332356
C18   C     C_2   0.140448 0.693721 0.608495 0.375416
C19   C     C_R   0.534417 0.064397 0.381100 -0.229477
C20   C     C_R   0.535557 0.934912 0.381380 -0.223869
C21   C     C_R   0.532949 0.870785 0.505267 -0.076196
C22   C     C_R   0.559813 0.935342 0.631010 0.109739
C23   C     C_3   0.501027 0.928526 0.756489 -0.474951
C24   C     C_3   0.497853 0.070731 0.754579 -0.438390
C25   C     C_R   0.430309 0.412786 0.055729 0.139954
H1    H     H_    0.563636 0.113355 0.845665 0.201167
H2    H     H_    0.526745 0.886569 0.283176 0.171156
H3    H     H_    0.402648 0.887000 0.735603 0.261558
H4    H     H_    0.569941 0.888867 0.848004 0.187354
H5    H     H_    0.397584 0.109971 0.729057 0.260841
H6    H     H_    0.972437 0.750191 0.276896 0.185792
H7    H     H_    0.925196 0.837148 0.419177 0.163612
H8    H     H_    0.814073 0.820043 0.255617 0.171655
H9    H     H_    0.108162 0.335921 0.652041 0.169345
H10   H     H_    0.060414 0.302014 0.816524 0.162497
H11   H     H_    0.100631 0.177416 0.710190 0.191858
H12   H     H_    0.636414 0.645545 0.156791 0.184703
H13   H     H_    0.102825 0.717246 0.699859 0.036659
H14   H     H_    0.637256 0.644954 0.904107 0.147995
H15   H     H_    0.236072 0.477873 0.815660 0.083730
H16   H     H_    0.234795 0.477886 0.061360 0.181165
H17   H     H_    0.260337 0.303832 0.068905 0.223921
H18   H     H_    0.944003 0.497966 0.673405 0.093015
H19   H     H_    0.056546 0.483982 0.332894 0.147437
H20   H     H_    0.524866 0.112924 0.282706 0.176794
N1    N     N_R   0.499160 0.499140 0.142600 -0.101527
N2    N     N_R   0.499160 0.499180 0.856960 -0.132397
O1    O     O_R   0.500020 0.316790 0.614700 -0.603320
O2    O     O_3   0.257262 0.277062 0.813447 -0.594209
O3    O     O_2   0.238312 0.745170 0.590016 -0.590990
O4    O     O_R   0.500000 0.316760 0.385350 -0.626321
O5    O     O_R   0.317820 0.500020 0.571850 -0.582667
O6    O     O_R   0.317800 0.499980 0.342510 -0.616925
O7    O     O_R   0.500000 0.683240 0.614650 -0.593266
O8    O     O_R   0.499980 0.683210 0.385300 -0.626582
O9    O     O_R   0.682200 0.500020 0.657490 -0.633823
O10   O     O_R   0.682180 0.499980 0.428150 -0.553866
O11   O     O_3   0.841289 0.660533 0.375420 -0.588687
Zn1   Zn    Zn3+2 0.500010 0.500020 0.653140 0.971191
Zn2   Zn    Zn3+2 0.499990 0.499980 0.346860 0.968738

loop_
_geom_bond_atom_site_label_1
_geom_bond_atom_site_label_2
_ccdc_geom_bond_type
C23   C24   S    
O9    Zn1   S    
C11   C18   S    
C6    C7    S    
O5    Zn1   S    
C16   H8    S    
C16   H7    S    
C1    O4    A    
C19   C20   A    
C7    C25   S    
C12   C15   A    
C21   C22   A    
C20   H2    S    
C19   H20   S    
C2    C3    A    
C18   H13   S    
C3    H14   S    
C1    O1    A    
C9    O9    A    
C16   O11   S    
C13   C14   D    
C2    N1    A    
C16   H6    S    
C5    N2    A    
C2    H12   S    
C18   O3    D    
C1    C12   S    
C4    O5    A    
C5    C25   A    
C23   H4    S    
C12   C19   A    
C3    N2    A    
C15   C24   S    
C17   H11   S    
O6    Zn2   S    
C24   H1    S    
C8    C21   S    
C9    O10   A    
O7    Zn1   S    
C7    H16   S    
C6    O2    S    
C5    C6    S    
C14   O11   S    
C11   C14   S    
C24   H5    S    
C4    O6    A    
C23   H3    S    
C10   C11   D    
C10   H19   S    
C13   H18   S    
C6    H15   S    
C20   C21   A    
C8    O8    A    
O1    Zn1   S    
C17   H9    S    
C7    H17   S    
C8    O7    A    
C9    C13   S    
C22   C23   S    
O10   Zn2   S    
O4    Zn2   S    
C17   H10   S    
N1    Zn2   S    
O8    Zn2   S    
N2    Zn1   S    
C25   N1    A    
C15   C22   A    
C17   O2    S    
C4    C10   S    
