data_mof_unit_41293.cif
_audit_creation_date              2012-12-10T17:02:19-0500
_audit_creation_method            fapswitch 2.2
_symmetry_space_group_name_H-M    P1
_symmetry_Int_Tables_number       1
_space_group_crystal_system       triclinic
_cell_length_a                    10.612591
_cell_length_b                    10.71636
_cell_length_c                    10.066392
_cell_angle_alpha                 89.283718
_cell_angle_beta                  89.668864
_cell_angle_gamma                 90.308705
_cell_volume                      1144.70846364

loop_
_atom_site_label
_atom_site_type_symbol
_atom_type_description
_atom_site_fract_x
_atom_site_fract_y
_atom_site_fract_z
_atom_type_partial_charge
C1    C     C_R   0.494851 0.262751 0.500664 0.916538
C2    C     C_2   0.476935 0.131249 0.502996 -0.319760
C3    C     C_2   0.516558 0.598935 0.923689 -0.164593
C4    C     C_R   0.260673 0.501834 0.500280 0.854852
C5    C     C_2   0.538482 0.594027 0.071571 -0.019955
C6    C     C_R   0.501298 0.737217 0.499214 0.892257
C7    C     C_R   0.739320 0.501888 0.499599 0.872875
C8    C     C_R   0.131936 0.726051 0.582042 -0.234680
C9    C     C_R   0.066819 0.833873 0.619867 0.029445
C10   C     C_R   0.934890 0.832732 0.618320 -0.183112
C11   C     C_R   0.869263 0.726255 0.579689 -0.199290
C12   C     C_R   0.066200 0.617633 0.542492 0.071298
C13   C     C_R   0.934355 0.617787 0.541359 0.108571
C14   C     C_2   0.604860 0.702682 0.127677 0.977695
C15   C     C_2   0.136132 0.947969 0.659718 0.907178
C16   C     C_R   0.128355 0.508929 0.500482 -0.078440
C17   C     C_R   0.064188 0.404650 0.454787 -0.188799
C18   C     C_R   0.935349 0.404870 0.453811 -0.179020
C19   C     C_R   0.871661 0.509347 0.498591 -0.073705
C20   C     C_2   0.465251 0.933238 0.392688 -0.108165
C21   C     C_2   0.508233 0.869149 0.497250 -0.285496
C22   C     C_2   0.471931 0.067647 0.389943 -0.149401
H1    H     H_    0.114182 0.322563 0.421638 0.154750
H2    H     H_    0.743413 0.766783 0.245317 0.331334
H3    H     H_    0.128001 0.129076 0.711861 0.348034
H4    H     H_    0.884966 0.322875 0.420223 0.153463
H5    H     H_    0.427592 0.886737 0.306081 0.193454
H6    H     H_    0.551095 0.912251 0.582853 0.153475
H7    H     H_    0.464584 0.087649 0.600001 0.195000
H8    H     H_    0.506222 0.415924 0.899506 0.173808
H9    H     H_    0.449019 0.432349 0.103908 0.160966
H10   H     H_    0.233811 0.728049 0.581721 0.172503
H11   H     H_    0.881933 0.914433 0.646563 0.186956
H12   H     H_    0.767510 0.730350 0.578569 0.143203
H13   H     H_    0.474043 0.113935 0.293299 0.186558
H14   H     H_    0.523991 0.688670 0.873112 0.203052
N1    N     N_2   0.501340 0.501330 0.852150 -0.195946
N2    N     N_2   0.501380 0.501360 0.147810 -0.224012
O1    O     O_R   0.499980 0.319060 0.613040 -0.612042
O2    O     O_R   0.705326 0.685162 0.214623 -0.760126
O3    O     O_2   0.250959 0.946716 0.669192 -0.648271
O4    O     O_R   0.070257 0.057614 0.686594 -0.814112
O5    O     O_R   0.500020 0.319100 0.386900 -0.619007
O6    O     O_R   0.316750 0.499980 0.613090 -0.603443
O7    O     O_R   0.316790 0.500020 0.386950 -0.613317
O8    O     O_R   0.499980 0.680900 0.613100 -0.618941
O9    O     O_R   0.500020 0.680940 0.386960 -0.604851
O10   O     O_R   0.683210 0.499980 0.613050 -0.613152
O11   O     O_R   0.683250 0.500020 0.386910 -0.554806
O12   O     O_2   0.575745 0.808216 0.092407 -0.668558
Zn1   Zn    Zn3+2 0.499970 0.499970 0.650990 0.966917
Zn2   Zn    Zn3+2 0.500030 0.500030 0.349010 0.980817

loop_
_geom_bond_atom_site_label_1
_geom_bond_atom_site_label_2
_ccdc_geom_bond_type
H3    O4    S    
C2    C22   D    
O1    Zn1   S    
C4    C16   S    
O9    Zn2   S    
C20   H5    S    
C6    O8    A    
C9    C10   A    
C15   O4    S    
C18   H4    S    
H9    N2    S    
C8    C12   A    
O11   Zn2   S    
C7    O10   A    
C17   C18   A    
C9    C15   S    
C7    O11   A    
C14   O12   D    
C5    N2    D    
C12   C13   A    
C22   H13   S    
C11   C13   A    
C15   O3    D    
C5    C14   S    
C17   H1    S    
C3    H14   S    
C2    H7    S    
O6    Zn1   S    
H2    O2    S    
C21   H6    S    
C20   C22   S    
C1    C2    S    
C10   H11   S    
C7    C19   S    
C4    O7    A    
O10   Zn1   S    
N1    Zn1   S    
O5    Zn2   S    
N2    Zn2   S    
C6    O9    A    
C13   C19   A    
C14   O2    S    
C8    H10   S    
C20   C21   D    
C3    N1    D    
C18   C19   A    
C10   C11   A    
C1    O1    A    
C16   C17   A    
C4    O6    A    
O7    Zn2   S    
C6    C21   S    
O8    Zn1   S    
C1    O5    A    
C11   H12   S    
C12   C16   A    
H8    N1    S    
C8    C9    A    
C3    C5    S    
