data_mof_unit_14847.cif
_audit_creation_date              2012-12-10T18:06:50-0500
_audit_creation_method            fapswitch 2.2
_symmetry_space_group_name_H-M    P1
_symmetry_Int_Tables_number       1
_space_group_crystal_system       triclinic
_cell_length_a                    12.599009
_cell_length_b                    13.157767
_cell_length_c                    15.420073
_cell_angle_alpha                 83.533413
_cell_angle_beta                  99.112749
_cell_angle_gamma                 96.242747
_cell_volume                      2497.14931712

loop_
_atom_site_label
_atom_site_type_symbol
_atom_type_description
_atom_site_fract_x
_atom_site_fract_y
_atom_site_fract_z
_atom_type_partial_charge
C1    C     C_R   0.442158 0.308651 0.505653 0.864126
C2    C     C_R   0.623348 0.380335 0.936440 0.109760
C3    C     C_R   0.533687 0.436623 0.900895 0.098997
C4    C     C_R   0.434322 0.511069 0.336003 0.853832
C5    C     C_R   0.699443 0.364405 0.881611 0.004646
C6    C     C_R   0.683067 0.402251 0.792234 -0.224233
C7    C     C_R   0.527280 0.482175 0.814573 -0.254778
C8    C     C_R   0.624436 0.931744 0.348045 0.036526
C9    C     C_R   0.577848 0.799465 0.461916 -0.058378
C10   C     C_R   0.328612 0.158198 0.560523 -0.171152
C11   C     C_R   0.304740 0.052128 0.574685 0.049480
C12   C     C_R   0.410629 0.459511 0.099192 0.066311
C13   C     C_R   0.363563 0.987472 0.538957 -0.304699
C14   C     C_R   0.443346 0.027918 0.485793 0.102671
C15   C     C_R   0.453669 0.133848 0.460505 0.100102
C16   C     C_R   0.555095 0.691410 0.488084 0.865019
C17   C     C_R   0.511827 0.965443 0.456143 0.055929
C18   C     C_R   0.572690 0.003032 0.386834 0.089239
C19   C     C_R   0.578139 0.109475 0.359307 -0.040784
C20   C     C_R   0.514798 0.171884 0.392798 -0.294419
C21   C     C_R   0.523814 0.866880 0.497051 -0.241070
C22   C     C_R   0.628149 0.831067 0.387839 -0.255800
C23   C     C_R   0.312040 0.501497 0.061917 0.140215
C24   C     C_R   0.405166 0.199335 0.506020 -0.156241
C25   C     C_R   0.138763 0.636675 0.627071 -0.317886
C26   C     C_R   0.757340 0.390144 0.388332 0.041413
C27   C     C_R   0.852401 0.371286 0.361033 -0.196508
C28   C     C_R   0.564326 0.485342 0.664232 0.870107
C29   C     C_R   0.950227 0.412192 0.404078 -0.192862
C30   C     C_R   0.952731 0.474705 0.473424 0.013973
C31   C     C_R   0.853451 0.493628 0.497071 0.225880
C32   C     C_R   0.049003 0.521449 0.518151 -0.008067
C33   C     C_R   0.044262 0.588739 0.583264 0.197209
C34   C     C_R   0.475314 0.423075 0.044606 0.075546
C35   C     C_R   0.945322 0.607972 0.603545 -0.273266
C36   C     C_R   0.851190 0.561015 0.560798 -0.204372
C37   C     C_R   0.150710 0.504118 0.501055 -0.042316
C38   C     C_R   0.236846 0.617034 0.606286 0.002605
C39   C     C_R   0.390183 0.507598 0.242750 -0.047400
C40   C     C_R   0.596175 0.460156 0.758810 -0.084867
C41   C     C_R   0.252735 0.542875 0.117720 -0.169242
C42   C     C_R   0.291167 0.545050 0.207331 -0.224694
C43   C     C_R   0.447984 0.464182 0.189141 -0.262906
C44   C     C_2   0.172770 0.535312 0.923980 0.375944
C45   C     C_R   0.453990 0.448958 0.953141 0.081743
C46   C     C_R   0.794885 0.306955 0.914806 0.085504
C47   C     C_R   0.805645 0.214598 0.880788 -0.160937
C48   C     C_R   0.895607 0.160244 0.912292 -0.134852
C49   C     C_R   0.975527 0.197938 0.977499 -0.118289
C50   C     C_R   0.965829 0.290252 0.011111 -0.071187
C51   C     C_R   0.876073 0.344915 0.979711 -0.106330
C52   C     C_2   0.660365 0.162427 0.307300 0.395894
C53   C     C_R   0.658867 0.952867 0.259346 0.154506
C54   C     C_R   0.586956 0.990110 0.186242 -0.180959
C55   C     C_R   0.620273 0.012131 0.103313 -0.133972
C56   C     C_R   0.352800 0.483954 0.916479 -0.334334
C57   C     C_R   0.724789 0.995566 0.092280 -0.105360
C58   C     C_R   0.795953 0.956251 0.164026 -0.129152
C59   C     C_R   0.763142 0.934397 0.247180 -0.076097
C60   C     C_2   0.221765 0.007376 0.629556 0.398288
C61   C     C_R   0.279636 0.505820 0.969547 -0.025432
C62   C     C_R   0.561810 0.363359 0.078579 -0.226466
C63   C     C_R   0.632768 0.340012 0.025021 -0.244946
H1    H     H_    0.662055 0.774906 0.356484 0.158219
H2    H     H_    0.163069 0.452761 0.454743 0.127790
H3    H     H_    0.680605 0.361073 0.354252 0.112228
H4    H     H_    0.021592 0.395904 0.379869 0.141528
H5    H     H_    0.850497 0.326648 0.305943 0.182254
H6    H     H_    0.777672 0.580756 0.577588 0.215254
H7    H     H_    0.737278 0.385420 0.748802 0.174637
H8    H     H_    0.695996 0.291933 0.054364 0.164419
H9    H     H_    0.179385 0.578632 0.092842 0.191064
H10   H     H_    0.244951 0.578958 0.248289 0.162513
H11   H     H_    0.525683 0.439294 0.217972 0.149226
H12   H     H_    0.489190 0.839493 0.556170 0.142867
H13   H     H_    0.326706 0.489635 0.845995 0.150280
H14   H     H_    0.573712 0.330889 0.146104 0.131729
H15   H     H_    0.164841 0.569068 0.855940 0.069939
H16   H     H_    0.744019 0.184399 0.830518 0.137853
H17   H     H_    0.903260 0.088782 0.886271 0.142881
H18   H     H_    0.045039 0.155715 0.001866 0.132935
H19   H     H_    0.027967 0.319561 0.061378 0.153400
H20   H     H_    0.869588 0.416558 0.006023 0.152131
H21   H     H_    0.640143 0.226015 0.259081 0.016339
H22   H     H_    0.505659 0.003208 0.193797 0.124175
H23   H     H_    0.289500 0.208696 0.593747 0.198989
H24   H     H_    0.565086 0.042173 0.047611 0.138997
H25   H     H_    0.750503 0.012869 0.028084 0.133467
H26   H     H_    0.876752 0.943103 0.155282 0.129056
H27   H     H_    0.819515 0.904969 0.302385 0.130918
H28   H     H_    0.206165 0.924547 0.641221 0.047415
H29   H     H_    0.343234 0.905682 0.550951 0.130161
H30   H     H_    0.515411 0.251514 0.366113 0.150167
H31   H     H_    0.311382 0.652842 0.639391 0.123742
H32   H     H_    0.467218 0.534752 0.788816 0.154799
H33   H     H_    0.940577 0.659841 0.652403 0.161804
H34   H     H_    0.136719 0.688392 0.676636 0.139637
N1    N     N_R   0.239390 0.551900 0.544730 -0.100115
N2    N     N_R   0.759950 0.448600 0.455730 -0.132666
O1    O     O_R   0.374950 0.371210 0.521360 -0.611547
O2    O     O_2   0.753354 0.139702 0.322145 -0.569850
O3    O     O_2   0.169695 0.062108 0.662204 -0.566443
O4    O     O_R   0.542050 0.338030 0.492790 -0.603460
O5    O     O_R   0.368720 0.526070 0.390200 -0.614576
O6    O     O_R   0.535820 0.492890 0.361630 -0.631670
O7    O     O_R   0.457950 0.661970 0.507210 -0.612617
O8    O     O_R   0.625050 0.628790 0.478640 -0.632183
O9    O     O_R   0.464180 0.507110 0.638370 -0.613725
O10   O     O_R   0.631280 0.473930 0.609800 -0.631856
O11   O     O_2   0.091704 0.517011 0.959182 -0.603213
Zn1   Zn    Zn3+2 0.388420 0.522150 0.519080 0.940695
Zn2   Zn    Zn3+2 0.611580 0.477850 0.480920 0.929202

loop_
_geom_bond_atom_site_label_1
_geom_bond_atom_site_label_2
_ccdc_geom_bond_type
C20   H30   S    
C56   H13   S    
C27   C29   A    
C41   C42   A    
C62   H14   S    
C19   C20   A    
C47   H16   S    
C38   N1    A    
C53   C59   A    
C53   C54   A    
C36   H6    S    
C12   C23   A    
C26   C27   A    
C62   C63   A    
C9    C16   S    
C12   C43   A    
C3    C7    A    
C31   C36   A    
C30   C31   A    
C9    C22   A    
C28   C40   S    
C34   C62   A    
C18   C19   A    
O8    Zn2   S    
C49   H18   S    
C52   H21   S    
C27   H5    S    
C16   O8    A    
C29   H4    S    
C19   C52   S    
C10   H23   S    
C35   C36   A    
C45   C56   A    
C37   H2    S    
C8    C22   A    
C7    C40   A    
C31   N2    A    
C1    O4    A    
C16   O7    A    
C26   N2    A    
C43   H11   S    
C13   C14   A    
C14   C17   A    
C60   O3    D    
C1    O1    A    
C37   N1    A    
C50   C51   A    
C39   C42   A    
O7    Zn1   S    
C15   C20   A    
C52   O2    D    
C26   H3    S    
O10   Zn2   S    
C39   C43   A    
C10   C24   A    
C58   C59   A    
C35   H33   S    
C46   C51   A    
C3    C45   A    
C8    C18   A    
O4    Zn2   S    
C59   H27   S    
C29   C30   A    
C25   C38   A    
C54   H22   S    
C47   C48   A    
C4    C39   S    
C38   H31   S    
C17   C18   A    
C34   C45   A    
C46   C47   A    
C32   C37   A    
C1    C24   S    
C41   H9    S    
C25   H34   S    
C48   C49   A    
O6    Zn2   S    
C63   H8    S    
C55   C57   A    
C13   H29   S    
C28   O10   A    
C6    C40   A    
C2    C5    A    
C12   C34   A    
C11   C60   S    
C51   H20   S    
C2    C63   A    
C50   H19   S    
C4    O6    A    
C60   H28   S    
C6    H7    S    
C54   C55   A    
C15   C24   A    
C42   H10   S    
N1    Zn1   S    
C56   C61   A    
C8    C53   S    
O5    Zn1   S    
O9    Zn1   S    
C44   C61   S    
C7    H32   S    
C5    C46   S    
C21   H12   S    
C23   C41   A    
C57   H25   S    
C32   C33   A    
C48   H17   S    
C44   H15   S    
C2    C3    A    
C30   C32   A    
C11   C13   A    
C9    C21   A    
C57   C58   A    
C5    C6    A    
C28   O9    A    
N2    Zn2   S    
C4    O5    A    
C33   C35   A    
C55   H24   S    
C58   H26   S    
C17   C21   A    
C10   C11   A    
C22   H1    S    
C23   C61   A    
O1    Zn1   S    
C49   C50   A    
C14   C15   A    
C25   C33   A    
C44   O11   D    
