data_mof_unit_17025.cif
_audit_creation_date              2012-12-10T17:12:05-0500
_audit_creation_method            fapswitch 2.2
_symmetry_space_group_name_H-M    P1
_symmetry_Int_Tables_number       1
_space_group_crystal_system       triclinic
_cell_length_a                    11.719033
_cell_length_b                    13.052229
_cell_length_c                    15.967714
_cell_angle_alpha                 93.042747
_cell_angle_beta                  74.226151
_cell_angle_gamma                 99.811055
_cell_volume                      2316.00368729

loop_
_atom_site_label
_atom_site_type_symbol
_atom_type_description
_atom_site_fract_x
_atom_site_fract_y
_atom_site_fract_z
_atom_type_partial_charge
C1    C     C_R   0.525179 0.700485 0.491447 0.821938
C2    C     C_R   0.474830 0.299508 0.508529 0.822200
C3    C     C_R   0.355607 0.473585 0.085624 -0.171435
C4    C     C_R   0.644327 0.527268 0.914447 -0.171702
C5    C     C_R   0.272588 0.471295 0.038019 -0.176198
C6    C     C_R   0.727363 0.529507 0.962025 -0.176140
C7    C     C_R   0.457351 0.185108 0.521401 -0.196497
C8    C     C_R   0.542684 0.814877 0.478527 -0.196924
C9    C     C_R   0.656929 0.985053 0.492679 -0.202056
C10   C     C_R   0.343154 0.014927 0.507209 -0.201774
C11   C     C_R   0.654517 0.879093 0.474635 -0.053423
C12   C     C_R   0.345535 0.120879 0.525262 -0.053336
C13   C     C_R   0.444307 0.862850 0.475299 -0.044692
C14   C     C_R   0.555770 0.137160 0.524585 -0.044884
C15   C     C_R   0.446966 0.969511 0.494254 0.059706
C16   C     C_R   0.553139 0.030499 0.505614 0.059391
C17   C     C_R   0.938738 0.591213 0.587880 -0.179044
C18   C     C_R   0.061271 0.408789 0.412104 -0.179097
C19   C     C_R   0.820883 0.583831 0.578155 0.125824
C20   C     C_R   0.179145 0.416215 0.421806 0.125569
C21   C     C_R   0.861241 0.463848 0.461128 0.109483
C22   C     C_R   0.138719 0.536073 0.538920 0.109824
C23   C     C_R   0.426044 0.488645 0.667931 0.822532
C24   C     C_R   0.573957 0.511399 0.332077 0.822199
C25   C     C_R   0.980360 0.467643 0.467900 -0.046991
C26   C     C_R   0.019617 0.532302 0.532125 -0.047169
C27   C     C_R   0.380620 0.475517 0.764421 -0.160029
C28   C     C_R   0.619382 0.524706 0.235609 -0.160030
C29   C     C_R   0.225000 0.475776 0.901302 -0.207940
C30   C     C_R   0.774973 0.524686 0.098697 -0.207967
C31   C     C_R   0.257977 0.475582 0.810432 -0.020933
C32   C     C_R   0.742012 0.524651 0.189564 -0.020863
C33   C     C_R   0.463376 0.465951 0.812893 -0.066800
C34   C     C_R   0.536632 0.534505 0.187192 -0.066531
C35   C     C_R   0.433445 0.484204 0.903954 0.042526
C36   C     C_R   0.566525 0.516444 0.096108 0.042619
C37   C     C_R   0.310556 0.479737 0.947819 0.113976
C38   C     C_R   0.689408 0.520911 0.052214 0.113899
C39   C     C_R   0.519870 0.501961 0.953778 0.060070
C40   C     C_R   0.480078 0.498812 0.046296 0.060217
Cu1   Cu    Cu3+1 0.386820 0.492450 0.493500 1.036375
Cu2   Cu    Cu3+1 0.613180 0.507550 0.506500 1.036418
H1    H     H_    0.177682 0.458513 0.071810 0.184573
H2    H     H_    0.822265 0.542313 0.928224 0.184644
H3    H     H_    0.130840 0.470888 0.936393 0.167784
H4    H     H_    0.869126 0.529578 0.063584 0.167759
H5    H     H_    0.319729 0.454462 0.153419 0.221540
H6    H     H_    0.680166 0.546448 0.846660 0.221639
H7    H     H_    0.742113 0.033126 0.491906 0.215449
H8    H     H_    0.257979 0.966813 0.507992 0.214857
H9    H     H_    0.170774 0.582540 0.588332 0.178266
H10   H     H_    0.829156 0.417340 0.411749 0.178117
N1    N     N_R   0.216750 0.481110 0.483710 -0.231567
N2    N     N_R   0.783250 0.518890 0.516290 -0.231577
O1    O     O_R   0.419950 0.645670 0.495380 -0.581080
O2    O     O_R   0.580050 0.354330 0.504620 -0.581474
O3    O     O_R   0.611110 0.658410 0.506370 -0.554866
O4    O     O_R   0.388890 0.341590 0.493630 -0.554767
O5    O     O_R   0.350820 0.490050 0.621260 -0.559190
O6    O     O_R   0.649180 0.509950 0.378740 -0.559108
O7    O     O_R   0.541970 0.502800 0.632250 -0.576384
O8    O     O_R   0.458030 0.497200 0.367750 -0.576617
C41   C     C_2   0.256672 0.345534 0.368034 0.933790
O9    O     O_2   0.319761 0.371981 0.295795 -0.602773
O10   O     O_R   0.243557 0.243116 0.394251 -0.745713
H11   H     H_    0.297216 0.200648 0.350586 0.338341
C42   C     C_2   0.743432 0.654626 0.631837 0.933614
O11   O     O_2   0.680200 0.628260 0.704052 -0.602997
O12   O     O_R   0.756788 0.757054 0.605572 -0.745749
H12   H     H_    0.703166 0.799607 0.649180 0.338290
C43   C     C_2   0.974901 0.661715 0.656284 0.843314
O13   O     O_2   0.063794 0.728870 0.637034 -0.530346
O14   O     O_R   0.903880 0.653692 0.742306 -0.760948
H13   H     H_    0.936476 0.706420 0.782479 0.357063
C44   C     C_2   0.025147 0.338352 0.343646 0.843260
O15   O     O_2   0.936259 0.271188 0.362839 -0.530227
O16   O     O_R   0.096197 0.346448 0.257634 -0.760901
H14   H     H_    0.063627 0.293757 0.217423 0.357132
C45   C     C_1   0.433215 0.584294 0.227622 0.338087
N3    N     N_1   0.349744 0.622890 0.259309 -0.206082
C46   C     C_1   0.566881 0.416223 0.772582 0.338910
N4    N     N_1   0.650433 0.377686 0.741007 -0.205659
C47   C     C_2   0.842345 0.535933 0.230906 0.858748
O17   O     O_2   0.851502 0.603564 0.285637 -0.525050
O18   O     O_R   0.933604 0.476167 0.200459 -0.773561
H15   H     H_    0.002682 0.498301 0.227698 0.346484
C48   C     C_2   0.157656 0.464068 0.769061 0.858687
O19   O     O_2   0.148577 0.396292 0.714430 -0.525022
O20   O     O_R   0.066342 0.523811 0.799355 -0.773509
H16   H     H_    0.997318 0.501571 0.772079 0.346496
C49   C     C_2   0.648410 0.191580 0.565472 0.875024
O21   O     O_2   0.624950 0.197362 0.644704 -0.567484
O22   O     O_R   0.762768 0.231352 0.514589 -0.718684
H17   H     H_    0.818504 0.263648 0.550969 0.341524
C50   C     C_2   0.351694 0.808518 0.434355 0.874898
O23   O     O_2   0.374720 0.803852 0.355099 -0.567263
O24   O     O_R   0.237715 0.767778 0.485265 -0.718389
H18   H     H_    0.181878 0.735756 0.448875 0.341504
C51   C     C_2   0.228115 0.157510 0.559413 0.955318
O25   O     O_2   0.218251 0.228903 0.612154 -0.535683
O26   O     O_R   0.126627 0.106073 0.535487 -0.708955
H19   H     H_    0.051874 0.137549 0.563805 0.356746
C52   C     C_2   0.771918 0.842441 0.440424 0.955382
O27   O     O_2   0.781697 0.770997 0.387729 -0.535786
O28   O     O_R   0.873481 0.893918 0.464233 -0.708958
H20   H     H_    0.948210 0.862423 0.435879 0.356818

loop_
_geom_bond_atom_site_label_1
_geom_bond_atom_site_label_2
_ccdc_geom_bond_type
C48   O19   D    
C41   O10   S    
C18   C44   S    
C5    C37   A    
C1    C8    S    
Cu1   Cu2   S    
C50   O23   D    
O24   H18   S    
O18   H15   S    
C27   C33   A    
C23   O5    A    
O22   H17   S    
C13   C50   S    
C47   O17   D    
C17   C26   A    
C35   C37   A    
C9    C16   A    
Cu1   O4    S    
C10   C15   A    
C21   N2    A    
C33   C35   A    
C15   C16   A    
C30   C38   A    
O14   H13   S    
C3    H5    S    
Cu1   O1    S    
C12   C51   S    
Cu2   O2    S    
C7    C14   A    
C2    C7    S    
C6    C38   A    
C19   C42   S    
C23   C27   S    
C18   C20   A    
C5    H1    S    
C28   C34   A    
C6    H2    S    
C18   C25   A    
Cu1   O8    S    
Cu2   O3    S    
C46   N4    T    
C22   N1    A    
C7    C12   A    
C31   C48   S    
C27   C31   A    
C42   O11   D    
O26   H19   S    
C36   C40   A    
C9    H7    S    
Cu1   O5    S    
C4    C6    A    
Cu2   O6    S    
C39   C40   A    
C43   O14   S    
C25   C26   A    
O16   H14   S    
C45   N3    T    
C29   H3    S    
C42   O12   S    
C35   C39   A    
C44   O15   D    
C1    O3    A    
C34   C45   S    
C49   O22   S    
C9    C11   A    
C51   O25   D    
C4    C39   A    
C28   C32   A    
C24   O6    A    
C50   O24   S    
C52   O28   S    
C44   O16   S    
Cu2   O7    S    
Cu1   N1    S    
C10   C12   A    
C19   N2    A    
C47   O18   S    
C3    C40   A    
C17   C43   S    
C13   C15   A    
C14   C16   A    
C10   H8    S    
C49   O21   D    
C4    H6    S    
C32   C47   S    
C21   C25   A    
C24   O8    A    
C51   O26   S    
C30   H4    S    
C24   C28   S    
C20   N1    A    
C3    C5    A    
C2    O4    A    
O28   H20   S    
C20   C41   S    
C48   O20   S    
C1    O1    A    
C43   O13   D    
C29   C31   A    
C2    O2    A    
Cu2   N2    S    
C30   C32   A    
C8    C11   A    
C36   C38   A    
C17   C19   A    
C34   C36   A    
O12   H12   S    
C14   C49   S    
C41   O9    D    
C8    C13   A    
C23   O7    A    
O10   H11   S    
C22   C26   A    
C29   C37   A    
C52   O27   D    
C11   C52   S    
O20   H16   S    
C33   C46   S    
C21   H10   S    
C22   H9    S    
