data_mof_unit_58042.cif
_audit_creation_date              2012-12-10T18:55:21-0500
_audit_creation_method            fapswitch 2.2
_symmetry_space_group_name_H-M    P1
_symmetry_Int_Tables_number       1
_space_group_crystal_system       triclinic
_cell_length_a                    10.62851
_cell_length_b                    9.964614
_cell_length_c                    27.740327
_cell_angle_alpha                 90.747368
_cell_angle_beta                  92.4459
_cell_angle_gamma                 90.007832
_cell_volume                      2935.02328018

loop_
_atom_site_label
_atom_site_type_symbol
_atom_type_description
_atom_site_fract_x
_atom_site_fract_y
_atom_site_fract_z
_atom_type_partial_charge
C1    C     C_R   0.260694 0.500002 0.499992 1.060985
C2    C     C_R   0.395330 0.554944 0.871299 -0.100935
C3    C     C_R   0.496476 0.496731 0.353328 -0.127210
C4    C     C_R   0.503527 0.503269 0.646672 -0.127210
C5    C     C_R   0.390962 0.544157 0.973060 0.002966
C6    C     C_R   0.609044 0.455841 0.026940 0.002967
C7    C     C_R   0.613881 0.477610 0.976579 0.086092
C8    C     C_R   0.386126 0.522387 0.023421 0.086091
C9    C     C_R   0.503229 0.513593 0.949524 -0.014350
C10   C     C_R   0.496777 0.486404 0.050476 -0.014350
C11   C     C_R   0.290437 0.604645 0.945895 0.283112
C12   C     C_R   0.739305 0.499998 0.500006 1.060981
C13   C     C_R   0.709570 0.395354 0.054105 0.283113
C14   C     C_R   0.286795 0.595912 0.895014 0.382288
C15   C     C_R   0.713213 0.404089 0.104986 0.382289
C16   C     C_R   0.499091 0.499167 0.406178 0.992828
C17   C     C_R   0.500909 0.500833 0.593822 0.992820
C18   C     C_R   0.271365 0.524997 0.047017 -0.237547
C19   C     C_R   0.728642 0.475000 0.952983 -0.237549
C20   C     C_R   0.069585 0.431886 0.536814 0.282290
C21   C     C_R   0.930417 0.568132 0.463193 0.282137
C22   C     C_R   0.938430 0.434918 0.537443 0.288673
C23   C     C_R   0.493910 0.477565 0.101311 -0.214464
C24   C     C_R   0.061568 0.565102 0.462563 0.288766
C25   C     C_R   0.871969 0.499654 0.499854 -0.202311
C26   C     C_R   0.128030 0.500348 0.500149 -0.202324
C27   C     C_R   0.589353 0.071876 0.526562 0.406986
C28   C     C_R   0.410646 0.928124 0.473439 0.406985
C29   C     C_R   0.410641 0.070051 0.473472 0.414518
C30   C     C_R   0.589358 0.929949 0.526528 0.414497
C31   C     C_R   0.383716 0.507762 0.175484 0.571295
C32   C     C_R   0.616291 0.492241 0.824516 0.571295
C33   C     C_R   0.601938 0.450699 0.179358 0.597022
C34   C     C_R   0.506097 0.522435 0.898688 -0.214465
C35   C     C_R   0.398069 0.549305 0.820642 0.597021
C36   C     C_R   0.558978 0.591244 0.277849 -0.214116
C37   C     C_R   0.441028 0.408758 0.722151 -0.214127
C38   C     C_R   0.561346 0.596094 0.328373 0.381696
C39   C     C_R   0.438660 0.403906 0.671627 0.381680
C40   C     C_R   0.429322 0.394350 0.327653 0.363456
C41   C     C_R   0.570680 0.605652 0.672346 0.363439
C42   C     C_R   0.429408 0.391247 0.277256 -0.196289
C43   C     C_R   0.570596 0.608757 0.722743 -0.196292
C44   C     C_R   0.493768 0.489025 0.252633 0.196209
C45   C     C_R   0.380546 0.503023 0.124826 -0.047019
C46   C     C_R   0.506238 0.510978 0.747367 0.196217
C47   C     C_R   0.619460 0.496978 0.875174 -0.047018
C48   C     C_R   0.267465 0.520164 0.097238 0.478332
C49   C     C_R   0.732542 0.479835 0.902761 0.478329
C50   C     C_R   0.604677 0.445058 0.128700 -0.100936
H1    H     H_    0.379182 0.313036 0.256897 0.163839
H2    H     H_    0.343960 0.771891 0.439893 0.398782
H3    H     H_    0.343855 0.224590 0.440673 0.402749
H4    H     H_    0.656146 0.775409 0.559326 0.402752
H5    H     H_    0.084604 0.543197 0.095029 0.329675
H6    H     H_    0.915403 0.456801 0.904970 0.329674
H7    H     H_    0.331457 0.245106 0.669053 0.349143
H8    H     H_    0.668550 0.754893 0.330949 0.349151
H9    H     H_    0.105059 0.617908 0.888174 0.349850
H10   H     H_    0.894948 0.382096 0.111826 0.349851
H11   H     H_    0.169737 0.752358 0.946745 0.361195
H12   H     H_    0.620821 0.686969 0.743101 0.163837
H13   H     H_    0.830272 0.247643 0.053256 0.361195
H14   H     H_    0.094393 0.287339 0.582677 0.371022
H15   H     H_    0.905548 0.712859 0.417415 0.370986
H16   H     H_    0.926857 0.384902 0.604730 0.365400
H17   H     H_    0.073081 0.615326 0.395291 0.365517
H18   H     H_    0.391661 0.333815 0.742070 0.161808
H19   H     H_    0.608347 0.666186 0.257931 0.161812
H20   H     H_    0.182458 0.525771 0.026748 0.198063
H21   H     H_    0.817549 0.474225 0.973251 0.198065
H22   H     H_    0.320772 0.236809 0.328930 0.363136
H23   H     H_    0.679228 0.763195 0.671068 0.363134
H24   H     H_    0.656040 0.228110 0.560107 0.398783
N1    N     N_R   0.493407 0.483646 0.201183 -0.366136
N2    N     N_R   0.506599 0.516359 0.798817 -0.366136
N3    N     N_R   0.500000 0.857200 0.500000 -0.277684
N4    N     N_R   0.500000 0.142800 0.500000 -0.277686
O1    O     O_R   0.316770 0.614620 0.500000 -0.622705
O2    O     O_2   0.720894 0.461314 0.800780 -0.447620
O3    O     O_2   0.293921 0.577085 0.793037 -0.445826
O4    O     O_2   0.706086 0.422922 0.206963 -0.445814
O5    O     O_3   0.362279 0.300541 0.352321 -0.729913
O6    O     O_3   0.637721 0.699462 0.647678 -0.729926
O7    O     O_3   0.681603 0.134834 0.554819 -0.643435
O8    O     O_3   0.318394 0.865166 0.445182 -0.643460
O9    O     O_3   0.318542 0.131270 0.445281 -0.651244
O10   O     O_3   0.681456 0.868730 0.554719 -0.651262
O11   O     O_3   0.153743 0.528845 0.119562 -0.680129
O12   O     O_R   0.683230 0.385380 0.500000 -0.622693
O13   O     O_3   0.846264 0.471155 0.880437 -0.680130
O14   O     O_3   0.371581 0.305516 0.646076 -0.692004
O15   O     O_3   0.628426 0.694481 0.353925 -0.691995
O16   O     O_3   0.179270 0.630719 0.868260 -0.673373
O17   O     O_3   0.820738 0.369285 0.131740 -0.673368
O18   O     O_3   0.204428 0.683846 0.969210 -0.783272
O19   O     O_3   0.795581 0.316155 0.030790 -0.783274
O20   O     O_3   0.143007 0.364215 0.570935 -0.703431
O21   O     O_3   0.857004 0.635818 0.429072 -0.703435
O22   O     O_3   0.872690 0.382177 0.574797 -0.735368
O23   O     O_R   0.683230 0.614620 0.500000 -0.602606
O24   O     O_3   0.127306 0.617862 0.425210 -0.735346
O25   O     O_R   0.316770 0.385380 0.500000 -0.602554
O26   O     O_R   0.500030 0.614650 0.428760 -0.596289
O27   O     O_R   0.499970 0.385350 0.571240 -0.596276
O28   O     O_R   0.499970 0.614650 0.571240 -0.623265
O29   O     O_R   0.500030 0.385350 0.428760 -0.623274
O30   O     O_2   0.279112 0.538688 0.199219 -0.447611
Zn1   Zn    Zn3+2 0.500000 0.653120 0.500000 1.025112
Zn2   Zn    Zn3+2 0.500000 0.346880 0.500000 1.025143

loop_
_geom_bond_atom_site_label_1
_geom_bond_atom_site_label_2
_ccdc_geom_bond_type
C2    C35   A    
C18   H20   S    
O27   Zn2   S    
C23   C45   A    
H7    O14   S    
C31   O30   S    
C19   H21   S    
C27   N4    A    
C46   N2    S    
C35   O3    S    
H11   O18   S    
C47   C49   A    
O25   Zn2   S    
C12   O12   A    
C28   C29   A    
H8    O15   S    
C24   C26   A    
C5    C11   A    
C15   O17   S    
O26   Zn1   S    
C21   O21   S    
C11   C14   A    
C4    C41   A    
O23   Zn1   S    
C37   H18   S    
C15   C50   A    
H16   O22   S    
C27   O7    S    
C11   O18   S    
C16   O29   A    
C30   N3    A    
C33   N1    A    
H6    O13   S    
C29   N4    A    
C3    C38   A    
C22   C25   A    
H9    O16   S    
C33   O4    S    
C1    O25   A    
H23   O6    S    
C42   H1    S    
C2    C34   A    
H14   O20   S    
C27   C30   A    
C41   C43   A    
C40   O5    S    
C42   C44   A    
C49   O13   S    
C2    C14   A    
C16   O26   A    
C35   N2    A    
C22   O22   S    
O1    Zn1   S    
H15   O21   S    
H3    O9    S    
C23   C50   A    
C33   C50   A    
C41   O6    S    
C8    C18   A    
C44   N1    S    
C5    C9    A    
C17   O27   A    
C32   O2    S    
C19   C49   A    
C31   N1    A    
C4    C39   A    
N4    Zn2   S    
N3    Zn1   S    
C28   N3    A    
C4    C17   S    
C8    C10   A    
C20   C22   A    
C3    C40   A    
C7    C19   A    
C48   O11   S    
C13   C15   A    
C28   O8    S    
C9    C34   A    
C1    O1    A    
C32   C47   A    
C36   C44   A    
O12   Zn2   S    
C30   O10   S    
C36   C38   A    
C39   O14   S    
C36   H19   S    
C45   C48   A    
C7    C9    A    
C21   C25   A    
C18   C48   A    
C32   N2    A    
C5    C8    A    
C6    C7    A    
C10   C23   A    
C12   C25   S    
H2    O8    S    
C12   O23   A    
C37   C39   A    
C17   O28   A    
C6    C13   A    
H4    O10   S    
C1    C26   S    
C20   C26   A    
C38   O15   S    
C40   C42   A    
O29   Zn2   S    
C24   O24   S    
H24   O7    S    
C13   O19   S    
H5    O11   S    
C43   C46   A    
C29   O9    S    
H22   O5    S    
C6    C10   A    
H10   O17   S    
C20   O20   S    
H17   O24   S    
H13   O19   S    
C31   C45   A    
C21   C24   A    
C34   C47   A    
C37   C46   A    
C14   O16   S    
C3    C16   S    
C43   H12   S    
O28   Zn1   S    
