data_mof_unit_12313.cif
_audit_creation_date              2012-12-11T14:46:11-0500
_audit_creation_method            fapswitch 2.2
_symmetry_space_group_name_H-M    P1
_symmetry_Int_Tables_number       1
_space_group_crystal_system       triclinic
_cell_length_a                    10.822707
_cell_length_b                    10.990235
_cell_length_c                    18.841561
_cell_angle_alpha                 90.768289
_cell_angle_beta                  89.95771
_cell_angle_gamma                 119.463013
_cell_volume                      1951.03994352

loop_
_atom_site_label
_atom_site_type_symbol
_atom_type_description
_atom_site_fract_x
_atom_site_fract_y
_atom_site_fract_z
_atom_type_partial_charge
C1    C     C_R   0.866489 0.637667 0.604221 0.532292
C2    C     C_R   0.952567 0.176709 0.712031 0.014288
C3    C     C_R   0.901729 0.088511 0.771244 -0.020431
C4    C     C_R   0.270833 0.632325 0.604401 0.539080
C5    C     C_R   0.751707 0.221305 0.723954 0.006571
C6    C     C_R   0.698971 0.127936 0.779990 0.033451
C7    C     C_R   0.681236 0.296692 0.707001 -0.083194
C8    C     C_R   0.552457 0.267329 0.736955 -0.107083
C9    C     C_R   0.489819 0.160245 0.784748 -0.126834
C10   C     C_R   0.561525 0.090803 0.805410 -0.077912
C11   C     C_R   0.870914 0.236172 0.685397 -0.036547
C12   C     C_R   0.310734 0.551831 0.788659 0.254580
C13   C     C_R   0.714472 0.632806 0.704241 -0.157311
C14   C     C_R   0.695375 0.634707 0.777216 -0.124943
C15   C     C_R   0.803611 0.651231 0.824462 0.028894
C16   C     C_R   0.885939 0.285964 0.611708 0.541830
C17   C     C_R   0.927834 0.659164 0.798803 -0.148951
C18   C     C_R   0.945414 0.654869 0.726214 -0.137911
C19   C     C_R   0.841971 0.647487 0.678934 0.029259
C20   C     C_R   0.385648 0.598978 0.293245 -0.134873
C21   C     C_R   0.402988 0.607737 0.221056 -0.120746
C22   C     C_R   0.375556 0.700074 0.181756 0.036558
C23   C     C_R   0.325701 0.559276 0.716066 -0.117051
C24   C     C_R   0.338001 0.789881 0.216687 -0.138203
C25   C     C_R   0.316457 0.778245 0.289745 -0.125792
C26   C     C_R   0.335119 0.678432 0.327597 0.032719
C27   C     C_R   0.784144 0.272568 0.270816 -0.134401
C28   C     C_R   0.863906 0.639217 0.398175 0.543473
C29   C     C_R   0.773400 0.239814 0.199368 -0.123654
C30   C     C_R   0.856766 0.186946 0.169354 0.028090
C31   C     C_R   0.963607 0.184349 0.210098 -0.140416
C32   C     C_R   0.978374 0.223462 0.281657 -0.126837
C33   C     C_R   0.883457 0.261226 0.312934 0.029644
C34   C     C_R   0.316696 0.663637 0.678559 -0.024753
C35   C     C_R   0.912461 0.785891 0.294368 -0.128004
C36   C     C_R   0.907799 0.793362 0.221895 -0.129342
C37   C     C_R   0.807273 0.678749 0.181864 0.036579
C38   C     C_R   0.706051 0.558521 0.216365 -0.149607
C39   C     C_R   0.711853 0.550626 0.289983 -0.149598
C40   C     C_R   0.272958 0.634694 0.397212 0.546940
C41   C     C_R   0.821004 0.661280 0.328526 0.034676
C42   C     C_R   0.765847 0.039008 0.887060 0.533020
C43   C     C_R   0.390175 0.698087 0.897667 0.525881
C44   C     C_R   0.796397 0.689610 0.897503 0.526223
C45   C     C_R   0.785478 0.077737 0.810463 -0.045218
C46   C     C_R   0.810146 0.111003 0.101684 0.557820
C47   C     C_R   0.404520 0.708421 0.106198 0.546319
C48   C     C_R   0.795681 0.700099 0.106763 0.550161
C49   C     C_R   0.887846 0.292650 0.388673 0.571248
C50   C     C_R   0.309422 0.771097 0.716237 -0.159402
C51   C     C_R   0.310486 0.772146 0.790317 -0.206835
C52   C     C_R   0.324547 0.669658 0.826850 0.005187
C53   C     C_3   0.161304 0.366559 0.856061 -0.075958
C54   C     C_R   0.966177 0.009355 0.788648 -0.098551
C55   C     C_R   0.088368 0.026982 0.755514 -0.104446
C56   C     C_R   0.150568 0.127545 0.704148 -0.104022
C57   C     C_R   0.084693 0.202580 0.682963 -0.070961
Cr1   Cr    Cr6+3 0.791660 0.390250 0.499930 1.005453
Cr2   Cr    Cr6+3 0.098520 0.708290 0.500540 1.012694
Cr3   Cr    Cr6+3 0.109770 0.401430 0.499480 1.001444
Cr4   Cr    Cr6+3 0.874790 0.925890 0.000070 0.999442
Cr5   Cr    Cr6+3 0.574120 0.948670 0.999300 1.002568
Cr6   Cr    Cr6+3 0.551420 0.625320 0.000920 1.028812
H1    H     H_    0.294834 0.849175 0.688810 0.147612
H2    H     H_    0.437409 0.540374 0.196088 0.139960
H3    H     H_    0.321169 0.864811 0.187519 0.119971
H4    H     H_    0.298178 0.851111 0.819047 0.108727
H5    H     H_    0.277484 0.841233 0.315648 0.134458
H6    H     H_    0.710900 0.301514 0.293823 0.121713
H7    H     H_    0.691415 0.245523 0.169054 0.132665
H8    H     H_    0.029774 0.145060 0.187937 0.115612
H9    H     H_    0.058993 0.217410 0.312962 0.130855
H10   H     H_    0.994975 0.875274 0.322869 0.132859
H11   H     H_    0.983135 0.890624 0.197542 0.130061
H12   H     H_    0.500470 0.325923 0.722008 0.127639
H13   H     H_    0.623702 0.471347 0.186619 0.110739
H14   H     H_    0.635750 0.456387 0.316261 0.112399
H15   H     H_    0.332078 0.475297 0.688981 0.134357
H16   H     H_    0.135470 0.963963 0.770415 0.110009
H17   H     H_    0.249053 0.146480 0.679942 0.105021
H18   H     H_    0.916910 0.929042 0.825406 0.169017
H19   H     H_    0.143419 0.283195 0.645691 0.157429
H20   H     H_    0.509245 0.009927 0.843053 0.161674
H21   H     H_    0.135752 0.258868 0.869476 0.163317
H22   H     H_    0.073883 0.360472 0.822479 0.108824
H23   H     H_    0.725345 0.378883 0.670470 0.159218
H24   H     H_    0.164776 0.420814 0.906704 0.135808
H25   H     H_    0.387693 0.133179 0.807318 0.117058
H26   H     H_    0.631928 0.622022 0.667996 0.113262
H27   H     H_    0.599984 0.631725 0.796765 0.156039
H28   H     H_    0.011775 0.672189 0.834679 0.117080
H29   H     H_    0.038928 0.655526 0.706280 0.130308
H30   H     H_    0.402699 0.522938 0.321264 0.129651
O1    O     O_R   0.766500 0.250040 0.579790 -0.499298
O2    O     O_R   0.413330 0.603360 0.920440 -0.469462
O3    O     O_R   0.676110 0.626250 0.926750 -0.486027
O4    O     O_R   0.798570 0.516780 0.574780 -0.539155
O5    O     O_R   0.895350 0.809870 0.080950 -0.525637
O6    O     O_R   0.872490 0.049760 0.073800 -0.501024
O7    O     O_R   0.691680 0.088070 0.079070 -0.517877
O8    O     O_R   0.451720 0.825250 0.074050 -0.500977
O9    O     O_R   0.413580 0.606370 0.080960 -0.531265
O10   O     O_R   0.676340 0.629040 0.075550 -0.506092
O11   O     O_3   0.666780 0.833290 0.000090 -0.265384
O12   O     O_R   0.218690 0.701900 0.425960 -0.502496
O13   O     O_R   0.984000 0.732950 0.581090 -0.503822
O14   O     O_R   0.218600 0.700890 0.574760 -0.498166
O15   O     O_R   0.249390 0.515350 0.579940 -0.550226
O16   O     O_R   0.982790 0.280900 0.573700 -0.502293
O17   O     O_R   0.766600 0.251130 0.419260 -0.504537
O18   O     O_R   0.798660 0.517790 0.425980 -0.523363
O19   O     O_R   0.984100 0.734040 0.420570 -0.520854
O20   O     O_3   0.293517 0.431954 0.820984 -0.559846
O21   O     O_R   0.249490 0.516440 0.419420 -0.531710
O22   O     O_R   0.982880 0.281910 0.424890 -0.496096
O23   O     O_3   0.999980 0.499990 0.499980 -0.282257
O24   O     O_R   0.895110 0.806860 0.920430 -0.547889
O25   O     O_R   0.872260 0.046970 0.925000 -0.513363
O26   O     O_R   0.691430 0.085060 0.918550 -0.517475
O27   O     O_R   0.451490 0.822460 0.925250 -0.542166

loop_
_geom_bond_atom_site_label_1
_geom_bond_atom_site_label_2
_ccdc_geom_bond_type
C46   O6    A    
C47   O8    A    
C6    C45   A    
C27   C29   A    
C50   H1    S    
C10   H20   S    
Cr3   O21   S    
C35   C36   A    
C17   H28   S    
C20   H30   S    
C2    C57   A    
C7    C8    A    
C39   C41   A    
C38   H13   S    
C27   C33   A    
Cr1   O4    S    
C12   C23   A    
Cr2   O12   S    
C53   H21   S    
C39   H14   S    
C36   C37   A    
C15   C44   S    
C5    C11   A    
C9    H25   S    
C30   C31   A    
C3    C54   A    
C42   O26   A    
C7    H23   S    
C33   C49   S    
Cr6   O2    S    
C28   C41   S    
C56   C57   A    
C18   C19   A    
C14   H27   S    
Cr3   O16   S    
Cr2   O19   S    
C40   O21   A    
Cr4   O5    S    
C8    C9    A    
C43   O2    A    
C29   C30   A    
C9    C10   A    
Cr5   O27   S    
C27   H6    S    
C24   H3    S    
C1    O13   A    
Cr5   O8    S    
C13   H26   S    
C31   H8    S    
C22   C47   S    
C47   O9    A    
C13   C14   A    
Cr1   O23   S    
Cr4   O6    S    
C25   H5    S    
Cr6   O9    S    
C35   C41   A    
C2    C11   A    
C12   C52   A    
C53   O20   S    
C16   O16   A    
C50   C51   A    
Cr5   O11   S    
C28   O18   A    
C38   C39   A    
C4    O14   A    
C4    C34   S    
C1    C19   S    
Cr2   O13   S    
C34   C50   A    
C13   C19   A    
Cr4   O24   S    
C51   C52   A    
Cr4   O11   S    
C24   C25   A    
C32   H9    S    
C1    O4    A    
C5    C7    A    
Cr2   O23   S    
C25   C26   A    
C48   O10   A    
Cr6   O3    S    
C3    C45   A    
C8    H12   S    
Cr2   O14   S    
Cr1   O18   S    
C42   C45   S    
C37   C38   A    
C44   O3    A    
C55   H16   S    
C11   C16   S    
C31   C32   A    
C14   C15   A    
C23   C34   A    
C55   C56   A    
C17   C18   A    
C53   H24   S    
C51   H4    S    
C37   C48   S    
Cr5   O26   S    
C36   H11   S    
Cr5   O7    S    
Cr6   O10   S    
C49   O22   A    
C22   C24   A    
Cr3   O23   S    
C29   H7    S    
C15   C17   A    
C46   O7    A    
C54   C55   A    
C35   H10   S    
C21   H2    S    
Cr4   O25   S    
Cr1   O17   S    
C30   C46   S    
C42   O25   A    
Cr6   O11   S    
Cr3   O15   S    
C6    C10   A    
C48   O5    A    
C43   O27   A    
C16   O1    A    
C56   H17   S    
C18   H29   S    
C32   C33   A    
C2    C3    A    
Cr1   O1    S    
C26   C40   S    
C5    C6    A    
C20   C26   A    
C44   O24   A    
C12   O20   S    
C23   H15   S    
C43   C52   S    
C20   C21   A    
C57   H19   S    
C40   O12   A    
Cr3   O22   S    
C53   H22   S    
C4    O15   A    
C21   C22   A    
C28   O19   A    
C54   H18   S    
C49   O17   A    
