data_mof_unit_37688.cif
_audit_creation_date              2012-10-26T17:13:08-0400
_audit_creation_method            fapswitch 2.2
_symmetry_space_group_name_H-M    P1
_symmetry_Int_Tables_number       1
_space_group_crystal_system       triclinic
_cell_length_a                    16.849296
_cell_length_b                    16.856755
_cell_length_c                    16.850701
_cell_angle_alpha                 67.418924
_cell_angle_beta                  67.430242
_cell_angle_gamma                 67.424826
_cell_volume                      3920.50895169

loop_
_atom_site_label
_atom_site_type_symbol
_atom_type_description
_atom_site_fract_x
_atom_site_fract_y
_atom_site_fract_z
_atom_type_partial_charge
C1    C     C_R   0.311246 0.001804 0.436595 0.056460
C2    C     C_R   0.679794 0.038187 0.548262 0.021413
C3    C     C_R   0.001899 0.436543 0.311230 0.056641
C4    C     C_R   0.038205 0.548275 0.679784 0.021303
C5    C     C_R   0.436667 0.311144 0.001692 0.056603
C6    C     C_R   0.548586 0.680131 0.036666 0.062604
C7    C     C_R   0.563472 0.998525 0.688789 0.058118
C8    C     C_R   0.451646 0.963253 0.319856 0.061971
C9    C     C_R   0.688966 0.563544 0.997878 0.057498
C10   C     C_R   0.320009 0.451454 0.962854 0.063671
C11   C     C_R   0.998663 0.688750 0.563368 0.057401
C12   C     C_R   0.963344 0.319817 0.451637 0.063626
C13   C     C_R   0.454081 0.992882 0.449842 -0.055331
C14   C     C_R   0.550174 0.007638 0.546043 -0.058226
C15   C     C_R   0.992991 0.449798 0.454050 -0.055899
C16   C     C_R   0.007743 0.546017 0.550121 -0.058812
C17   C     C_R   0.449959 0.453970 0.992497 -0.058717
C18   C     C_R   0.546174 0.550241 0.006895 -0.058153
C19   C     C_R   0.015458 0.830951 0.569113 0.857952
C20   C     C_R   0.972965 0.171419 0.435115 0.843118
C21   C     C_R   0.830992 0.569132 0.015325 0.861150
C22   C     C_R   0.171417 0.435105 0.972928 0.843108
C23   C     C_R   0.569121 0.015441 0.830959 0.852918
C24   C     C_R   0.435121 0.972958 0.171423 0.856787
C25   C     C_R   0.430879 0.169031 0.984619 0.855019
C26   C     C_R   0.564924 0.828584 0.026994 0.856731
C27   C     C_R   0.984603 0.430887 0.169062 0.857623
C28   C     C_R   0.026845 0.564998 0.828642 0.819519
C29   C     C_R   0.169067 0.984594 0.430889 0.857505
C30   C     C_R   0.828636 0.026861 0.564991 0.820087
C31   C     C_R   0.405571 0.985452 0.402072 -0.027897
C32   C     C_R   0.597808 0.015378 0.594448 -0.008036
C33   C     C_R   0.985553 0.402025 0.405554 -0.028147
C34   C     C_R   0.015466 0.594433 0.597752 -0.008391
C35   C     C_R   0.402196 0.405429 0.985153 -0.027607
C36   C     C_R   0.594667 0.597999 0.014326 -0.027145
C37   C     C_R   0.263925 0.986607 0.391498 -0.098779
C38   C     C_R   0.731008 0.036744 0.600078 -0.109563
C39   C     C_R   0.986648 0.391481 0.263922 -0.097754
C40   C     C_R   0.036735 0.600083 0.731003 -0.108943
C41   C     C_R   0.391492 0.263827 0.986615 -0.097203
C42   C     C_R   0.600160 0.731065 0.036169 -0.084617
C43   C     C_R   0.608563 0.013581 0.736138 -0.099096
C44   C     C_R   0.400003 0.963698 0.268969 -0.084934
C45   C     C_R   0.736228 0.608597 0.013166 -0.099037
C46   C     C_R   0.268990 0.399871 0.963576 -0.086996
C47   C     C_R   0.013633 0.736116 0.608514 -0.100946
C48   C     C_R   0.963743 0.268953 0.400002 -0.087132
C49   C     C_R   0.484937 0.967794 0.730921 0.109979
C50   C     C_R   0.547199 0.944083 0.291503 0.117881
C51   C     C_R   0.968031 0.730834 0.484757 0.109475
C52   C     C_R   0.944175 0.291477 0.547191 0.118356
C53   C     C_R   0.731107 0.484879 0.967418 0.112667
C54   C     C_R   0.291769 0.546941 0.943310 0.115905
C55   C     C_R   0.269135 0.032129 0.515353 0.111026
C56   C     C_R   0.708006 0.057682 0.452411 0.126992
C57   C     C_R   0.515436 0.269088 0.032057 0.111158
C58   C     C_R   0.453069 0.708359 0.056064 0.115660
C59   C     C_R   0.032288 0.515254 0.269099 0.111332
C60   C     C_R   0.057683 0.452452 0.708024 0.126774
C61   C     C_R   0.308836 0.970112 0.307957 -0.303550
C62   C     C_R   0.692156 0.029989 0.691309 -0.282888
C63   C     C_R   0.970130 0.307963 0.308844 -0.304136
C64   C     C_R   0.029979 0.691292 0.692139 -0.283276
C65   C     C_R   0.307897 0.308703 0.970176 -0.304138
C66   C     C_R   0.691336 0.692125 0.029669 -0.303930
C67   C     C_R   0.671916 0.026856 0.410632 0.099534
C68   C     C_R   0.320139 0.013625 0.572930 0.046688
C69   C     C_R   0.026861 0.410677 0.671926 0.099534
C70   C     C_R   0.013838 0.572813 0.320071 0.047158
C71   C     C_R   0.410576 0.671935 0.026091 0.048228
C72   C     C_R   0.573021 0.320095 0.013492 0.047284
C73   C     C_R   0.589671 0.974043 0.327996 0.048383
C74   C     C_R   0.427295 0.986249 0.680020 0.047503
C75   C     C_R   0.328203 0.589505 0.973180 0.048877
C76   C     C_R   0.680153 0.427286 0.985889 0.047894
C77   C     C_R   0.974105 0.328006 0.589663 0.048908
C78   C     C_R   0.986517 0.679905 0.427154 0.046421
C79   C     C_R   0.714552 0.016831 0.323644 -0.186168
C80   C     C_R   0.281664 0.009722 0.664247 -0.196934
C81   C     C_R   0.016815 0.323718 0.714582 -0.186352
C82   C     C_R   0.010033 0.664083 0.281550 -0.200873
C83   C     C_R   0.323725 0.714634 0.015452 -0.209936
C84   C     C_R   0.664328 0.281641 0.009687 -0.196726
C85   C     C_R   0.676450 0.985021 0.285218 -0.226365
C86   C     C_R   0.336064 0.989774 0.718593 -0.196161
C87   C     C_R   0.285473 0.676350 0.983717 -0.209624
C88   C     C_R   0.718688 0.336032 0.989649 -0.197448
C89   C     C_R   0.985039 0.285275 0.676468 -0.226295
C90   C     C_R   0.990119 0.718428 0.335904 -0.200758
C91   C     C_R   0.544233 0.992043 0.410933 0.023817
C92   C     C_R   0.463146 0.998943 0.587716 0.026189
C93   C     C_R   0.992115 0.410927 0.544213 0.023564
C94   C     C_R   0.999121 0.587642 0.463064 0.025847
C95   C     C_R   0.411022 0.544108 0.991497 0.024691
C96   C     C_R   0.587844 0.463155 0.998459 0.026416
C97   C     C_R   0.589188 0.008400 0.456011 0.010513
C98   C     C_R   0.412420 0.001242 0.536972 0.027158
C99   C     C_R   0.456022 0.589136 0.007827 0.025194
C100  C     C_R   0.537084 0.412367 0.000923 0.025993
C101  C     C_R   0.008453 0.456018 0.589168 0.010524
C102  C     C_R   0.001404 0.536895 0.412361 0.027254
Cu1   Cu    Cu3+1 0.995180 0.995180 0.424630 0.908484
Cu2   Cu    Cu3+1 0.004820 0.004820 0.575370 0.918317
Cu3   Cu    Cu3+1 0.995180 0.424630 0.995180 0.910483
Cu4   Cu    Cu3+1 0.004820 0.575370 0.004820 0.918233
Cu5   Cu    Cu3+1 0.424630 0.995180 0.995180 0.921677
Cu6   Cu    Cu3+1 0.575370 0.004820 0.004820 0.918878
H1    H     H_    0.271353 0.965024 0.271154 0.190088
H2    H     H_    0.729116 0.034648 0.728903 0.188210
H3    H     H_    0.964996 0.271194 0.271374 0.190640
H4    H     H_    0.034591 0.728878 0.729117 0.188092
H5    H     H_    0.271016 0.271210 0.965249 0.190655
H6    H     H_    0.728814 0.728918 0.034757 0.189844
H7    H     H_    0.305285 0.982676 0.789401 0.128979
H8    H     H_    0.713217 0.974289 0.219990 0.128956
H9    H     H_    0.983096 0.789199 0.305077 0.128578
H10   H     H_    0.974295 0.220068 0.713255 0.129039
H11   H     H_    0.789480 0.305228 0.982667 0.128984
H12   H     H_    0.220405 0.713161 0.972561 0.126635
H13   H     H_    0.210906 0.016533 0.695118 0.128464
H14   H     H_    0.779339 0.028911 0.286985 0.133728
H15   H     H_    0.695189 0.210884 0.016659 0.128513
H16   H     H_    0.286881 0.779691 0.026550 0.126712
H17   H     H_    0.016890 0.694928 0.210783 0.128493
H18   H     H_    0.028856 0.287088 0.779391 0.133805
O1    O     O_R   0.124540 0.978640 0.385460 -0.592938
O2    O     O_R   0.875460 0.021360 0.614540 -0.588448
O3    O     O_R   0.978640 0.385460 0.124540 -0.591794
O4    O     O_R   0.021360 0.614540 0.875460 -0.588785
O5    O     O_R   0.385460 0.124540 0.978640 -0.593741
O6    O     O_R   0.614540 0.875460 0.021360 -0.598894
O7    O     O_R   0.614540 0.021360 0.875460 -0.595954
O8    O     O_R   0.385460 0.978640 0.124540 -0.598864
O9    O     O_R   0.875460 0.614540 0.021360 -0.594526
O10   O     O_R   0.124540 0.385460 0.978640 -0.606374
O11   O     O_R   0.021360 0.875460 0.614540 -0.594795
O12   O     O_R   0.978640 0.124540 0.385460 -0.606158
O13   O     O_R   0.013780 0.867370 0.487190 -0.568595
O14   O     O_R   0.986220 0.132630 0.512810 -0.568640
O15   O     O_R   0.867370 0.487190 0.013780 -0.568276
O16   O     O_R   0.132630 0.512810 0.986220 -0.569008
O17   O     O_R   0.487190 0.013780 0.867370 -0.570340
O18   O     O_R   0.512810 0.986220 0.132630 -0.572315
O19   O     O_R   0.512810 0.132630 0.986220 -0.572402
O20   O     O_R   0.487190 0.867370 0.013780 -0.572756
O21   O     O_R   0.986220 0.512810 0.132630 -0.571650
O22   O     O_R   0.013780 0.487190 0.867370 -0.597391
O23   O     O_R   0.132630 0.986220 0.512810 -0.571654
O24   O     O_R   0.867370 0.013780 0.487190 -0.597237
N1    N     N_3   0.477608 0.898951 0.814649 -0.556090
H19   H     H_    0.484207 0.840014 0.802583 0.212817
H20   H     H_    0.414144 0.916306 0.858291 0.227274
N2    N     N_3   0.600412 0.879050 0.242184 -0.568433
H21   H     H_    0.636103 0.823867 0.282828 0.212569
H22   H     H_    0.646932 0.905580 0.185636 0.226316
N3    N     N_3   0.899183 0.814538 0.477321 -0.553255
H23   H     H_    0.840239 0.802473 0.483862 0.212017
H24   H     H_    0.916607 0.858141 0.413850 0.226556
N4    N     N_3   0.879149 0.242128 0.600410 -0.572601
H25   H     H_    0.823935 0.282730 0.636100 0.211980
H26   H     H_    0.905716 0.185601 0.646924 0.226751
N5    N     N_3   0.815001 0.477283 0.898813 -0.554158
H27   H     H_    0.803157 0.483678 0.839803 0.211578
H28   H     H_    0.858538 0.413839 0.916471 0.226663
N6    N     N_3   0.242521 0.599905 0.878134 -0.573130
H29   H     H_    0.283201 0.635475 0.822866 0.212198
H30   H     H_    0.185933 0.646502 0.904468 0.226779
N7    N     N_3   0.185264 0.100748 0.523007 -0.553711
H31   H     H_    0.197152 0.159712 0.516612 0.216592
H32   H     H_    0.141756 0.083095 0.586486 0.226877
N8    N     N_3   0.752938 0.126122 0.396562 -0.580659
H33   H     H_    0.758730 0.159336 0.434363 0.223368
H34   H     H_    0.816173 0.098401 0.358285 0.236279
N9    N     N_3   0.523135 0.185250 0.100712 -0.554555
H35   H     H_    0.516812 0.197135 0.159669 0.216484
H36   H     H_    0.586603 0.141748 0.083025 0.226897
N10   N     N_3   0.399974 0.757500 0.121276 -0.568251
H37   H     H_    0.364375 0.716788 0.176466 0.213737
H38   H     H_    0.353378 0.814078 0.094905 0.226043
N11   N     N_3   0.100907 0.522889 0.185219 -0.554307
H39   H     H_    0.159915 0.516486 0.197080 0.214230
H40   H     H_    0.083254 0.586346 0.141695 0.226668
N12   N     N_3   0.126143 0.396621 0.752972 -0.580815
H41   H     H_    0.159369 0.434411 0.758767 0.223304
H42   H     H_    0.098411 0.358343 0.816203 0.236360

loop_
_geom_bond_atom_site_label_1
_geom_bond_atom_site_label_2
_ccdc_geom_bond_type
C68   C80   A    
C83   C87   A    
C9    C45   A    
N3    H23   S    
C60   N12   S    
C81   H18   S    
C18   C96   A    
N7    H31   S    
C6    C58   A    
C11   C47   A    
N5    H27   S    
C79   C85   A    
C12   C48   A    
C61   H1    S    
C55   C68   A    
C75   C95   A    
N9    H36   S    
N11   H39   S    
C78   C90   A    
C84   H15   S    
C77   C89   A    
N5    H28   S    
C69   C81   A    
C50   N2    S    
Cu5   O8    S    
C55   N7    S    
Cu3   O15   S    
N12   H42   S    
C19   C47   S    
C58   C71   A    
C64   H4    S    
C28   C40   S    
C95   C99   A    
C74   C92   A    
C96   C100  A    
C1    C31   A    
C23   C43   S    
N12   H41   S    
C30   C38   S    
C2    C32   A    
C20   O12   A    
C13   C98   A    
C59   N11   S    
C80   C86   A    
Cu1   Cu2   S    
Cu1   O24   S    
C16   C34   A    
C57   N9    S    
C30   O2    A    
C4    C40   A    
C27   C39   S    
C62   H2    S    
C10   C46   A    
C9    C36   A    
Cu5   Cu6   S    
C10   C35   A    
C17   C95   A    
C7    C43   A    
C83   H16   S    
Cu1   O1    S    
C76   C88   A    
C71   C83   A    
C1    C37   A    
C81   C89   A    
N1    H19   S    
C3    C39   A    
N3    H24   S    
C13   C91   A    
N6    H30   S    
N7    H32   S    
C23   O17   A    
C65   H5    S    
C54   N6    S    
C10   C54   A    
C12   C52   A    
N8    H34   S    
Cu4   O16   S    
C21   C45   S    
C80   H13   S    
N11   H40   S    
C79   H14   S    
C4    C34   A    
C28   O22   A    
C21   O9    A    
C23   O7    A    
C92   C98   A    
C90   H9    S    
N10   H37   S    
C67   C79   A    
C7    C49   A    
C46   C65   A    
Cu5   O5    S    
C50   C73   A    
C25   C41   S    
C47   C64   A    
C85   H8    S    
Cu5   O20   S    
C49   N1    S    
C53   N5    S    
C48   C63   A    
C41   C65   A    
C26   O20   A    
Cu3   O22   S    
C71   C99   A    
C51   N3    S    
C91   C97   A    
Cu4   O21   S    
Cu2   O14   S    
C22   O10   A    
C86   H7    S    
N4    H26   S    
Cu2   O23   S    
C8    C44   A    
C82   H17   S    
Cu1   O13   S    
C2    C38   A    
N10   H38   S    
N9    H35   S    
Cu2   O2    S    
C19   O11   A    
C73   C85   A    
C22   O16   A    
C58   N10   S    
C20   C48   S    
C74   C86   A    
C88   H11   S    
C73   C91   A    
N2    H21   S    
C72   C84   A    
Cu3   O10   S    
C75   C87   A    
Cu4   O9    S    
C22   C46   S    
C14   C92   A    
C29   O1    A    
Cu3   O3    S    
N6    H29   S    
C27   O3    A    
Cu1   O12   S    
C53   C76   A    
C9    C53   A    
C18   C99   A    
C93   C101  A    
C52   C77   A    
C25   O5    A    
C8    C50   A    
Cu6   O18   S    
C26   O6    A    
N8    H33   S    
C26   C42   S    
C14   C97   A    
Cu6   O19   S    
C72   C100  A    
C24   O8    A    
Cu4   O4    S    
C5    C41   A    
C7    C32   A    
C66   H6    S    
C30   O24   A    
Cu2   O11   S    
C8    C31   A    
N2    H22   S    
C13   C31   A    
C11   C34   A    
C15   C102  A    
C84   C88   A    
C14   C32   A    
C4    C60   A    
C82   C90   A    
C15   C93   A    
C37   C61   A    
C70   C102  A    
C78   C94   A    
C69   C101  A    
C44   C61   A    
C56   C67   A    
C39   C63   A    
Cu3   Cu4   S    
C16   C94   A    
C40   C64   A    
C5    C57   A    
N4    H25   S    
C20   O14   A    
C1    C55   A    
C51   C78   A    
C21   O15   A    
C87   H12   S    
C27   O21   A    
C2    C56   A    
C76   C96   A    
C18   C36   A    
C60   C69   A    
C24   O18   A    
C24   C44   S    
C5    C35   A    
C77   C93   A    
C6    C36   A    
C28   O4    A    
N1    H20   S    
C57   C72   A    
C63   H3    S    
C70   C82   A    
C17   C100  A    
C68   C98   A    
Cu6   O6    S    
C11   C51   A    
C67   C97   A    
C59   C70   A    
C29   O23   A    
C54   C75   A    
C16   C101  A    
Cu6   O7    S    
C89   H10   S    
C94   C102  A    
C19   O13   A    
C6    C42   A    
C29   C37   S    
C45   C66   A    
C42   C66   A    
C3    C33   A    
C49   C74   A    
C25   O19   A    
C17   C35   A    
C12   C33   A    
Cu5   O17   S    
C52   N4    S    
C15   C33   A    
C56   N8    S    
C43   C62   A    
C38   C62   A    
C3    C59   A    
