data_mof_unit_38756.cif
_audit_creation_date              2012-10-26T18:50:03-0400
_audit_creation_method            fapswitch 2.2
_symmetry_space_group_name_H-M    P1
_symmetry_Int_Tables_number       1
_space_group_crystal_system       triclinic
_cell_length_a                    10.791556
_cell_length_b                    13.155078
_cell_length_c                    11.770607
_cell_angle_alpha                 98.868671
_cell_angle_beta                  94.749612
_cell_angle_gamma                 90.349195
_cell_volume                      1645.05033538

loop_
_atom_site_label
_atom_site_type_symbol
_atom_type_description
_atom_site_fract_x
_atom_site_fract_y
_atom_site_fract_z
_atom_type_partial_charge
C1    C     C_R   0.508959 0.299899 0.480356 0.550663
C2    C     C_R   0.495793 0.862680 0.428117 -0.031922
C3    C     C_R   0.470716 0.028951 0.540545 0.002031
C4    C     C_R   0.515377 0.970273 0.442103 -0.008996
C5    C     C_R   0.377491 0.405307 0.024675 -0.080550
C6    C     C_R   0.616360 0.599637 0.975877 -0.079369
C7    C     C_R   0.391645 0.414006 0.145894 0.094623
C8    C     C_R   0.607782 0.586426 0.854386 0.093078
C9    C     C_R   0.551889 0.540729 0.157574 0.120487
C10   C     C_R   0.444092 0.462724 0.842769 0.118525
C11   C     C_R   0.540940 0.537625 0.034303 -0.046720
C12   C     C_R   0.495160 0.700914 0.519953 0.550120
C13   C     C_R   0.452587 0.467688 0.966245 -0.049946
C14   C     C_R   0.262860 0.514194 0.500543 0.550406
C15   C     C_R   0.737716 0.487624 0.499659 0.547750
C16   C     C_R   0.132194 0.586273 0.710259 -0.067272
C17   C     C_R   0.874075 0.415756 0.289146 -0.077524
C18   C     C_R   0.089108 0.573974 0.816002 0.020465
C19   C     C_R   0.932045 0.411536 0.186375 0.019964
C20   C     C_R   0.985180 0.510206 0.816689 -0.084190
C21   C     C_R   0.034166 0.476509 0.184974 -0.094093
C22   C     C_R   0.917371 0.468612 0.713054 0.022655
C23   C     C_R   0.480445 0.814600 0.527018 -0.016340
C24   C     C_R   0.088952 0.530540 0.288442 0.024776
C25   C     C_R   0.951255 0.494077 0.606260 0.007714
C26   C     C_R   0.050478 0.510497 0.394994 0.006973
C27   C     C_R   0.070484 0.538009 0.605365 -0.000666
C28   C     C_R   0.930880 0.467920 0.394868 -0.004356
C29   C     C_R   0.874635 0.474133 0.500330 -0.042645
C30   C     C_R   0.126386 0.531191 0.500287 -0.037200
C31   C     C_1   0.285503 0.329966 0.965370 0.167860
C32   C     C_1   0.704870 0.677519 0.035637 0.161029
C33   C     C_3   0.159625 0.622639 0.927265 -0.287908
C34   C     C_R   0.526138 0.186978 0.472562 -0.003680
C35   C     C_3   0.080632 0.701299 0.996346 -0.407479
C36   C     C_3   0.888639 0.335387 0.080981 -0.286956
C37   C     C_3   0.761612 0.361232 0.028315 -0.427073
C38   C     C_1   0.829628 0.386404 0.717696 0.195376
C39   C     C_1   0.165980 0.618972 0.283985 0.207920
C40   C     C_1   0.469942 0.807112 0.312347 0.251621
C41   C     C_1   0.502153 0.185085 0.680442 0.252972
C42   C     C_3   0.440330 0.836425 0.743347 -0.260983
C43   C     C_3   0.438372 0.916342 0.852857 -0.453172
C44   C     C_3   0.685917 0.185170 0.326340 -0.284327
C45   C     C_R   0.581242 0.020588 0.364845 0.023034
C46   C     C_3   0.805133 0.201462 0.407333 -0.442255
C47   C     C_3   0.655565 0.959927 0.272586 -0.252054
C48   C     C_3   0.591670 0.959489 0.151065 -0.418248
C49   C     C_3   0.293784 0.023652 0.672124 -0.266860
C50   C     C_3   0.202693 0.065707 0.584738 -0.414731
C51   C     C_1   0.351064 0.398827 0.769594 0.314751
C52   C     C_1   0.645076 0.604472 0.230826 0.311035
C53   C     C_1   0.690067 0.645613 0.797385 0.259940
C54   C     C_1   0.315557 0.349853 0.203049 0.280193
C55   C     C_R   0.409777 0.978614 0.618849 0.033231
C56   C     C_R   0.587634 0.130165 0.381869 0.025299
C57   C     C_R   0.443308 0.876963 0.628382 -0.003484
C58   C     C_R   0.489290 0.135577 0.561027 -0.036444
Cu1   Cu    Cu3+1 0.509250 0.507730 0.615930 0.987096
Cu2   Cu    Cu3+1 0.490750 0.492270 0.384070 0.988932
H1    H     H_    0.070804 0.484864 0.104032 0.094169
H2    H     H_    0.690914 0.361872 0.091669 0.148075
H3    H     H_    0.767060 0.437104 0.999067 0.159932
H4    H     H_    0.732739 0.302222 0.952648 0.189449
H5    H     H_    0.955968 0.332887 0.014036 0.168798
H6    H     H_    0.884388 0.257209 0.105443 0.151971
H7    H     H_    0.501611 0.982680 0.849974 0.175786
H8    H     H_    0.343170 0.942916 0.868027 0.148544
H9    H     H_    0.470778 0.879638 0.928484 0.140049
H10   H     H_    0.362165 0.780283 0.738698 0.142288
H11   H     H_    0.529333 0.797618 0.758352 0.192580
H12   H     H_    0.958183 0.491791 0.897940 0.102067
H13   H     H_    0.832855 0.128601 0.438274 0.163774
H14   H     H_    0.882622 0.226887 0.361489 0.144394
H15   H     H_    0.790774 0.260425 0.482917 0.163599
H16   H     H_    0.710053 0.144250 0.242483 0.137689
H17   H     H_    0.652571 0.258436 0.303392 0.163506
H18   H     H_    0.494775 0.929832 0.144887 0.176083
H19   H     H_    0.586920 0.037486 0.126879 0.139206
H20   H     H_    0.643872 0.910588 0.086846 0.171865
H21   H     H_    0.751827 0.991081 0.277474 0.146228
H22   H     H_    0.673194 0.880182 0.287564 0.178824
H23   H     H_    0.214405 0.633702 0.709968 0.113840
H24   H     H_    0.240531 0.136426 0.558742 0.177946
H25   H     H_    0.181969 0.006785 0.506936 0.159958
H26   H     H_    0.114390 0.085809 0.624314 0.156996
H27   H     H_    0.240949 0.962175 0.703132 0.152469
H28   H     H_    0.318400 0.084456 0.746990 0.181705
H29   H     H_    0.789646 0.372225 0.286829 0.124129
H30   H     H_    0.043647 0.758148 0.942124 0.173731
H31   H     H_    0.002169 0.662029 0.028186 0.176196
H32   H     H_    0.138367 0.743093 0.071664 0.177766
H33   H     H_    0.188492 0.562076 0.979400 0.147024
H34   H     H_    0.245972 0.662148 0.910049 0.144722
N1    N     N_R   0.523180 0.519350 0.790130 -0.274248
N2    N     N_1   0.719931 0.655790 0.289564 -0.275814
N3    N     N_1   0.756686 0.693703 0.753467 -0.298099
N4    N     N_1   0.253969 0.297877 0.247235 -0.292240
N5    N     N_R   0.476820 0.480650 0.209870 -0.279877
N6    N     N_1   0.211690 0.269445 0.920403 -0.301331
N7    N     N_1   0.776136 0.739833 0.081259 -0.319712
N8    N     N_1   0.760046 0.320099 0.721621 -0.296643
N9    N     N_1   0.225486 0.691578 0.281480 -0.290955
N10   N     N_1   0.449007 0.763894 0.219271 -0.299742
N11   N     N_1   0.515050 0.221781 0.776647 -0.306205
N12   N     N_1   0.276166 0.347387 0.711021 -0.277620
O1    O     O_R   0.506570 0.354460 0.582000 -0.476975
O2    O     O_R   0.493430 0.645540 0.418000 -0.476749
O3    O     O_R   0.490940 0.341410 0.386200 -0.516576
O4    O     O_R   0.509060 0.658590 0.613800 -0.528058
O5    O     O_R   0.327470 0.506520 0.597900 -0.512249
O6    O     O_R   0.672530 0.493480 0.402100 -0.514366
O7    O     O_R   0.311840 0.493460 0.402100 -0.488022
O8    O     O_R   0.688160 0.506540 0.597900 -0.482949

loop_
_geom_bond_atom_site_label_1
_geom_bond_atom_site_label_2
_ccdc_geom_bond_type
C6    C32   S    
C34   C56   A    
C49   H27   S    
Cu2   N5    S    
C33   H34   S    
Cu1   O4    S    
C12   O4    A    
C37   H2    S    
C50   H24   S    
C8    N1    A    
C12   C23   S    
C7    N5    A    
C48   H19   S    
C36   C37   S    
C19   C21   A    
C24   C26   A    
C41   C58   S    
C19   C36   S    
Cu1   O8    S    
C36   H6    S    
C22   C38   S    
C42   H10   S    
C24   C39   S    
C47   H22   S    
C48   H18   S    
C44   H16   S    
Cu2   O3    S    
C50   H25   S    
C1    O3    A    
C3    C55   A    
C45   C56   A    
C43   H8    S    
C22   C25   A    
Cu1   O5    S    
C5    C13   A    
Cu2   O2    S    
C35   H32   S    
C16   C27   A    
Cu1   Cu2   S    
C9    N5    A    
C27   C30   A    
C49   H28   S    
Cu2   O7    S    
C9    C52   S    
Cu1   N1    S    
C14   C30   S    
C10   C51   S    
C42   C57   S    
C46   H15   S    
C37   H3    S    
C44   C46   S    
C1    C34   S    
C15   C29   S    
C4    C45   A    
C45   C47   S    
C25   C29   A    
C14   O5    A    
C17   H29   S    
C6    C11   A    
C5    C7    A    
C36   H5    S    
C17   C19   A    
C6    C8    A    
C53   N3    T    
C49   C55   S    
C16   H23   S    
Cu1   O1    S    
C2    C4    A    
C3    C58   A    
Cu2   O6    S    
C40   N10   T    
C44   C56   S    
C47   C48   S    
C15   O8    A    
C31   N6    T    
C9    C11   A    
C41   N11   T    
C1    O1    A    
C16   C18   A    
C20   C22   A    
C26   C30   A    
C55   C57   A    
C42   C43   S    
C3    C4    A    
C46   H14   S    
C37   H4    S    
C12   O2    A    
C23   C57   A    
C28   C29   A    
C17   C28   A    
C21   H1    S    
C15   O6    A    
C20   H12   S    
C10   C13   A    
C33   H33   S    
C8    C53   S    
C39   N9    T    
C25   C27   A    
C14   O7    A    
C44   H17   S    
C26   C28   A    
C48   H20   S    
C38   N8    T    
C11   C13   A    
C10   N1    A    
C51   N12   T    
C42   H11   S    
C33   C35   S    
C52   N2    T    
C18   C20   A    
C47   H21   S    
C18   C33   S    
C50   H26   S    
C35   H30   S    
C2    C40   S    
C43   H7    S    
C49   C50   S    
C21   C24   A    
C2    C23   A    
C34   C58   A    
C32   N7    T    
C54   N4    T    
C7    C54   S    
C43   H9    S    
C46   H13   S    
C5    C31   S    
C35   H31   S    
