data_mof_unit_10553.cif
_audit_creation_date              2012-12-10T20:34:14-0500
_audit_creation_method            fapswitch 2.2
_symmetry_space_group_name_H-M    P1
_symmetry_Int_Tables_number       1
_space_group_crystal_system       triclinic
_cell_length_a                    9.902132
_cell_length_b                    10.616492
_cell_length_c                    13.634677
_cell_angle_alpha                 90.126077
_cell_angle_beta                  82.68324
_cell_angle_gamma                 89.614161
_cell_volume                      1421.64726757

loop_
_atom_site_label
_atom_site_type_symbol
_atom_type_description
_atom_site_fract_x
_atom_site_fract_y
_atom_site_fract_z
_atom_type_partial_charge
Br1   Br    Br    0.794989 0.741882 0.713864 -0.402432
Br2   Br    Br    0.438128 0.166679 0.715954 -0.375247
Br3   Br    Br    0.612056 0.148372 0.218987 -0.372612
Br4   Br    Br    0.616119 0.836431 0.225665 -0.371766
Br5   Br    Br    0.870397 0.315449 0.345183 -0.349501
C1    C     C_R   0.499549 0.739322 0.500756 0.872569
C2    C     C_3   0.484890 0.923261 0.321485 0.069119
C3    C     C_R   0.917931 0.581684 0.559241 0.139193
C4    C     C_R   0.475280 0.500478 0.685566 0.901831
C5    C     C_R   0.941281 0.426816 0.435661 0.305575
C6    C     C_R   0.084522 0.427382 0.435741 -0.071225
C7    C     C_R   0.060383 0.581393 0.559374 0.046069
C8    C     C_3   0.047341 0.587008 0.669512 -0.319446
C9    C     C_3   0.892786 0.588019 0.669445 0.016530
C10   C     C_R   0.500527 0.260596 0.499673 0.937392
C11   C     C_R   0.524676 0.499405 0.314455 0.911279
C12   C     C_1   0.455934 0.494271 0.789052 0.000754
C13   C     C_1   0.543618 0.489505 0.211137 -0.007838
C14   C     C_2   0.557011 0.464987 0.020275 -0.019376
C15   C     C_2   0.438560 0.474692 0.980432 -0.030446
C16   C     C_1   0.443728 0.485790 0.876523 0.035758
C17   C     C_1   0.554266 0.478260 0.123860 0.029348
C18   C     C_2   0.299982 0.482837 0.037743 0.477996
C19   C     C_2   0.107840 0.705250 0.705606 0.572106
C20   C     C_2   0.694623 0.448288 0.962975 0.511480
C21   C     C_2   0.455136 0.861699 0.691918 0.580548
C22   C     C_2   0.342959 0.125462 0.324751 0.377504
C23   C     C_R   0.538598 0.934499 0.418685 0.075205
C24   C     C_R   0.499698 0.871261 0.506222 -0.215297
C25   C     C_R   0.480206 0.934861 0.598174 -0.123076
C26   C     C_R   0.480473 0.067500 0.596773 0.282046
C27   C     C_R   0.502145 0.128809 0.504726 -0.166597
C28   C     C_R   0.538662 0.062725 0.417529 0.037389
C29   C     C_3   0.483831 0.068019 0.319595 0.105305
H1    H     H_    0.148618 0.366770 0.385358 0.189959
H2    H     H_    0.085055 0.499589 0.702242 0.197893
H3    H     H_    0.843808 0.501254 0.702075 0.201985
H4    H     H_    0.382489 0.879109 0.329060 0.154747
H5    H     H_    0.214458 0.511787 0.000293 0.099720
H6    H     H_    0.098760 0.794040 0.667493 0.099784
H7    H     H_    0.784394 0.465238 0.999161 0.088470
H8    H     H_    0.421409 0.765012 0.690516 0.028746
H9    H     H_    0.324164 0.201481 0.275062 0.134732
N1    N     N_R   0.857130 0.500860 0.500650 -0.149034
N2    N     N_R   0.142770 0.500820 0.500650 -0.125236
O1    O     O_R   0.385310 0.683210 0.499990 -0.630441
O2    O     O_2   0.167602 0.702087 0.778498 -0.568442
O3    O     O_2   0.710276 0.411515 0.877376 -0.548427
O4    O     O_2   0.476154 0.905890 0.771183 -0.446426
O5    O     O_2   0.249401 0.088430 0.384633 -0.545984
O6    O     O_R   0.614650 0.683240 0.500000 -0.571486
O7    O     O_R   0.368820 0.499950 0.640340 -0.618485
O8    O     O_R   0.598170 0.499990 0.640350 -0.593815
O9    O     O_R   0.385350 0.316760 0.500000 -0.602962
O10   O     O_R   0.614690 0.316790 0.500010 -0.568462
O11   O     O_R   0.401830 0.500010 0.359650 -0.607562
O12   O     O_R   0.631180 0.500050 0.359660 -0.573236
O13   O     O_2   0.278081 0.454005 0.124922 -0.554646
Zn1   Zn    Zn3+2 0.346870 0.499980 0.499990 0.993092
Zn2   Zn    Zn3+2 0.653130 0.500020 0.500010 1.055377

loop_
_geom_bond_atom_site_label_1
_geom_bond_atom_site_label_2
_ccdc_geom_bond_type
C8    H2    S    
C18   O13   D    
O11   Zn1   S    
C24   C25   A    
O6    Zn2   S    
O7    Zn1   S    
O1    Zn1   S    
C14   C15   D    
C15   C18   S    
C3    C7    A    
C27   C28   A    
C1    C24   S    
C11   O11   A    
C28   C29   S    
C10   C27   S    
C13   C17   T    
C8    C9    S    
C15   C16   S    
C9    H3    S    
C11   O12   A    
C20   O3    D    
C4    O7    A    
N1    Zn2   S    
Br4   C2    S    
C18   H5    S    
C4    C12   S    
C23   C24   A    
C19   H6    S    
C2    H4    S    
C23   C28   A    
C21   C25   S    
O9    Zn1   S    
Br2   C26   S    
C22   C29   S    
C25   C26   A    
C14   C20   S    
C2    C29   S    
C6    N2    A    
C4    O8    A    
C5    C6    A    
C5    N1    A    
C10   O9    A    
C22   H9    S    
Br5   C5    S    
C14   C17   S    
C7    C8    S    
C21   H8    S    
C22   O5    D    
C11   C13   S    
C21   O4    D    
C20   H7    S    
N2    Zn1   S    
O12   Zn2   S    
C3    C9    S    
Br1   C9    S    
C1    O1    A    
Br3   C29   S    
O10   Zn2   S    
C19   O2    D    
C6    H1    S    
O8    Zn2   S    
C26   C27   A    
C12   C16   T    
C2    C23   S    
C3    N1    A    
C8    C19   S    
C7    N2    A    
C1    O6    A    
C10   O10   A    
