data_mof_unit_13187.cif
_audit_creation_date              2013-03-05T16:47:21-0500
_audit_creation_method            fapswitch 2.2
_symmetry_space_group_name_H-M    P1
_symmetry_Int_Tables_number       1
_space_group_crystal_system       triclinic
_cell_length_a                    10.916045
_cell_length_b                    10.925626
_cell_length_c                    9.771398
_cell_angle_alpha                 90.254534
_cell_angle_beta                  91.077911
_cell_angle_gamma                 90.06494
_cell_volume                      1165.16353084

loop_
_atom_site_label
_atom_site_type_symbol
_atom_site_description
_atom_site_fract_x
_atom_site_fract_y
_atom_site_fract_z
_atom_type_partial_charge
O1    O     O_R   0.500020 0.321960 0.617040 -0.591143
O2    O     O_R   0.499980 0.321920 0.382900 -0.583378
C1    C     C_R   0.498461 0.265627 0.499830 0.844893
O3    O     O_R   0.319660 0.500030 0.617070 -0.602816
O4    O     O_R   0.319620 0.499990 0.382930 -0.562087
C2    C     C_R   0.262304 0.499304 0.498415 0.786201
Cu1   Cu    Cu3+1 0.500020 0.500020 0.638630 0.937032
Cu2   Cu    Cu3+1 0.499980 0.499980 0.361370 0.935432
O5    O     O_R   0.500020 0.678080 0.617100 -0.596128
O6    O     O_R   0.499980 0.678040 0.382960 -0.576739
O7    O     O_R   0.680380 0.500010 0.617070 -0.565949
O8    O     O_R   0.680340 0.499970 0.382930 -0.604138
C3    C     C_R   0.501277 0.734403 0.500313 0.844600
C4    C     C_R   0.737484 0.499059 0.501580 0.783518
H1    H     H_    0.236353 0.548066 0.871096 0.155266
C5    C     C_R   0.192304 0.645968 0.052841 -0.144467
H2    H     H_    0.221868 0.732760 0.011694 0.145335
C6    C     C_R   0.148130 0.639941 0.186097 0.205619
C7    C     C_R   0.110093 0.525291 0.237479 0.052632
C8    C     C_R   0.117078 0.420224 0.155151 -0.151741
C9    C     C_R   0.162716 0.426856 0.023085 0.193584
C10   C     C_R   0.199605 0.540674 0.972166 -0.201600
C11   C     C_R   0.930990 0.511270 0.380240 -0.239650
C12   C     C_R   0.871381 0.497147 0.504270 -0.086412
C13   C     C_R   0.941447 0.480980 0.625777 0.013051
C14   C     C_R   0.068129 0.479526 0.619061 -0.262090
C15   C     C_R   0.128011 0.497255 0.495613 -0.082701
C16   C     C_R   0.057551 0.512126 0.374206 0.005969
C17   C     C_R   0.874079 0.572070 0.847646 0.186235
C18   C     C_R   0.822857 0.559923 0.977571 0.213774
C19   C     C_R   0.786965 0.443710 0.023023 -0.290636
H3    H     H_    0.747507 0.432168 0.122719 0.167480
C20   C     C_R   0.800634 0.340908 0.939750 -0.145081
H4    H     H_    0.771830 0.252227 0.976395 0.158957
C21   C     C_R   0.850106 0.351842 0.809636 0.170743
C22   C     C_R   0.887501 0.467905 0.762754 -0.000657
C23   C     C_2   0.495584 0.932476 0.387869 -0.155422
C24   C     C_2   0.507038 0.866546 0.502808 -0.321078
H5    H     H_    0.483619 0.887279 0.289247 0.169287
H6    H     H_    0.523635 0.907978 0.602180 0.150216
C25   C     C_2   0.501170 0.066538 0.387472 -0.151545
C26   C     C_2   0.492030 0.133578 0.501895 -0.314092
H7    H     H_    0.511301 0.110715 0.288922 0.162123
C27   C     C_2   0.476476 0.405184 0.924371 0.063631
N1    N     N_2   0.498640 0.498660 0.846910 -0.125816
H8    H     H_    0.466426 0.316043 0.876452 0.110954
C28   C     C_2   0.458054 0.410561 0.076525 -0.029254
N2    N     N_2   0.498610 0.498630 0.153040 -0.285847
H9    H     H_    0.411209 0.334657 0.123977 0.152163
H10   H     H_    0.560688 0.558152 0.112822 0.238013
N3    N     N_3   0.861470 0.244131 0.726720 -0.594422
H11   H     H_    0.953401 0.234209 0.700685 0.217612
H12   H     H_    0.809940 0.256621 0.636597 0.223943
H13   H     H_    0.476900 0.093012 0.600937 0.147075
N4    N     N_3   0.484491 0.614544 0.903513 -0.512336
H14   H     H_    0.565018 0.662925 0.884735 0.248377
H15   H     H_    0.414066 0.658276 0.849291 0.239287
N5    N     N_3   0.142868 0.751057 0.265126 -0.604791
H16   H     H_    0.099148 0.737915 0.357971 0.218607
H17   H     H_    0.233035 0.777016 0.288909 0.222947
H18   H     H_    0.088062 0.332461 0.194561 0.146557
N6    N     N_3   0.175530 0.316361 0.944909 -0.619291
H19   H     H_    0.087696 0.286485 0.916689 0.226628
H20   H     H_    0.222779 0.333171 0.854931 0.212201
H21   H     H_    0.879202 0.522698 0.286240 0.158737
H22   H     H_    0.119699 0.463996 0.711830 0.153533
N7    N     N_3   0.910337 0.691274 0.802558 -0.570716
H23   H     H_    0.004148 0.689535 0.782853 0.214995
H24   H     H_    0.862969 0.710876 0.711245 0.222899
N8    N     N_3   0.806104 0.666968 0.060944 -0.577545
H25   H     H_    0.892788 0.696570 0.094182 0.242990
H26   H     H_    0.756897 0.645803 0.148366 0.206468

loop_
_geom_bond_atom_site_label_1
_geom_bond_atom_site_label_2
_geom_bond_distance
_ccdc_geom_bond_type
O4    Cu2   1.983994 S    
C24   H6    1.081603 S    
C11   C12   1.395398 A    
Cu2   N2    2.035437 S    
C1    C26   1.444594 S    
C17   C18   1.403584 A    
C2    C15   1.465838 S    
C25   C26   1.339258 D    
N3    H12   1.045532 S    
C7    C8    1.401785 A    
C27   C28   1.504932 S    
Cu2   O8    1.976112 S    
C13   C14   1.385760 A    
C5    C10   1.394890 A    
C8    C9    1.394163 A    
C11   H21   1.077264 S    
N4    H14   1.044827 S    
C19   C20   1.393814 A    
C20   H4    1.082814 S    
C14   C15   1.396905 A    
Cu1   Cu2   2.709209 S    
C28   H9    1.084249 S    
C5    C6    1.398795 A    
C19   H3    1.080364 S    
C9    C10   1.402846 A    
C26   H13   1.081648 S    
N7    H24   1.045911 S    
Cu1   O7    1.983993 S    
C7    C16   1.471378 S    
C25   H7    1.086527 S    
C17   C22   1.414675 A    
C9    N6    1.434120 S    
N6    H19   1.044240 S    
O3    Cu1   1.976113 S    
O4    C2    1.300594 A    
Cu1   N1    2.035645 S    
N2    H10   1.023638 S    
C18   N8    1.436166 S    
C23   C24   1.340887 D    
O8    C4    1.306246 A    
O6    C3    1.299019 A    
O2    C1    1.300365 A    
N4    H15   1.042960 S    
C21   N3    1.432603 S    
C18   C19   1.404753 A    
O7    C4    1.299441 A    
O3    C2    1.307257 A    
C11   C16   1.383929 A    
C13   C22   1.479805 S    
N5    H17   1.045666 S    
N7    H23   1.045727 S    
C14   H22   1.072275 S    
C15   C16   1.411726 A    
N8    H25   1.045111 S    
N3    H11   1.045536 S    
C12   C13   1.412034 A    
N1    N4    1.389318 S    
C23   H5    1.086498 S    
C6    C7    1.416256 A    
H1    C10   1.076252 S    
C4    C12   1.461547 S    
C8    H18   1.084080 S    
Cu1   O5    1.957688 S    
O5    C3    1.299207 A    
C5    H2    1.082856 S    
O1    Cu1   1.955890 S    
N6    H20   1.044526 S    
C27   N1    1.299099 D    
C20   C21   1.396202 A    
N5    H16   1.043421 S    
C17   N7    1.434373 S    
C23   C25   1.465933 S    
N8    H26   1.044253 S    
Cu2   O6    1.955890 S    
O2    Cu2   1.957687 S    
C3    C24   1.445122 S    
C28   N2    1.288811 D    
C27   H8    1.083323 S    
C6    N5    1.437693 S    
O1    C1    1.297614 A    
C21   C22   1.412620 A    
