data_mof_unit_14655.cif
_audit_creation_date              2013-03-05T15:46:25-0500
_audit_creation_method            fapswitch 2.2
_symmetry_space_group_name_H-M    P1
_symmetry_Int_Tables_number       1
_space_group_crystal_system       triclinic
_cell_length_a                    15.904351
_cell_length_b                    11.057931
_cell_length_c                    9.905334
_cell_angle_alpha                 111.976196
_cell_angle_beta                  97.205239
_cell_angle_gamma                 92.299145
_cell_volume                      1595.5176603

loop_
_atom_site_label
_atom_site_type_symbol
_atom_site_description
_atom_site_fract_x
_atom_site_fract_y
_atom_site_fract_z
_atom_type_partial_charge
O1    O     O_R   0.507820 0.332330 0.577400 -0.580091
O2    O     O_R   0.483070 0.295500 0.332660 -0.535817
C1    C     C_R   0.493893 0.253729 0.439296 0.781536
O3    O     O_R   0.391820 0.518430 0.622420 -0.567186
O4    O     O_R   0.367070 0.481600 0.377680 -0.547591
C2    C     C_R   0.340642 0.499794 0.501921 0.812187
Cu1   Cu    Cu3+1 0.514650 0.521810 0.644910 1.059200
Cu2   Cu    Cu3+1 0.485350 0.478190 0.355090 1.080602
O5    O     O_R   0.516930 0.704500 0.667340 -0.538601
O6    O     O_R   0.492180 0.667670 0.422600 -0.541958
O7    O     O_R   0.632930 0.518400 0.622320 -0.572072
O8    O     O_R   0.608180 0.481570 0.377580 -0.514172
C3    C     C_R   0.506949 0.746607 0.560846 0.809148
C4    C     C_R   0.659302 0.500047 0.498028 0.825237
C5    C     C_3   0.055455 0.464049 0.626304 -0.263592
C6    C     C_3   0.035986 0.395557 0.346358 0.142009
C7    C     C_3   0.937402 0.385195 0.355339 0.141594
H1    H     H_    0.062247 0.358095 0.596424 0.238720
H2    H     H_    0.920421 0.293359 0.370129 0.230011
C8    C     C_1   0.748203 0.499849 0.493705 -0.046724
C9    C     C_3   0.083350 0.502208 0.498418 -0.063292
C10   C     C_3   0.959953 0.486275 0.637259 -0.310352
C11   C     C_3   0.915896 0.500708 0.493381 -0.047589
C12   C     C_3   0.953901 0.631948 0.488201 -0.251889
C13   C     C_3   0.053489 0.642753 0.520721 -0.317065
C14   C     C_1   0.823385 0.500029 0.492149 0.069037
C15   C     C_1   0.176210 0.501702 0.504827 0.105706
C16   C     C_1   0.251637 0.500797 0.505903 -0.013679
H3    H     H_    0.073446 0.706149 0.638146 0.221293
H4    H     H_    0.956803 0.580344 0.730318 0.227406
H5    H     H_    0.934586 0.626913 0.374317 0.242006
H6    H     H_    0.488448 0.860849 0.374253 0.251466
H7    H     H_    0.538801 0.139142 0.619168 0.196060
C17   C     C_2   0.488327 0.112859 0.402924 0.237197
C18   C     C_2   0.511458 0.069605 0.510391 -0.162932
C19   C     C_2   0.511380 0.888407 0.598292 -0.221203
C20   C     C_2   0.501578 0.931140 0.487212 -0.130169
N1    N     N_2   0.463320 0.445430 0.137380 -0.305124
C21   C     C_2   0.507651 0.512722 0.081688 0.408868
H8    H     H_    0.594397 0.601488 0.922398 0.271547
N2    N     N_2   0.536720 0.554500 0.862620 -0.290763
C22   C     C_2   0.487020 0.499211 0.923484 0.001720
H9    H     H_    0.414473 0.377928 0.069616 0.196971
C23   C     C_2   0.915554 0.381886 0.676280 0.868503
O9    O     O_2   0.880573 0.414933 0.786069 -0.511630
O10   O     O_R   0.915460 0.248885 0.589544 -0.720253
H10   H     H_    0.884055 0.190158 0.628344 0.365987
C24   C     C_2   0.110486 0.529292 0.776294 0.876924
O11   O     O_2   0.117495 0.648222 0.841723 -0.539454
O12   O     O_R   0.150951 0.450871 0.842130 -0.691155
H11   H     H_    0.182542 0.503803 0.944527 0.378726
C25   C     C_2   0.525050 0.978549 0.756410 0.905070
O13   O     O_2   0.578420 0.958741 0.844185 -0.516503
O14   O     O_R   0.475027 0.083045 0.805635 -0.712082
H12   H     H_    0.490041 0.136389 0.915293 0.355773
Cl1   Cl    Cl    0.447820 0.006394 0.219966 -0.509256
C26   C     C_2   0.404162 0.429445 0.841941 0.884572
O15   O     O_2   0.339579 0.485314 0.865542 -0.565475
O16   O     O_R   0.398798 0.298254 0.746413 -0.722070
H13   H     H_    0.338162 0.261310 0.699154 0.357272
Cl2   Cl    Cl    0.593253 0.627240 0.193456 -0.523575
C27   C     C_2   0.057131 0.426067 0.214678 1.009166
O17   O     O_2   0.116615 0.377979 0.152459 -0.497959
O18   O     O_R   0.011528 0.511894 0.166772 -0.714392
H14   H     H_    0.032803 0.523778 0.079799 0.366746
Cl3   Cl    Cl    0.071745 0.235204 0.318709 -0.482669
Cl4   Cl    Cl    0.868012 0.362631 0.187192 -0.465942
C28   C     C_2   0.093784 0.719206 0.441106 0.907668
O19   O     O_2   0.069885 0.826144 0.453587 -0.494463
O20   O     O_R   0.159420 0.672763 0.359181 -0.758291
H15   H     H_    0.180119 0.734682 0.313850 0.365700
C29   C     C_2   0.918233 0.754208 0.586723 0.924545
O21   O     O_2   0.933348 0.791575 0.720864 -0.536094
O22   O     O_R   0.868019 0.824895 0.522104 -0.687559
H16   H     H_    0.847827 0.904467 0.597703 0.354509

loop_
_geom_bond_atom_site_label_1
_geom_bond_atom_site_label_2
_geom_bond_distance
_ccdc_geom_bond_type
O4    Cu2   1.922304 S    
C27   O18   1.399248 S    
C11   C12   1.570742 S    
C17   Cl1   1.770521 S    
C6    C9    1.594230 S    
C5    H1    1.109338 S    
C29   O22   1.398131 S    
N2    C22   1.310984 D    
C19   C25   1.490845 S    
C5    C9    1.582894 S    
Cu2   O8    1.935470 S    
O18   H14   1.014013 S    
H8    N2    1.028243 S    
C24   O12   1.397923 S    
O12   H11   1.013918 S    
C9    C15   1.470588 S    
C12   H5    1.111164 S    
N1    H9    1.029037 S    
C5    C10   1.559032 S    
C7    C11   1.569522 S    
H6    C20   1.084965 S    
C25   O13   1.223404 D    
Cu1   O7    1.922302 S    
C26   O15   1.222461 D    
C27   O17   1.224320 D    
C13   C28   1.526306 S    
C8    C14   1.197690 T    
C5    C24   1.521435 S    
O3    Cu1   1.935472 S    
C22   C26   1.472830 S    
C28   O20   1.398426 S    
C24   O11   1.222377 D    
C18   C20   1.459562 S    
C25   O14   1.398305 S    
C10   C23   1.522324 S    
O2    C1    1.297927 A    
C21   C22   1.509151 S    
Cu2   N1    2.029788 S    
C13   H3    1.106494 S    
O4    C2    1.297256 A    
C21   Cl2   1.765525 S    
O7    C4    1.296997 A    
O2    Cu2   1.946265 S    
C26   O16   1.396281 S    
O3    C2    1.299378 A    
C6    Cl3   1.816350 S    
O22   H16   1.013885 S    
C7    Cl4   1.805560 S    
C7    H2    1.106765 S    
C6    C7    1.583537 S    
C4    C8    1.419987 S    
O8    C4    1.298898 A    
O16   H13   1.013926 S    
O20   H15   1.013853 S    
N1    C21   1.310659 D    
C12   C13   1.566756 S    
C12   C29   1.521461 S    
C3    C19   1.466450 S    
Cu2   O6    1.940086 S    
C17   C18   1.339482 D    
C28   O19   1.223326 D    
C11   C14   1.469534 S    
C15   C16   1.198806 T    
Cu1   O5    1.946267 S    
Cu1   Cu2   2.702057 S    
O5    C3    1.298560 A    
O10   H10   1.013816 S    
C19   C20   1.345450 D    
O1    Cu1   1.940085 S    
C9    C13   1.586914 S    
C10   H4    1.110110 S    
C1    C17   1.457759 S    
H7    C18   1.084832 S    
O14   H12   1.014348 S    
C6    C27   1.535736 S    
C10   C11   1.573611 S    
C2    C16   1.421420 S    
C23   O9    1.223262 D    
Cu1   N2    2.029983 S    
C23   O10   1.398188 S    
C29   O21   1.222703 D    
O1    C1    1.301730 A    
O6    C3    1.304046 A    
