data_mof_unit_13494.cif
_audit_creation_date              2012-12-11T17:01:28-0500
_audit_creation_method            fapswitch 2.2
_symmetry_space_group_name_H-M    P1
_symmetry_Int_Tables_number       1
_space_group_crystal_system       triclinic
_cell_length_a                    15.221863
_cell_length_b                    14.958551
_cell_length_c                    14.807698
_cell_angle_alpha                 109.462024
_cell_angle_beta                  108.916775
_cell_angle_gamma                 110.207793
_cell_volume                      2589.70902656

loop_
_atom_site_label
_atom_site_type_symbol
_atom_type_description
_atom_site_fract_x
_atom_site_fract_y
_atom_site_fract_z
_atom_type_partial_charge
C1    C     C_R   0.940397 0.754749 0.030436 -0.201998
C2    C     C_R   0.212882 0.805632 0.302317 0.486590
C3    C     C_R   0.973264 0.407231 0.222186 -0.097923
C4    C     C_R   0.782214 0.256213 0.686398 -0.155670
C5    C     C_R   0.313622 0.591355 0.037813 0.517202
C6    C     C_R   0.052130 0.499002 0.324901 0.066433
C7    C     C_R   0.322713 0.497730 0.009796 -0.068871
C8    C     C_R   0.307334 0.865308 0.305397 -0.027709
C9    C     C_R   0.924019 0.129078 0.925637 0.116044
C10   C     C_3   0.503142 0.378184 0.987352 -0.495598
C11   C     C_3   0.399308 0.375656 0.976504 -0.435570
C12   C     C_R   0.680556 0.226629 0.672713 0.069037
C13   C     C_3   0.610958 0.556639 0.169260 0.453072
C14   C     C_3   0.576901 0.562370 0.991607 0.361368
C15   C     C_3   0.600065 0.499452 0.054464 0.114682
C16   C     C_R   0.092169 0.590890 0.789074 -0.174286
C17   C     C_3   0.420886 0.495014 0.024812 0.392208
C18   C     C_3   0.503572 0.557068 0.151107 -0.608854
C19   C     C_3   0.462994 0.543223 0.959174 -0.571723
C20   C     C_R   0.585468 0.105657 0.471677 0.102176
C21   C     C_R   0.583846 0.165763 0.565979 0.032809
C22   C     C_R   0.483715 0.147297 0.557622 -0.222779
C23   C     C_R   0.063356 0.499701 0.695334 0.088030
C24   C     C_R   0.388497 0.053977 0.465368 -0.170649
C25   C     C_R   0.394592 0.978465 0.383672 0.067611
C26   C     C_R   0.492583 0.011227 0.384097 0.038501
C27   C     C_3   0.550615 0.950526 0.360615 -0.062276
C28   C     C_R   0.700630 0.407637 0.002299 -0.177130
C29   C     C_3   0.654069 0.055190 0.456383 -0.112523
C30   C     C_R   0.163650 0.598570 0.530151 0.152764
C31   C     C_R   0.101172 0.500126 0.428506 0.037172
C32   C     C_R   0.067546 0.400825 0.430539 -0.194345
C33   C     C_R   0.067753 0.400528 0.525026 -0.200805
C34   C     C_R   0.698055 0.498760 0.061299 0.109338
C35   C     C_R   0.103536 0.499870 0.617787 0.028215
C36   C     C_R   0.165567 0.598137 0.623860 0.156333
C37   C     C_3   0.171541 0.706679 0.668356 -0.542747
C38   C     C_3   0.167984 0.707010 0.565825 -0.486347
C39   C     C_R   0.872944 0.896718 0.969565 0.013475
C40   C     C_R   0.003353 0.408567 0.698602 -0.127935
C41   C     C_R   0.929008 0.857430 0.925181 -0.142802
C42   C     C_R   0.949792 0.887313 0.849429 0.565152
C43   C     C_R   0.916250 0.956616 0.824563 -0.382699
C44   C     C_R   0.884044 0.013191 0.890481 0.000562
C45   C     C_R   0.069341 0.590611 0.313078 -0.167253
C46   C     C_R   0.846438 0.969830 0.949367 0.134716
C47   C     C_3   0.859680 0.025511 0.061976 -0.551747
C48   C     C_3   0.894099 0.949270 0.086249 0.012769
C49   C     C_R   0.792797 0.590417 0.097764 -0.079535
C50   C     C_R   0.687466 0.250597 0.774948 -0.120420
C51   C     C_R   0.037165 0.759719 0.943465 -0.111655
C52   C     C_R   0.967041 0.792399 0.963191 0.116474
C53   C     C_3   0.082788 0.835662 0.329052 0.211809
C54   C     C_3   0.061024 0.892272 0.418519 -0.909639
C55   C     C_3   0.348169 0.725606 0.991411 0.215927
C56   C     C_R   0.220641 0.405901 0.951813 -0.251826
C57   C     C_3   0.433735 0.834279 0.015756 -0.982927
C58   C     C_3   0.582125 0.453031 0.262468 0.303540
C59   C     C_3   0.632227 0.397923 0.313820 -0.902258
C60   C     C_3   0.652180 0.761208 0.107605 0.292026
C61   C     C_3   0.753020 0.843311 0.221173 -1.071262
C62   C     C_3   0.531007 0.866104 0.480905 -0.876721
C63   C     C_3   0.701186 0.156763 0.357735 -0.907790
C64   C     C_3   0.120273 0.962272 0.877166 0.250923
C65   C     C_3   0.199708 0.939719 0.847178 -0.947331
C66   C     C_3   0.030989 0.067258 0.282140 -0.938995
C67   C     C_R   0.300945 0.801397 0.209849 -0.196908
C68   C     C_R   0.897642 0.193968 0.988279 -0.169680
C69   C     C_R   0.992215 0.193738 0.901404 -0.143563
H1    H     H_    0.885139 0.761239 0.059168 0.137723
H2    H     H_    0.806352 0.252851 0.625257 0.136183
H3    H     H_    0.369315 0.335509 0.019806 0.162167
H4    H     H_    0.463864 0.520009 0.190410 0.150137
H5    H     H_    0.574326 0.520874 0.911954 0.092254
H6    H     H_    0.408936 0.481269 0.869518 0.144699
H7    H     H_    0.457169 0.615114 0.961763 0.194616
H8    H     H_    0.674859 0.643705 0.212221 0.097406
H9    H     H_    0.521480 0.643026 0.191705 0.162680
H10   H     H_    0.479400 0.197226 0.626506 0.130412
H11   H     H_    0.151918 0.674793 0.822002 0.088539
H12   H     H_    0.195806 0.319665 0.912262 0.129223
H13   H     H_    0.313175 0.037238 0.464261 0.182212
H14   H     H_    0.545203 0.929337 0.278990 0.131233
H15   H     H_    0.696133 0.047154 0.527385 0.133780
H16   H     H_    0.027041 0.322384 0.356146 0.122941
H17   H     H_    0.027287 0.321754 0.518942 0.129850
H18   H     H_    0.098541 0.701563 0.672808 0.233098
H19   H     H_    0.250256 0.771478 0.744079 0.199460
H20   H     H_    0.092502 0.701603 0.514156 0.209615
H21   H     H_    0.646071 0.322123 0.971822 0.101646
H22   H     H_    0.243758 0.773403 0.582642 0.209511
H23   H     H_    0.351384 0.830860 0.177843 0.164975
H24   H     H_    0.936734 0.982214 0.770436 0.151534
H25   H     H_    0.925179 0.113175 0.115333 0.208158
H26   H     H_    0.781291 0.009807 0.058195 0.171463
H27   H     H_    0.839421 0.893127 0.101480 0.160505
H28   H     H_    0.981703 0.324793 0.648322 0.090529
H29   H     H_    0.823612 0.674453 0.157152 0.121629
H30   H     H_    0.622716 0.237442 0.793605 0.093260
H31   H     H_    0.073577 0.771769 0.894310 0.161741
H32   H     H_    0.130415 0.674077 0.374021 0.165815
H33   H     H_    0.017794 0.748314 0.278365 0.117083
H34   H     H_    0.831822 0.166053 0.004448 0.108208
H35   H     H_    0.080999 0.875495 0.277483 0.101713
H36   H     H_    0.121052 0.981872 0.468056 0.252738
H37   H     H_    0.978924 0.880097 0.380687 0.213334
H38   H     H_    0.066438 0.856748 0.473746 0.266490
H39   H     H_    0.280751 0.736678 0.994920 0.108471
H40   H     H_    0.319081 0.661996 0.906048 0.101238
H41   H     H_    0.498825 0.825217 0.003832 0.246448
H42   H     H_    0.396921 0.859292 0.957970 0.223998
H43   H     H_    0.467859 0.899785 0.101200 0.252929
H44   H     H_    0.503348 0.386893 0.188066 0.089081
H45   H     H_    0.017162 0.165990 0.842206 0.084238
H46   H     H_    0.571214 0.508164 0.324312 0.099921
H47   H     H_    0.711207 0.461145 0.389796 0.268192
H48   H     H_    0.578001 0.349029 0.335622 0.207840
H49   H     H_    0.644621 0.342078 0.254396 0.255279
H50   H     H_    0.583918 0.736928 0.122527 0.153056
H51   H     H_    0.642845 0.804990 0.060989 0.117474
H52   H     H_    0.824162 0.838273 0.222321 0.269376
H53   H     H_    0.770063 0.928426 0.243442 0.245445
H54   H     H_    0.741192 0.827532 0.285648 0.242470
H55   H     H_    0.549054 0.805170 0.343609 0.179034
H56   H     H_    0.940655 0.321620 0.199502 0.086380
H57   H     H_    0.478208 0.784086 0.466631 0.243788
H58   H     H_    0.505040 0.922826 0.516918 0.262188
H59   H     H_    0.615133 0.895643 0.540708 0.231658
H60   H     H_    0.762146 0.060938 0.396838 0.176518
H61   H     H_    0.767976 0.192607 0.342094 0.244410
H62   H     H_    0.691198 0.224758 0.403630 0.262512
H63   H     H_    0.626385 0.094964 0.277169 0.240816
H64   H     H_    0.152119 0.991963 0.967113 0.086837
H65   H     H_    0.117459 0.029201 0.861295 0.096864
H66   H     H_    0.169638 0.908228 0.757579 0.279457
H67   H     H_    0.519106 0.330088 0.027273 0.197748
H68   H     H_    0.278926 0.017095 0.893975 0.217748
H69   H     H_    0.211179 0.879006 0.869058 0.238850
H70   H     H_    0.048205 0.967511 0.161640 0.175375
H71   H     H_    0.994945 0.007592 0.306336 0.250059
H72   H     H_    0.998673 0.123879 0.291576 0.258907
H73   H     H_    0.119638 0.116727 0.338383 0.250061
H74   H     H_    0.490754 0.336424 0.902664 0.162764
H75   H     H_    0.336873 0.324406 0.887438 0.165854
N1    N     N_R   0.995640 0.706130 0.053910 -0.060053
N2    N     N_R   0.054010 0.556790 0.847890 -0.042426
N3    N     N_R   0.789940 0.443190 0.997130 -0.037808
N4    N     N_R   0.997630 0.443170 0.791110 -0.036020
N5    N     N_R   0.846320 0.556810 0.053910 -0.052773
N6    N     N_R   0.791080 0.293860 0.847890 -0.038667
N7    N     N_R   0.052880 0.706130 0.997130 -0.055041
N8    N     N_R   0.002370 0.556830 0.208890 -0.049446
N9    N     N_2   0.522500 0.855400 0.376825 -0.087273
N10   N     N_2   0.728161 0.106003 0.422368 -0.114172
N11   N     N_2   0.007672 0.009595 0.169625 -0.088857
N12   N     N_R   0.153680 0.443190 0.946090 -0.058163
N13   N     N_R   0.208920 0.706140 0.152110 -0.072784
N14   N     N_R   0.947120 0.293870 0.002870 -0.040644
N15   N     N_R   0.004360 0.293870 0.946090 -0.033266
N16   N     N_R   0.151690 0.706140 0.208890 -0.108674
N17   N     N_R   0.945990 0.443210 0.152110 -0.037138
N18   N     N_R   0.210060 0.556810 0.002870 -0.100659
N19   N     N_R   0.848310 0.293860 0.791110 -0.039717
Ni1   Ni    Ni4+2 0.999010 0.630300 0.130220 0.199583
Ni2   Ni    Ni4+2 0.000990 0.369700 0.869780 0.204121
Ni3   Ni    Ni4+2 0.130280 0.630280 0.000000 0.190195
Ni4   Ni    Ni4+2 0.869720 0.369720 0.000000 0.215559
O1    O     O_3   0.184232 0.845823 0.379849 -0.664891
O2    O     O_3   0.390619 0.695756 0.069454 -0.679065
O3    O     O_3   0.652745 0.515167 0.236369 -0.628737
O4    O     O_3   0.663676 0.674072 0.046705 -0.661654
O5    O     O_3   0.017005 0.865179 0.813289 -0.639587

loop_
_geom_bond_atom_site_label_1
_geom_bond_atom_site_label_2
_ccdc_geom_bond_type
C27   N9    S    
N4    Ni2   S    
C6    C45   A    
C27   C29   S    
C41   C42   A    
C39   C48   S    
C37   H19   S    
C1    N1    A    
C35   C36   A    
C68   H34   S    
C56   N12   A    
C3    C6    A    
C56   H12   S    
C39   C41   A    
C66   H72   S    
C53   C54   S    
N6    N19   A    
C38   H20   S    
C50   H30   S    
C13   C18   S    
C14   H5    S    
C61   H52   S    
C19   H7    S    
N19   Ni2   S    
C9    C69   A    
C22   H10   S    
C10   C15   S    
C30   C31   A    
C69   N15   A    
C57   H43   S    
C32   H16   S    
C53   H35   S    
C23   C40   A    
N16   Ni1   S    
C30   C38   S    
C60   H50   S    
C16   N2    A    
C63   H61   S    
C24   H13   S    
C17   C19   S    
C49   H29   S    
N18   Ni3   S    
C66   N11   S    
C57   H41   S    
C59   H47   S    
C7    C17   S    
C58   H44   S    
C63   H62   S    
C4    C12   A    
C48   H27   S    
C11   H75   S    
C41   C52   S    
N8    N17   A    
N12   N18   A    
C65   H68   S    
C58   O3    S    
C6    C31   S    
N2    Ni3   S    
C51   N7    A    
C59   H48   S    
H55   N9    S    
C55   H40   S    
C8    C25   S    
C7    C56   A    
C68   N14   A    
C44   C46   A    
N14   Ni4   S    
N2    N4    A    
C20   C29   S    
C13   H8    S    
C69   H45   S    
C54   H37   S    
C51   C52   A    
C64   H65   S    
C18   H4    S    
C24   C25   A    
C29   H15   S    
C40   H28   S    
C62   H57   S    
C40   N4    A    
C11   H3    S    
C45   H32   S    
C25   C26   A    
C38   H22   S    
N15   Ni2   S    
C61   H53   S    
C16   H11   S    
C64   O5    S    
C33   H17   S    
C37   C38   S    
C50   N6    A    
C53   O1    S    
C47   C48   S    
H70   N11   S    
C53   H33   S    
C18   H9    S    
C17   C18   S    
C26   C27   S    
C4    N19   A    
C67   N13   A    
N5    Ni1   S    
C65   H66   S    
C63   H63   S    
N1    N7    A    
N3    Ni4   S    
C8    C67   A    
C39   C46   A    
C65   H69   S    
C54   H38   S    
C2    N16   A    
C13   O3    S    
C48   N11   S    
C16   C23   A    
C23   C35   S    
C55   C57   S    
C43   C44   A    
N14   N15   A    
C22   C24   A    
C42   C43   A    
C2    O1    S    
C5    C7    A    
C19   H6    S    
C64   H64   S    
C51   H31   S    
C46   C47   S    
C11   C17   S    
C9    C44   S    
C47   H26   S    
C15   C34   S    
C54   H36   S    
N3    N5    A    
C60   O4    S    
C14   C19   S    
C37   H18   S    
C31   C32   A    
C2    C8    A    
C42   O5    S    
C63   N10   S    
C10   H67   S    
C14   O4    S    
N8    Ni1   S    
N13   Ni3   S    
C12   C50   A    
C3    H56   S    
C66   H73   S    
N1    Ni1   S    
C49   N5    A    
N13   N16   A    
C59   H49   S    
N7    Ni3   S    
C1    H1    S    
C62   N9    S    
C30   C36   A    
C55   H39   S    
C61   H54   S    
C45   N8    A    
C32   C33   A    
C13   C15   S    
C58   C59   S    
C9    C68   A    
C5    N18   A    
C62   H59   S    
C33   C35   A    
C58   H46   S    
C57   H42   S    
C20   C26   A    
N12   Ni2   S    
N6    Ni4   S    
C12   C21   S    
C64   C65   S    
C27   H14   S    
C67   H23   S    
C43   H24   S    
C47   H25   S    
C60   H51   S    
C10   H74   S    
C1    C52   A    
C10   C11   S    
C3    N17   A    
C28   C34   A    
C62   H58   S    
C66   H71   S    
C20   C21   A    
C34   C49   A    
C36   C37   S    
N17   Ni4   S    
C5    O2    S    
C14   C15   S    
C60   C61   S    
C28   H21   S    
C21   C22   A    
C55   O2    S    
C4    H2    S    
H60   N10   S    
C29   N10   S    
C28   N3    A    
