data_mof_unit_45168.cif
_audit_creation_date              2012-12-10T19:58:46-0500
_audit_creation_method            fapswitch 2.2
_symmetry_space_group_name_H-M    P1
_symmetry_Int_Tables_number       1
_space_group_crystal_system       triclinic
_cell_length_a                    14.627569
_cell_length_b                    14.082064
_cell_length_c                    19.345402
_cell_angle_alpha                 89.926223
_cell_angle_beta                  89.797733
_cell_angle_gamma                 90.131237
_cell_volume                      3984.85036608

loop_
_atom_site_label
_atom_site_type_symbol
_atom_type_description
_atom_site_fract_x
_atom_site_fract_y
_atom_site_fract_z
_atom_type_partial_charge
C1    C     C_R   0.326513 0.499824 0.498052 0.910056
C2    C     C_R   0.951198 0.504821 0.438365 -0.065307
C3    C     C_R   0.422478 0.104564 0.479065 -0.294837
C4    C     C_R   0.576490 0.895389 0.476245 -0.291464
C5    C     C_R   0.577779 0.104827 0.520282 -0.278721
C6    C     C_R   0.423654 0.895131 0.523257 -0.285451
C7    C     C_R   0.424061 0.204229 0.479170 0.000955
C8    C     C_R   0.574812 0.795721 0.476445 0.012784
C9    C     C_R   0.576064 0.204478 0.520529 0.025864
C10   C     C_R   0.425258 0.795483 0.523428 0.016076
C11   C     C_R   0.500141 0.053198 0.499627 0.136105
C12   C     C_R   0.673562 0.500152 0.497466 0.901769
C13   C     C_R   0.500089 0.946755 0.499667 0.132744
C14   C     C_R   0.500989 0.500032 0.365233 0.915027
C15   C     C_R   0.501158 0.499979 0.634666 0.911396
C16   C     C_R   0.495487 0.414192 0.747547 0.369999
C17   C     C_R   0.502271 0.587025 0.252523 0.367596
C18   C     C_R   0.523059 0.413994 0.253421 0.367438
C19   C     C_R   0.531880 0.584331 0.745653 0.367143
C20   C     C_R   0.509784 0.412488 0.818861 -0.110432
C21   C     C_R   0.513819 0.587680 0.180790 -0.107819
C22   C     C_R   0.531351 0.414811 0.181376 -0.107014
C23   C     C_R   0.196764 0.567790 0.435959 -0.321190
C24   C     C_R   0.538463 0.583833 0.817704 -0.110237
C25   C     C_R   0.528857 0.497673 0.853767 -0.145008
C26   C     C_R   0.527100 0.501576 0.145674 -0.140858
C27   C     C_R   0.508431 0.499793 0.710277 -0.311029
C28   C     C_R   0.507666 0.500182 0.289411 -0.301920
C29   C     C_R   0.446611 0.497572 0.964026 -0.182390
C30   C     C_R   0.612483 0.504111 0.035611 -0.176961
C31   C     C_R   0.446192 0.496827 0.035403 -0.184028
C32   C     C_R   0.613008 0.500419 0.964017 -0.174700
C33   C     C_R   0.529002 0.501278 0.070893 0.193244
C34   C     C_R   0.804910 0.426731 0.439628 -0.345374
C35   C     C_R   0.529942 0.498146 0.928585 0.191778
C36   C     C_R   0.107614 0.561725 0.412222 0.523648
C37   C     C_R   0.894679 0.430721 0.415598 0.501413
C38   C     C_R   0.914629 0.581874 0.475780 0.457404
C39   C     C_R   0.084712 0.419618 0.483171 0.470259
C40   C     C_3   0.377387 0.323222 0.708916 0.115890
C41   C     C_3   0.353034 0.227237 0.677176 -0.287537
C42   C     C_3   0.249767 0.214455 0.671036 -1.002123
C43   C     C_3   0.399575 0.696926 0.291389 0.111458
C44   C     C_3   0.392079 0.798132 0.319203 -0.305643
C45   C     C_R   0.822809 0.580540 0.494295 -0.337022
C46   C     C_3   0.292821 0.829608 0.326390 -0.976073
C47   C     C_3   0.612200 0.298727 0.302459 0.108696
C48   C     C_3   0.610666 0.193832 0.322799 -0.303519
C49   C     C_3   0.704664 0.159166 0.345376 -0.979975
C50   C     C_3   0.635089 0.684194 0.694401 0.114516
C51   C     C_3   0.648146 0.787190 0.671434 -0.292403
C52   C     C_3   0.746982 0.807331 0.650558 -0.999166
C53   C     C_R   0.505241 0.320381 0.855996 0.205089
C54   C     C_R   0.424050 0.290845 0.888552 -0.161252
C55   C     C_R   0.419165 0.201860 0.920473 -0.125351
C56   C     C_R   0.176229 0.422431 0.501833 -0.339959
C57   C     C_R   0.494994 0.141719 0.919766 -0.102539
C58   C     C_R   0.576294 0.171025 0.888022 -0.147767
C59   C     C_R   0.581479 0.260070 0.856100 -0.106306
C60   C     C_R   0.511347 0.679592 0.143239 0.191260
C61   C     C_R   0.432458 0.707157 0.107287 -0.170631
C62   C     C_R   0.428573 0.795945 0.075126 -0.121851
C63   C     C_R   0.503057 0.857927 0.078981 -0.105377
C64   C     C_R   0.582039 0.830767 0.114262 -0.155637
C65   C     C_R   0.586233 0.741892 0.146466 -0.098247
C66   C     C_R   0.544842 0.323800 0.144081 0.189206
C67   C     C_R   0.230725 0.498735 0.481015 -0.162080
C68   C     C_R   0.631022 0.300982 0.116569 -0.185242
C69   C     C_R   0.645385 0.213062 0.085038 -0.125066
C70   C     C_R   0.574046 0.147245 0.081025 -0.102188
C71   C     C_R   0.487873 0.169662 0.107810 -0.160980
C72   C     C_R   0.473206 0.257651 0.139398 -0.092155
C73   C     C_R   0.553237 0.674960 0.854476 0.199475
C74   C     C_R   0.640253 0.699149 0.879401 -0.175834
C75   C     C_R   0.654856 0.787189 0.910818 -0.127256
C76   C     C_R   0.582956 0.851766 0.917124 -0.101708
C77   C     C_R   0.496019 0.827951 0.892790 -0.153676
C78   C     C_R   0.769463 0.500949 0.479464 -0.148363
C79   C     C_R   0.481098 0.739842 0.861448 -0.095777
C80   C     C_3   0.068776 0.590965 0.299928 0.085196
C81   C     C_3   0.160743 0.597385 0.261763 -0.386426
C82   C     C_3   0.153311 0.560457 0.187907 -0.975319
C83   C     C_3   0.889332 0.359005 0.310265 0.047737
C84   C     C_3   0.938202 0.288376 0.263190 -0.286614
C85   C     C_3   0.893860 0.284583 0.191908 -1.019592
C86   C     C_3   0.994454 0.653832 0.562271 0.063374
C87   C     C_3   0.060663 0.734955 0.577919 -0.276337
C88   C     C_3   0.094081 0.730783 0.652483 -1.002722
C89   C     C_R   0.049689 0.491240 0.439667 -0.069812
C90   C     C_3   0.000512 0.362837 0.573688 0.063760
C91   C     C_3   0.931928 0.286019 0.594718 -0.276193
C92   C     C_3   0.893837 0.303740 0.667081 -1.002786
H1    H     H_    0.382401 0.496897 0.936305 0.121660
H2    H     H_    0.636566 0.931948 0.456909 0.145964
H3    H     H_    0.638922 0.068482 0.537165 0.141573
H4    H     H_    0.363595 0.931480 0.542471 0.143250
H5    H     H_    0.364308 0.242943 0.462524 0.149496
H6    H     H_    0.633529 0.756921 0.457649 0.147287
H7    H     H_    0.635861 0.243356 0.537164 0.135889
H8    H     H_    0.366480 0.756524 0.542325 0.139888
H9    H     H_    0.350070 0.380612 0.675162 0.125218
H10   H     H_    0.344073 0.328319 0.760598 0.115978
H11   H     H_    0.384475 0.221893 0.625001 0.237040
H12   H     H_    0.676452 0.507846 0.063505 0.121401
H13   H     H_    0.381082 0.169393 0.709959 0.225978
H14   H     H_    0.217318 0.216092 0.723021 0.263334
H15   H     H_    0.234611 0.144918 0.646574 0.272163
H16   H     H_    0.220120 0.271603 0.638605 0.258268
H17   H     H_    0.363594 0.647577 0.327330 0.132021
H18   H     H_    0.365318 0.693900 0.240155 0.124523
H19   H     H_    0.425463 0.802113 0.370532 0.241811
H20   H     H_    0.428374 0.847557 0.283557 0.228520
H21   H     H_    0.259134 0.830226 0.275037 0.263443
H22   H     H_    0.290551 0.902517 0.348122 0.270058
H23   H     H_    0.381721 0.493988 0.063091 0.124106
H24   H     H_    0.254946 0.781294 0.361754 0.275146
H25   H     H_    0.639509 0.341277 0.346097 0.143721
H26   H     H_    0.659088 0.307483 0.257443 0.110782
H27   H     H_    0.561403 0.182964 0.365876 0.244167
H28   H     H_    0.587345 0.150903 0.277975 0.226283
H29   H     H_    0.754650 0.166786 0.302395 0.270037
H30   H     H_    0.700311 0.083033 0.360069 0.268895
H31   H     H_    0.728770 0.200096 0.390843 0.265553
H32   H     H_    0.656047 0.636119 0.651591 0.142620
H33   H     H_    0.680392 0.670879 0.739552 0.111669
H34   H     H_    0.677421 0.500197 0.936270 0.121359
H35   H     H_    0.602761 0.802304 0.626861 0.239576
H36   H     H_    0.628669 0.835249 0.714574 0.226502
H37   H     H_    0.793604 0.793661 0.694653 0.262480
H38   H     H_    0.753927 0.882864 0.634812 0.271230
H39   H     H_    0.767118 0.761923 0.606262 0.261050
H40   H     H_    0.364291 0.336015 0.888362 0.102561
H41   H     H_    0.356374 0.179204 0.945301 0.120342
H42   H     H_    0.490773 0.072528 0.943993 0.103288
H43   H     H_    0.635083 0.124494 0.887808 0.121555
H44   H     H_    0.644450 0.281726 0.830959 0.119194
H45   H     H_    0.240312 0.624567 0.417207 0.165957
H46   H     H_    0.373366 0.660842 0.105477 0.111475
H47   H     H_    0.367506 0.817073 0.047739 0.120977
H48   H     H_    0.499494 0.926905 0.054491 0.103290
H49   H     H_    0.639747 0.878837 0.117014 0.124831
H50   H     H_    0.647301 0.721897 0.174381 0.124596
H51   H     H_    0.687528 0.350346 0.121038 0.117701
H52   H     H_    0.712086 0.195572 0.064353 0.127290
H53   H     H_    0.585645 0.078958 0.057048 0.105062
H54   H     H_    0.432636 0.118629 0.104424 0.123463
H55   H     H_    0.406523 0.273978 0.160722 0.129831
H56   H     H_    0.762811 0.366173 0.426580 0.158431
H57   H     H_    0.697005 0.650635 0.873345 0.106592
H58   H     H_    0.722122 0.805720 0.929694 0.121923
H59   H     H_    0.594639 0.920202 0.940941 0.105663
H60   H     H_    0.440336 0.877956 0.897955 0.120465
H61   H     H_    0.413725 0.722403 0.842126 0.121115
H62   H     H_    0.017591 0.633292 0.270966 0.166211
H63   H     H_    0.043179 0.516267 0.300000 0.127910
H64   H     H_    0.183806 0.672500 0.260381 0.231993
H65   H     H_    0.212964 0.554802 0.289436 0.208719
H66   H     H_    0.131443 0.484849 0.188051 0.268019
H67   H     H_    0.794102 0.640313 0.521901 0.165577
H68   H     H_    0.221028 0.565845 0.162008 0.255280
H69   H     H_    0.103193 0.603238 0.158247 0.263399
H70   H     H_    0.894146 0.430987 0.286314 0.116079
H71   H     H_    0.816217 0.337942 0.314143 0.135020
H72   H     H_    0.011064 0.309708 0.257432 0.219400
H73   H     H_    0.935563 0.216481 0.286926 0.233676
H74   H     H_    0.821446 0.261356 0.196348 0.263790
H75   H     H_    0.931075 0.233093 0.158812 0.269237
H76   H     H_    0.896596 0.355551 0.166830 0.263015
H77   H     H_    0.030220 0.585660 0.572849 0.113839
H78   H     H_    0.203983 0.366413 0.533844 0.169102
H79   H     H_    0.933709 0.660174 0.596850 0.130541
H80   H     H_    0.120559 0.730395 0.542515 0.231213
H81   H     H_    0.025938 0.803998 0.568965 0.225963
H82   H     H_    0.035442 0.736470 0.688882 0.264269
H83   H     H_    0.141785 0.790716 0.662168 0.268056
H84   H     H_    0.130812 0.663083 0.662061 0.263480
H85   H     H_    0.965625 0.432830 0.577422 0.114454
H86   H     H_    0.059447 0.361169 0.609979 0.127860
H87   H     H_    0.874418 0.285095 0.557272 0.231361
H88   H     H_    0.965933 0.215523 0.593503 0.223815
H89   H     H_    0.361432 0.068005 0.461967 0.147255
H90   H     H_    0.949984 0.303966 0.705598 0.264169
H91   H     H_    0.844634 0.246546 0.680846 0.268352
H92   H     H_    0.857561 0.372936 0.668894 0.262416
N1    N     N_R   0.500000 0.252470 0.500000 -0.094761
N2    N     N_R   0.500000 0.747530 0.500000 -0.096557
O1    O     O_R   0.369060 0.579480 0.500010 -0.636007
O2    O     O_3   0.493183 0.672989 0.286596 -0.613449
O3    O     O_3   0.521767 0.327348 0.287498 -0.614070
O4    O     O_3   0.541778 0.669771 0.710799 -0.613376
O5    O     O_3   0.075570 0.630204 0.367103 -0.612008
O6    O     O_3   0.930704 0.357732 0.376181 -0.605638
O7    O     O_3   0.968214 0.659701 0.492255 -0.602271
O8    O     O_3   0.030100 0.345131 0.505389 -0.600320
O9    O     O_R   0.630940 0.420520 0.499990 -0.638757
O10   O     O_R   0.630940 0.579480 0.499990 -0.633437
O11   O     O_R   0.369060 0.420520 0.500010 -0.629108
O12   O     O_R   0.500020 0.579510 0.398180 -0.579095
O13   O     O_R   0.499980 0.420490 0.601820 -0.575379
O14   O     O_R   0.499980 0.579510 0.601820 -0.577561
O15   O     O_R   0.500020 0.420490 0.398180 -0.580793
O16   O     O_3   0.473535 0.330152 0.714292 -0.610464
Zn1   Zn    Zn3+2 0.500000 0.606140 0.500000 0.952269
Zn2   Zn    Zn3+2 0.500000 0.393860 0.500000 0.952658

loop_
_geom_bond_atom_site_label_1
_geom_bond_atom_site_label_2
_ccdc_geom_bond_type
C36   C89   A    
C66   C68   A    
C87   C88   S    
C90   H86   S    
C18   O3    S    
C65   H50   S    
C86   H77   S    
C41   C42   S    
C45   H67   S    
C4    C8    A    
C81   C82   S    
C53   C59   A    
C48   H28   S    
C56   C67   A    
C53   C54   A    
C69   H52   S    
C14   O12   A    
C88   H83   S    
C41   H13   S    
O11   Zn2   S    
C52   H37   S    
C51   H36   S    
N1    Zn2   S    
C5    C11   A    
C9    N1    A    
C86   O7    S    
C82   H66   S    
C24   C73   S    
C64   H49   S    
C49   H30   S    
C75   H58   S    
C23   C67   A    
C36   O5    S    
C14   O15   A    
O1    Zn1   S    
C59   H44   S    
C71   H54   S    
C88   H82   S    
C68   H51   S    
C63   H48   S    
C32   H34   S    
C4    C13   A    
C8    H6    S    
C22   C66   S    
C38   C45   A    
C84   H73   S    
C1    C67   S    
C40   H9    S    
C34   H56   S    
C50   O4    S    
C47   H26   S    
C66   C72   A    
C47   C48   S    
C68   C69   A    
C12   C78   S    
C31   C33   A    
C74   H57   S    
C45   C78   A    
C43   H18   S    
C62   H47   S    
C30   C32   A    
C19   C27   A    
C42   H15   S    
C24   C25   A    
C84   H72   S    
C16   C27   A    
C77   C79   A    
C90   H85   S    
C9    H7    S    
C12   O10   A    
C61   C62   A    
C16   O16   S    
C77   H60   S    
C31   H23   S    
C5    H3    S    
C21   C26   A    
C44   C46   S    
C48   H27   S    
C1    O1    A    
C73   C74   A    
C87   H81   S    
C39   O8    S    
C81   H65   S    
C74   C75   A    
C46   H22   S    
C63   C64   A    
C51   C52   S    
C85   H75   S    
C32   C35   A    
C83   O6    S    
C50   H32   S    
C84   C85   S    
C21   C60   S    
C92   H92   S    
C91   C92   S    
C70   H53   S    
C86   C87   S    
C20   C53   S    
O9    Zn2   S    
C76   H59   S    
C8    N2    A    
C58   C59   A    
C55   H41   S    
C17   C21   A    
C41   H11   S    
C91   H87   S    
C60   C61   A    
C47   O3    S    
C2    C89   S    
C75   C76   A    
C5    C9    A    
C62   C63   A    
C10   N2    A    
C79   H61   S    
C15   O13   A    
C2    C38   A    
C26   C33   S    
C15   C27   S    
C83   C84   S    
C90   O8    S    
C16   C20   A    
C34   C37   A    
C49   H29   S    
C91   H88   S    
C17   C28   A    
C50   C51   S    
C73   C79   A    
C18   C28   A    
C50   H33   S    
C76   C77   A    
O10   Zn1   S    
C10   H8    S    
C81   H64   S    
C70   C71   A    
C17   O2    S    
C25   C35   S    
C4    H2    S    
C44   H20   S    
C40   C41   S    
C83   H70   S    
C40   O16   S    
C60   C65   A    
C6    H4    S    
C55   C57   A    
C43   C44   S    
C22   C26   A    
O13   Zn2   S    
C3    H89   S    
C80   O5    S    
C57   H42   S    
C85   H74   S    
C90   C91   S    
C39   C56   A    
C80   H63   S    
C83   H71   S    
C54   C55   A    
C48   C49   S    
C7    H5    S    
C46   H21   S    
C56   H78   S    
C18   C22   A    
C52   H39   S    
C7    N1    A    
C1    O11   A    
C80   C81   S    
C92   H91   S    
C6    C10   A    
C80   H62   S    
C82   H69   S    
C58   H43   S    
C72   H55   S    
C54   H40   S    
C29   C35   A    
C3    C7    A    
C88   H84   S    
C38   O7    S    
C46   H24   S    
C51   H35   S    
C12   O9    A    
C19   C24   A    
C52   H38   S    
C71   C72   A    
C29   C31   A    
C92   H90   S    
C64   C65   A    
C6    C13   A    
C29   H1    S    
C15   O14   A    
C11   C13   S    
C2    C37   A    
C57   C58   A    
C42   H16   S    
C43   O2    S    
O14   Zn1   S    
C23   H45   S    
C87   H80   S    
O15   Zn2   S    
N2    Zn1   S    
C30   C33   A    
C69   C70   A    
C61   H46   S    
C3    C11   A    
C19   O4    S    
C40   H10   S    
C86   H79   S    
C42   H14   S    
C44   H19   S    
C47   H25   S    
C37   O6    S    
C85   H76   S    
C23   C36   A    
C20   C25   A    
C30   H12   S    
O12   Zn1   S    
C43   H17   S    
C14   C28   S    
C82   H68   S    
C39   C89   A    
C34   C78   A    
C49   H31   S    
