data_mof_unit_42019.cif
_audit_creation_date              2012-12-10T16:54:53-0500
_audit_creation_method            fapswitch 2.2
_symmetry_space_group_name_H-M    P1
_symmetry_Int_Tables_number       1
_space_group_crystal_system       triclinic
_cell_length_a                    7.765107
_cell_length_b                    8.593199
_cell_length_c                    15.719826
_cell_angle_alpha                 90.54574
_cell_angle_beta                  85.863092
_cell_angle_gamma                 93.643127
_cell_volume                      1044.07851195

loop_
_atom_site_label
_atom_site_type_symbol
_atom_type_description
_atom_site_fract_x
_atom_site_fract_y
_atom_site_fract_z
_atom_type_partial_charge
C1    C     C_R   0.545827 0.794775 0.497857 0.956919
C2    C     C_2   0.430092 0.041774 0.503628 -0.372473
C3    C     C_R   0.501852 0.498948 0.661573 0.902270
C4    C     C_R   0.454177 0.205226 0.502273 0.965720
C5    C     C_R   0.498129 0.501166 0.338410 0.901905
C6    C     C_3   0.381545 0.632877 0.954870 0.097358
C7    C     C_3   0.685348 0.531633 0.945681 -0.458645
C8    C     C_3   0.680284 0.547790 0.043501 -0.414214
C9    C     C_1   0.494293 0.504724 0.249723 -0.170010
C10   C     C_3   0.498599 0.502778 0.917259 0.217702
C11   C     C_3   0.448782 0.069561 0.097115 -0.806356
C12   C     C_3   0.372261 0.625614 0.053629 -0.502599
C13   C     C_3   0.382786 0.850872 0.850296 -0.744353
C14   C     C_3   0.494596 0.504475 0.082843 0.230647
C15   C     C_3   0.428591 0.340531 0.051621 0.045338
C16   C     C_3   0.426404 0.340543 0.952671 -0.116773
C17   C     C_1   0.493425 0.506427 0.174441 -0.052855
C18   C     C_1   0.504036 0.499645 0.825646 -0.023845
C19   C     C_1   0.505515 0.498113 0.750259 -0.156718
C20   C     C_2   0.569917 0.958230 0.496709 -0.375652
H1    H     H_    0.407255 0.741524 0.081472 0.196656
H2    H     H_    0.720007 0.670144 0.060777 0.182823
H3    H     H_    0.775668 0.472423 0.069023 0.191142
H4    H     H_    0.509130 0.249184 0.924561 0.165300
H5    H     H_    0.293839 0.318424 0.080375 0.173753
H6    H     H_    0.655983 0.216108 0.047883 0.244486
H7    H     H_    0.542921 0.988542 0.118175 0.234233
H8    H     H_    0.391930 0.022627 0.038678 0.275764
H9    H     H_    0.344694 0.078770 0.148880 0.251659
H10   H     H_    0.567856 0.827678 0.940411 0.240749
H11   H     H_    0.403603 0.979799 0.850721 0.258350
H12   H     H_    0.247586 0.609209 0.935107 0.173603
H13   H     H_    0.242259 0.820919 0.846592 0.252505
H14   H     H_    0.456232 0.805993 0.793202 0.234400
H15   H     H_    0.236787 0.593450 0.078411 0.167293
H16   H     H_    0.701964 0.009317 0.490124 0.181917
H17   H     H_    0.298045 0.990687 0.510239 0.181758
H18   H     H_    0.013659 0.382308 0.436750 0.192920
H19   H     H_    0.986343 0.617681 0.563258 0.195161
H20   H     H_    0.763845 0.432095 0.925148 0.206099
H21   H     H_    0.752251 0.637254 0.915187 0.190568
I1    I     I_    0.170169 0.270584 0.914400 -0.523213
N1    N     N_2   0.950340 0.457950 0.477370 -0.171716
N2    N     N_2   0.049660 0.542050 0.522630 -0.169806
N3    N     N_2   0.535889 0.220721 0.080140 -0.297858
N4    N     N_2   0.444119 0.789451 0.927215 -0.313806
O1    O     O_R   0.389240 0.738570 0.505550 -0.614064
O2    O     O_R   0.678400 0.711630 0.491050 -0.631666
O3    O     O_R   0.355360 0.513470 0.630110 -0.602188
O4    O     O_R   0.644510 0.486530 0.615610 -0.621529
O5    O     O_R   0.321600 0.288370 0.508950 -0.628005
O6    O     O_R   0.610760 0.261430 0.494450 -0.612515
O7    O     O_R   0.355490 0.513470 0.384390 -0.624602
O8    O     O_R   0.644640 0.486530 0.369890 -0.611094
Zn1   Zn    Zn3+2 0.306930 0.517990 0.509680 0.955490
Zn2   Zn    Zn3+2 0.693070 0.482010 0.490320 0.952065

loop_
_geom_bond_atom_site_label_1
_geom_bond_atom_site_label_2
_ccdc_geom_bond_type
C6    C10   S    
C7    C10   S    
C2    C4    S    
C7    H20   S    
C1    O2    A    
C13   H13   S    
H19   N2    S    
N1    Zn2   S    
H10   N4    S    
C6    H12   S    
C2    H17   S    
C11   H7    S    
N1    N2    D    
C3    C19   S    
O7    Zn1   S    
C3    O3    A    
H18   N1    S    
C16   H4    S    
C10   C16   S    
C12   H15   S    
C5    C9    S    
C14   C17   S    
C11   H8    S    
C4    O6    A    
N2    Zn1   S    
C12   H1    S    
C5    O7    A    
C3    O4    A    
C10   C18   S    
O5    Zn1   S    
C7    H21   S    
C6    C12   S    
C13   N4    S    
O8    Zn2   S    
C15   H5    S    
C11   N3    S    
C15   N3    S    
C4    O5    A    
C2    C20   D    
C15   C16   S    
C20   H16   S    
C16   I1    S    
C5    O8    A    
C7    C8    S    
C8    H3    S    
C11   H9    S    
O1    Zn1   S    
C18   C19   T    
C13   H14   S    
C9    C17   T    
O2    Zn2   S    
C14   C15   S    
C1    O1    A    
C1    C20   S    
C8    C14   S    
C6    N4    S    
H6    N3    S    
O3    Zn1   S    
C8    H2    S    
C13   H11   S    
O4    Zn2   S    
O6    Zn2   S    
C12   C14   S    
