data_mof_unit_17484.cif
_audit_creation_date              2012-12-11T14:52:44-0500
_audit_creation_method            fapswitch 2.2
_symmetry_space_group_name_H-M    P1
_symmetry_Int_Tables_number       1
_space_group_crystal_system       triclinic
_cell_length_a                    20.48475
_cell_length_b                    7.33132
_cell_length_c                    20.523446
_cell_angle_alpha                 89.592135
_cell_angle_beta                  101.470271
_cell_angle_gamma                 90.201101
_cell_volume                      3020.57500176

loop_
_atom_site_label
_atom_site_type_symbol
_atom_type_description
_atom_site_fract_x
_atom_site_fract_y
_atom_site_fract_z
_atom_type_partial_charge
O1    O     O_R   0.673670 0.377510 0.185950 -0.529210
O2    O     O_R   0.326330 0.622490 0.814050 -0.517349
O3    O     O_R   0.826330 0.877510 0.314050 -0.544034
O4    O     O_R   0.173670 0.122490 0.685950 -0.539625
O5    O     O_R   0.806260 0.705340 0.185590 -0.534917
O6    O     O_R   0.193740 0.294660 0.814410 -0.542555
O7    O     O_R   0.693740 0.205340 0.314410 -0.522453
O8    O     O_R   0.306260 0.794660 0.685590 -0.524911
C1    C     C_R   0.825885 0.540511 0.171282 0.752832
C2    C     C_R   0.174521 0.459706 0.829082 0.741164
C3    C     C_R   0.674239 0.039158 0.328719 0.741259
C4    C     C_R   0.325720 0.960457 0.671288 0.749816
O9    O     O_R   0.672940 0.707120 0.178050 -0.533748
O10   O     O_R   0.327060 0.292880 0.821950 -0.546629
O11   O     O_R   0.827060 0.207120 0.321950 -0.516846
O12   O     O_R   0.172940 0.792880 0.678050 -0.529712
O13   O     O_R   0.692060 0.879040 0.306460 -0.544950
O14   O     O_R   0.307940 0.120960 0.693540 -0.546137
O15   O     O_R   0.807940 0.379040 0.193540 -0.543140
O16   O     O_R   0.192060 0.620960 0.806460 -0.524807
C5    C     C_R   0.649404 0.539436 0.160670 0.736779
C6    C     C_R   0.350534 0.461129 0.839254 0.754950
C7    C     C_R   0.851411 0.038312 0.338225 0.744957
C8    C     C_R   0.148833 0.962019 0.661463 0.749845
O17   O     O_3   0.756430 0.544390 0.292140 -0.377364
O18   O     O_3   0.243570 0.455610 0.707860 -0.380359
O19   O     O_3   0.743570 0.044390 0.207860 -0.377449
O20   O     O_3   0.256430 0.955610 0.792140 -0.373713
V1    V     V_3+5 0.748810 0.818610 0.242180 1.428201
V2    V     V_3+5 0.251190 0.181390 0.757820 1.408246
V3    V     V_3+5 0.751190 0.318610 0.257820 1.452431
V4    V     V_3+5 0.248810 0.681390 0.742180 1.464084
C9    C     C_R   0.086691 0.979276 0.608842 -0.183313
C10   C     C_R   0.914650 0.027009 0.389622 -0.160612
C11   C     C_R   0.413645 0.470502 0.890703 -0.163930
C12   C     C_R   0.588247 0.538671 0.106441 -0.171425
C13   C     C_R   0.035721 0.965034 0.420837 0.096317
C14   C     C_R   0.978424 0.127778 0.570810 0.109346
C15   C     C_R   0.478197 0.665947 0.060571 0.108612
C16   C     C_R   0.536235 0.446379 0.920708 0.100618
C17   C     C_R   0.976429 0.989170 0.370773 0.073736
C18   C     C_R   0.031390 0.075304 0.623399 0.050714
C19   C     C_R   0.531112 0.634856 0.115555 0.047692
C20   C     C_R   0.475362 0.428687 0.872927 0.032017
C21   C     C_R   0.913252 0.052483 0.457634 -0.092978
C22   C     C_R   0.085405 0.920975 0.542942 -0.090774
C23   C     C_R   0.589453 0.463446 0.043119 -0.078975
C24   C     C_R   0.412966 0.534696 0.955437 -0.088922
C25   C     C_R   0.973836 0.050866 0.506314 0.001655
C26   C     C_R   0.031775 0.973572 0.489862 0.016169
C27   C     C_R   0.533711 0.485040 0.988649 0.003756
C28   C     C_R   0.474226 0.561682 0.001689 -0.006907
C29   C     C_3   0.547472 0.119613 0.528340 -0.095537
C30   C     C_3   0.450520 0.892650 0.470179 -0.080947
C31   C     C_3   0.957487 0.620918 0.975373 -0.090153
C32   C     C_3   0.054817 0.398521 0.036125 -0.085081
C33   C     C_3   0.529514 0.934975 0.557568 -0.063763
C34   C     C_3   0.468823 0.076513 0.441318 -0.069497
C35   C     C_3   0.975276 0.434736 0.948446 -0.060522
C36   C     C_3   0.036573 0.584308 0.062603 -0.080311
C37   C     C_1   0.370997 0.962277 0.625227 -0.168380
C38   C     C_1   0.628755 0.036027 0.374662 -0.171041
C39   C     C_1   0.130963 0.461110 0.876925 -0.196591
C40   C     C_1   0.873002 0.541184 0.126816 -0.168477
C41   C     C_3   0.472040 0.167586 0.509867 0.029394
C42   C     C_3   0.525785 0.843611 0.488877 0.016371
C43   C     C_3   0.032730 0.670764 0.992717 0.029778
C44   C     C_3   0.979544 0.348165 0.018507 0.013035
C45   C     C_3   0.454523 0.982777 0.538888 0.023007
C46   C     C_3   0.543576 0.027891 0.459717 -0.005617
C47   C     C_3   0.050333 0.484187 0.965979 0.026458
C48   C     C_3   0.961804 0.534405 0.045309 -0.003934
C49   C     C_1   0.408629 0.964178 0.586291 -0.009131
C50   C     C_1   0.590598 0.037337 0.413067 0.064978
C51   C     C_1   0.094958 0.464375 0.917431 -0.010160
C52   C     C_1   0.913139 0.544253 0.090337 0.061787
C53   C     C_2   0.134305 0.780893 0.532664 0.732795
O21   O     O_2   0.194125 0.811381 0.548144 -0.567805
O22   O     O_R   0.111392 0.614532 0.503778 -0.679015
H1    H     H_    0.149064 0.529819 0.498820 0.279426
C54   C     C_2   0.847655 0.052282 0.479047 0.704225
O23   O     O_2   0.840326 0.961024 0.527166 -0.561194
O24   O     O_R   0.795427 0.161559 0.446235 -0.666885
H2    H     H_    0.754363 0.151918 0.466613 0.308459
C55   C     C_2   0.348077 0.546376 0.977832 0.707461
O25   O     O_2   0.343655 0.490436 0.033045 -0.564823
O26   O     O_R   0.292817 0.626573 0.937150 -0.664705
H3    H     H_    0.252193 0.624011 0.958197 0.290770
C56   C     C_2   0.646207 0.345150 0.037689 0.734020
O27   O     O_2   0.636592 0.185061 0.022186 -0.571602
O28   O     O_R   0.710588 0.417492 0.050087 -0.672603
H4    H     H_    0.745079 0.324165 0.044246 0.290461
C57   C     C_3   0.027099 0.107768 0.696010 -0.382588
C58   C     C_3   0.018920 0.926762 0.731936 -0.315991
C59   C     C_3   0.037452 0.947736 0.806980 -0.681811
H5    H     H_    0.090704 0.987007 0.822164 0.212362
H6    H     H_    0.006104 0.053661 0.823694 0.261147
H7    H     H_    0.029355 0.815653 0.830997 0.251517
H8    H     H_    0.966190 0.881259 0.718299 0.226086
H9    H     H_    0.050481 0.817443 0.717448 0.188497
H10   H     H_    0.071567 0.183543 0.721769 0.189282
H11   H     H_    0.984548 0.194373 0.701620 0.179648
C60   C     C_3   0.978370 0.962088 0.297366 -0.348041
C61   C     C_3   0.007511 0.126743 0.265395 -0.340170
C62   C     C_3   0.956466 0.275252 0.244174 -0.711790
H12   H     H_    0.914896 0.218823 0.207019 0.223818
H13   H     H_    0.938014 0.328464 0.287645 0.234002
H14   H     H_    0.979819 0.389205 0.221175 0.232553
H15   H     H_    0.050123 0.190271 0.299133 0.217799
H16   H     H_    0.025373 0.079640 0.220659 0.226703
H17   H     H_    0.007601 0.837481 0.293158 0.154125
H18   H     H_    0.929094 0.928021 0.266622 0.177316
C63   C     C_3   0.475061 0.373804 0.801389 -0.373262
C64   C     C_3   0.475534 0.543533 0.757039 -0.302966
C65   C     C_3   0.451412 0.496218 0.684382 -0.687583
H19   H     H_    0.480949 0.380761 0.670869 0.268117
H20   H     H_    0.397929 0.457815 0.675653 0.216490
H21   H     H_    0.457027 0.616407 0.652844 0.219471
H22   H     H_    0.442548 0.651426 0.770216 0.192722
H23   H     H_    0.526558 0.601218 0.763714 0.210560
H24   H     H_    0.516442 0.279966 0.797535 0.180940
H25   H     H_    0.431025 0.287898 0.781868 0.182164
C66   C     C_3   0.522228 0.687963 0.185023 -0.358018
C67   C     C_3   0.471979 0.559221 0.207795 -0.391333
C68   C     C_3   0.452586 0.627698 0.270942 -0.621954
H26   H     H_    0.497376 0.637874 0.311133 0.224139
H27   H     H_    0.428537 0.763720 0.262318 0.239470
H28   H     H_    0.416727 0.530457 0.286155 0.263039
H29   H     H_    0.425958 0.546230 0.169005 0.235426
H30   H     H_    0.494600 0.421559 0.217199 0.206763
H31   H     H_    0.569012 0.680248 0.222762 0.170088
H32   H     H_    0.505685 0.831360 0.186154 0.191736
C69   C     C_3   0.104174 0.969971 0.400646 -0.351182
C70   C     C_3   0.139851 0.151788 0.421898 -0.353789
C71   C     C_3   0.195669 0.191085 0.384442 -0.679322
H33   H     H_    0.233980 0.083266 0.394964 0.275253
H34   H     H_    0.175804 0.198329 0.330048 0.230446
H35   H     H_    0.219159 0.323999 0.400639 0.221122
H36   H     H_    0.103677 0.266299 0.412091 0.210146
H37   H     H_    0.161107 0.149015 0.476075 0.216130
H38   H     H_    0.136185 0.853346 0.419360 0.193604
H39   H     H_    0.101231 0.951723 0.346982 0.173680
C72   C     C_3   0.934533 0.289832 0.580339 -0.340455
C73   C     C_3   0.975663 0.465018 0.597061 -0.372632
C74   C     C_3   0.930192 0.626946 0.600723 -0.684835
H40   H     H_    0.892974 0.640827 0.553632 0.260986
H41   H     H_    0.904041 0.609400 0.642865 0.234460
H42   H     H_    0.960286 0.753145 0.608030 0.228264
H43   H     H_    0.004533 0.492428 0.557527 0.240013
H44   H     H_    0.011450 0.452760 0.645116 0.197892
H45   H     H_    0.898933 0.324278 0.534116 0.193037
H46   H     H_    0.904236 0.258368 0.618245 0.190509
C75   C     C_3   0.432683 0.829703 0.062336 -0.337223
C76   C     C_3   0.471576 0.010922 0.066695 -0.337749
C77   C     C_3   0.435222 0.158322 0.097243 -0.723375
H47   H     H_    0.383305 0.171122 0.068999 0.269662
H48   H     H_    0.434330 0.123933 0.149851 0.214704
H49   H     H_    0.461443 0.289959 0.095953 0.236953
H50   H     H_    0.522804 0.998466 0.096763 0.216719
H51   H     H_    0.476664 0.054775 0.015928 0.214288
H52   H     H_    0.393717 0.843541 0.016874 0.179644
H53   H     H_    0.406264 0.813739 0.104327 0.204864
C78   C     C_3   0.601716 0.471405 0.895961 -0.364426
C79   C     C_3   0.626077 0.669882 0.904972 -0.314422
C80   C     C_3   0.678621 0.711566 0.863678 -0.710363
H54   H     H_    0.721514 0.617341 0.877702 0.254619
H55   H     H_    0.657208 0.695920 0.809872 0.231930
H56   H     H_    0.695964 0.854589 0.872336 0.220334
H57   H     H_    0.647497 0.696116 0.958179 0.231292
H58   H     H_    0.583509 0.764593 0.888881 0.200591
H59   H     H_    0.640981 0.375454 0.918956 0.196748
H60   H     H_    0.596993 0.439950 0.842946 0.190611
C81   C     C_2   0.561265 0.864357 0.625316 0.770239
O29   O     O_2   0.588296 0.715468 0.631664 -0.545790
O30   O     O_R   0.558539 0.969669 0.681184 -0.654643
H61   H     H_    0.580853 0.908107 0.724201 0.287927
C82   C     C_2   0.434048 0.151917 0.375087 0.780839
O31   O     O_2   0.376050 0.200977 0.367442 -0.541258
O32   O     O_R   0.467363 0.159894 0.322018 -0.679545
H62   H     H_    0.437361 0.201281 0.279146 0.283030
C83   C     C_2   0.942969 0.361485 0.881597 0.760680
O33   O     O_2   0.914764 0.214030 0.877066 -0.553729
O34   O     O_R   0.946296 0.462914 0.824438 -0.653938
H63   H     H_    0.923541 0.399626 0.782189 0.293748
C84   C     C_2   0.072759 0.667880 0.126326 0.798266
O35   O     O_2   0.131889 0.705388 0.132942 -0.525807
O36   O     O_R   0.039227 0.701122 0.177839 -0.685391
H64   H     H_    0.070166 0.752063 0.218369 0.283316
C85   C     C_2   0.603749 0.232703 0.564879 0.774014
O37   O     O_2   0.595712 0.325258 0.611885 -0.524583
O38   O     O_R   0.666265 0.222247 0.547773 -0.679761
H65   H     H_    0.701093 0.298612 0.577699 0.302907
C86   C     C_2   0.392094 0.794110 0.430849 0.746355
O39   O     O_2   0.400432 0.668695 0.394790 -0.582954
O40   O     O_R   0.328086 0.858746 0.430840 -0.658961
H66   H     H_    0.292596 0.792430 0.397938 0.295720
C87   C     C_2   0.901732 0.735221 0.938699 0.778432
O41   O     O_2   0.908590 0.819625 0.888969 -0.523369
O42   O     O_R   0.841094 0.737503 0.959754 -0.672728
H67   H     H_    0.807612 0.821133 0.931458 0.295058
C88   C     C_2   0.112103 0.297080 0.076965 0.747513
O43   O     O_2   0.101995 0.171034 0.112943 -0.574748
O44   O     O_R   0.176896 0.359454 0.078229 -0.640722
H68   H     H_    0.211472 0.290091 0.111308 0.314737
C89   C     C_3   0.558465 0.663275 0.475491 -0.316894
C90   C     C_3   0.635308 0.666791 0.494525 -0.278696
C91   C     C_3   0.666806 0.563883 0.444139 -0.703677
H69   H     H_    0.647533 0.422066 0.438454 0.243650
H70   H     H_    0.655122 0.633237 0.394974 0.227378
H71   H     H_    0.721744 0.559845 0.461190 0.234386
H72   H     H_    0.655545 0.807532 0.498968 0.217797
H73   H     H_    0.651828 0.602507 0.544080 0.242996
H74   H     H_    0.540533 0.553926 0.504375 0.174248
H75   H     H_    0.541598 0.631093 0.422152 0.185977
C92   C     C_3   0.436458 0.349273 0.516135 -0.355576
C93   C     C_3   0.364082 0.324320 0.525360 -0.296579
C94   C     C_3   0.322020 0.494756 0.509902 -0.685790
H76   H     H_    0.348319 0.614282 0.535855 0.244189
H77   H     H_    0.310146 0.516407 0.455469 0.252554
H78   H     H_    0.274336 0.475757 0.527066 0.216116
H79   H     H_    0.364520 0.291610 0.578008 0.198006
H80   H     H_    0.339147 0.212294 0.493461 0.251305
H81   H     H_    0.464826 0.427344 0.558234 0.183731
H82   H     H_    0.436907 0.427910 0.470420 0.221217
C95   C     C_3   0.948481 0.169019 0.037169 -0.296971
C96   C     C_3   0.872094 0.162368 0.015518 -0.315396
C97   C     C_3   0.840818 0.044500 0.062899 -0.713935
H83   H     H_    0.867790 0.913402 0.073291 0.255234
H84   H     H_    0.842701 0.116667 0.110472 0.222069
H85   H     H_    0.787939 0.015249 0.040460 0.236023
H86   H     H_    0.849567 0.299902 0.012152 0.207389
H87   H     H_    0.858522 0.104097 0.965079 0.247411
H88   H     H_    0.968732 0.054267 0.013373 0.167295
H89   H     H_    0.963487 0.151273 0.091942 0.200476
C98   C     C_3   0.066875 0.854719 0.983878 -0.360452
C99   C     C_3   0.138679 0.833065 0.973343 -0.304789
C100  C     C_3   0.180409 0.004754 0.989119 -0.681576
H90   H     H_    0.153181 0.125207 0.964630 0.231099
H91   H     H_    0.193238 0.022704 0.043701 0.260209
H92   H     H_    0.227629 0.990537 0.970798 0.221184
H93   H     H_    0.137600 0.801328 0.920518 0.198910
H94   H     H_    0.163877 0.721138 0.005465 0.247923
H95   H     H_    0.037134 0.931972 0.941756 0.190259
H96   H     H_    0.068153 0.934235 0.029460 0.215139

loop_
_geom_bond_atom_site_label_1
_geom_bond_atom_site_label_2
_ccdc_geom_bond_type
O17   V3    S    
C71   H35   S    
C61   H16   S    
O26   H3    S    
O1    C5    A    
C57   C58   S    
C4    C37   S    
C31   C35   S    
C66   H32   S    
O19   V1    S    
C1    C40   S    
O13   V1    S    
C14   C72   S    
C79   H58   S    
C2    C39   S    
C33   C42   S    
C92   C93   S    
C3    C38   S    
O15   V3    S    
C92   H82   S    
C74   H40   S    
C88   O44   S    
C59   H7    S    
O4    V2    S    
C66   C67   S    
C5    C12   S    
C31   C87   S    
C83   O33   D    
C94   H78   S    
O7    C3    A    
C6    C11   S    
C62   H13   S    
C43   C98   S    
C69   H39   S    
C36   C84   S    
C67   C68   S    
C15   C75   S    
O24   H2    S    
C95   H89   S    
C60   H17   S    
C79   C80   S    
C32   C36   S    
C41   C92   S    
C55   O25   D    
C61   H15   S    
O4    C8    A    
C96   H87   S    
C84   O36   S    
C77   H48   S    
C36   C48   S    
C65   H19   S    
C18   C57   S    
O1    V3    S    
C99   C100  S    
C12   C23   A    
O2    V4    S    
C88   O43   D    
C99   H94   S    
C35   C83   S    
C93   H79   S    
C73   H44   S    
C60   C61   S    
C54   O24   S    
O3    C7    A    
C90   H72   S    
C1    O15   A    
C63   H25   S    
C97   H83   S    
C36   C43   S    
C2    O16   A    
C82   O32   S    
C46   C50   S    
C91   H71   S    
C98   C99   S    
C45   C49   S    
O14   V2    S    
C21   C25   A    
C56   O28   S    
C29   C41   S    
C16   C20   A    
C31   C48   S    
C86   O39   D    
C53   O21   D    
C66   H31   S    
C65   H21   S    
O11   C7    A    
C15   C28   A    
C89   H74   S    
O42   H67   S    
O12   C8    A    
C30   C86   S    
C81   O29   D    
C100  H90   S    
C77   H49   S    
C9    C22   A    
C23   C56   S    
C79   H57   S    
C58   C59   S    
C10   C17   A    
O10   V2    S    
C29   C46   S    
C61   C62   S    
C74   H41   S    
O16   V4    S    
C64   C65   S    
O5    V1    S    
C55   O26   S    
C62   H14   S    
C77   H47   S    
O7    V3    S    
C67   H30   S    
C27   C28   A    
O8    V4    S    
C71   H33   S    
C93   C94   S    
C44   C48   S    
C16   C78   S    
C83   O34   S    
C57   H10   S    
C70   H36   S    
C14   C25   A    
C42   C89   S    
C29   C33   S    
C90   C91   S    
C34   C46   S    
C23   C27   A    
O40   H66   S    
C37   C49   T    
C94   H76   S    
C89   C90   S    
C85   O37   D    
C54   O23   D    
C91   H69   S    
C75   H52   S    
C60   H18   S    
C99   H93   S    
O34   H63   S    
C76   H51   S    
C73   H43   S    
C11   C20   A    
C90   H73   S    
C35   C44   S    
C68   H28   S    
C69   C70   S    
C34   C41   S    
C31   C43   S    
O30   H61   S    
C58   H9    S    
O8    C4    A    
C32   C47   S    
C86   O40   S    
C95   C96   S    
C40   C52   T    
C53   O22   S    
O9    C5    A    
C48   C52   S    
C10   C21   A    
C87   O42   S    
C78   H60   S    
C98   H95   S    
C76   C77   S    
C81   O30   S    
C33   C81   S    
C72   H46   S    
O6    V2    S    
C20   C63   S    
C96   C97   S    
C80   H56   S    
C100  H91   S    
C68   H26   S    
C25   C26   A    
C13   C69   S    
O12   V4    S    
C9    C18   A    
C19   C66   S    
O28   H4    S    
C74   H42   S    
C78   H59   S    
C68   H27   S    
C63   C64   S    
C30   C34   S    
O9    V1    S    
O38   H65   S    
C71   H34   S    
C65   H20   S    
C3    O13   A    
C7    C10   S    
C97   H84   S    
C44   C95   S    
C21   C54   S    
C64   H22   S    
O5    C1    A    
C73   C74   S    
C92   H81   S    
C57   H11   S    
C89   H75   S    
C22   C53   S    
C15   C19   A    
C59   H6    S    
O11   V3    S    
C70   C71   S    
C32   C88   S    
C70   H37   S    
O32   H62   S    
C94   H77   S    
C16   C27   A    
C62   H12   S    
C22   C26   A    
C69   H38   S    
C8    C9    S    
C75   H53   S    
C95   H88   S    
O10   C6    A    
O20   V2    S    
C72   C73   S    
C56   O27   D    
C76   H50   S    
C32   C44   S    
O2    C6    A    
C47   C51   S    
C13   C26   A    
O3    V1    S    
C84   O35   D    
C42   C46   S    
C30   C45   S    
C39   C51   T    
C58   H8    S    
C41   C45   S    
C72   H45   S    
C67   H29   S    
C34   C82   S    
C43   C47   S    
C13   C17   A    
C87   O41   D    
C93   H80   S    
C98   H96   S    
C78   C79   S    
C11   C24   A    
O6    C2    A    
O22   H1    S    
C14   C18   A    
C17   C60   S    
C80   H54   S    
C24   C28   A    
C97   H85   S    
C63   H24   S    
C80   H55   S    
C82   O31   D    
C100  H92   S    
C4    O14   A    
C59   H5    S    
C91   H70   S    
C24   C55   S    
C38   C50   T    
C12   C19   A    
O36   H64   S    
O44   H68   S    
C33   C45   S    
C75   C76   S    
C30   C42   S    
C29   C85   S    
O18   V4    S    
C64   H23   S    
C96   H86   S    
C35   C47   S    
C85   O38   S    
