data_mof_unit_65609.cif
_audit_creation_date              2013-03-05T16:25:18-0500
_audit_creation_method            fapswitch 2.2
_symmetry_space_group_name_H-M    P1
_symmetry_Int_Tables_number       1
_space_group_crystal_system       triclinic
_cell_length_a                    15.193445
_cell_length_b                    13.997998
_cell_length_c                    17.643374
_cell_angle_alpha                 90.000187
_cell_angle_beta                  92.30181
_cell_angle_gamma                 90.00002
_cell_volume                      3749.32651745

loop_
_atom_site_label
_atom_site_type_symbol
_atom_site_description
_atom_site_fract_x
_atom_site_fract_y
_atom_site_fract_z
_atom_type_partial_charge
O1    O     O_R   0.371460 0.581430 0.500010 -0.534545
O2    O     O_R   0.628540 0.418570 0.499990 -0.519292
O3    O     O_R   0.628540 0.581430 0.499990 -0.534535
O4    O     O_R   0.371460 0.418570 0.500010 -0.519285
C1    C     C_R   0.329936 0.499839 0.500268 0.976806
C2    C     C_R   0.670063 0.499839 0.499731 0.976814
O5    O     O_R   0.500000 0.581470 0.391250 -0.532385
O6    O     O_R   0.500000 0.418530 0.608750 -0.541904
O7    O     O_R   0.500000 0.581470 0.608750 -0.532393
O8    O     O_R   0.500000 0.418530 0.391250 -0.541906
C3    C     C_R   0.499830 0.500048 0.356098 0.961762
C4    C     C_R   0.500170 0.500048 0.643901 0.961769
Cu1   Cu    Cu3+1 0.500000 0.596430 0.500000 1.144364
Cu2   Cu    Cu3+1 0.500000 0.403570 0.500000 1.146205
C5    C     C_R   0.421012 0.516718 0.842510 0.355996
C6    C     C_R   0.420588 0.486273 0.151896 0.345486
C7    C     C_R   0.578990 0.516752 0.157492 0.355994
C8    C     C_R   0.579425 0.486308 0.848101 0.345487
C9    C     C_R   0.421033 0.516420 0.763098 0.290982
C10   C     C_R   0.420526 0.486064 0.231313 0.315876
C11   C     C_R   0.578967 0.516453 0.236904 0.290994
C12   C     C_R   0.579483 0.486096 0.768684 0.315890
C13   C     C_R   0.500166 0.500428 0.726433 -0.288817
C14   C     C_R   0.499837 0.500427 0.273567 -0.288818
C15   C     C_R   0.500157 0.501397 0.884771 -0.226527
C16   C     C_R   0.499852 0.501396 0.115229 -0.226528
C17   C     C_1   0.500061 0.501445 0.966018 0.233672
C18   C     C_1   0.499951 0.501445 0.033982 0.233671
C19   C     C_R   0.091288 0.569468 0.463378 0.382273
C20   C     C_R   0.903294 0.420985 0.463899 0.382342
C21   C     C_R   0.908712 0.569465 0.536621 0.382266
C22   C     C_R   0.096703 0.420980 0.536090 0.382333
C23   C     C_R   0.183093 0.572372 0.464880 0.272303
C24   C     C_R   0.811287 0.422646 0.463591 0.295669
C25   C     C_R   0.816907 0.572369 0.535121 0.272318
C26   C     C_R   0.188711 0.422641 0.536400 0.295690
C27   C     C_R   0.232955 0.498654 0.500831 -0.315371
C28   C     C_R   0.767044 0.498654 0.499166 -0.315367
C29   C     C_R   0.048177 0.494344 0.499525 -0.177350
C30   C     C_R   0.951822 0.494344 0.500469 -0.177349
C31   C     C_R   0.571723 0.107763 0.531597 0.283606
C32   C     C_R   0.487417 0.894128 0.432653 0.279853
C33   C     C_R   0.428278 0.107762 0.468403 0.283602
C34   C     C_R   0.512584 0.894129 0.567347 0.279853
C35   C     C_R   0.566209 0.208360 0.537652 0.451656
C36   C     C_R   0.476411 0.793674 0.435418 0.441314
C37   C     C_R   0.433791 0.208359 0.462348 0.451662
C38   C     C_R   0.523589 0.793674 0.564582 0.441301
N1    N     N_R   0.500000 0.258690 0.500000 -0.302751
N2    N     N_R   0.500000 0.741310 0.500000 -0.301745
C39   C     C_R   0.500000 0.055213 0.500000 -0.080714
C40   C     C_R   0.500001 0.946715 0.500000 -0.070983
Cl1   Cl    Cl    0.321608 0.536314 0.888966 -0.395997
Cl2   Cl    Cl    0.321102 0.467870 0.098409 -0.384197
Cl3   Cl    Cl    0.678389 0.536394 0.111039 -0.395998
Cl4   Cl    Cl    0.678920 0.467950 0.901586 -0.384206
Cl5   Cl    Cl    0.321699 0.535634 0.709502 -0.516494
Cl6   Cl    Cl    0.320608 0.470277 0.277905 -0.442076
Cl7   Cl    Cl    0.678293 0.535706 0.290503 -0.516483
Cl8   Cl    Cl    0.679403 0.470340 0.722089 -0.442085
O9    O     O_3   0.044003 0.645067 0.431435 -0.487432
C41   C     C_3   0.017273 0.622004 0.356087 0.071524
H1    H     H_    0.960833 0.571595 0.355660 0.123010
H2    H     H_    0.071978 0.590414 0.323973 0.175892
C42   C     C_3   0.986741 0.712531 0.315358 -0.536859
H3    H     H_    0.041757 0.764698 0.314194 0.273327
H4    H     H_    0.964609 0.695291 0.256181 0.213878
H5    H     H_    0.930978 0.744961 0.345054 0.259265
O10   O     O_3   0.945490 0.343252 0.433023 -0.484177
C43   C     C_3   0.966894 0.364325 0.357711 0.071172
H6    H     H_    0.024212 0.413523 0.357308 0.124122
H7    H     H_    0.910255 0.396468 0.324551 0.175977
C44   C     C_3   0.992686 0.272396 0.318467 -0.531603
H8    H     H_    0.936661 0.221373 0.317319 0.267302
H9    H     H_    0.010508 0.288017 0.259310 0.211236
H10   H     H_    0.050218 0.239385 0.349233 0.269980
O11   O     O_3   0.955998 0.645060 0.568570 -0.487434
C45   C     C_3   0.982728 0.621990 0.643916 0.071527
H11   H     H_    0.039167 0.571580 0.644339 0.123008
H12   H     H_    0.928022 0.590398 0.676028 0.175902
C46   C     C_3   0.013261 0.712513 0.684651 -0.536864
H13   H     H_    0.958246 0.764680 0.685818 0.273329
H14   H     H_    0.035393 0.695267 0.743827 0.213878
H15   H     H_    0.069024 0.744944 0.654957 0.259260
O12   O     O_3   0.054506 0.343244 0.566960 -0.484178
C47   C     C_3   0.033103 0.364309 0.642273 0.071175
H16   H     H_    0.975785 0.413509 0.642680 0.124120
H17   H     H_    0.089742 0.396448 0.675436 0.175985
C48   C     C_3   0.007308 0.272376 0.681510 -0.531600
H18   H     H_    0.063332 0.221353 0.682654 0.267304
H19   H     H_    0.989486 0.287991 0.740668 0.211234
H20   H     H_    0.949775 0.239370 0.650741 0.269979
Cl9   Cl    Cl    0.231743 0.668907 0.417748 -0.407615
Cl10  Cl    Cl    0.754616 0.329753 0.413973 -0.445492
Cl11  Cl    Cl    0.768258 0.668899 0.582260 -0.407588
Cl12  Cl    Cl    0.245378 0.329741 0.586010 -0.445458
Cl13  Cl    Cl    0.670588 0.049309 0.561082 -0.371486
Cl14  Cl    Cl    0.487057 0.952915 0.343677 -0.379606
Cl15  Cl    Cl    0.329412 0.049307 0.438919 -0.371479
Cl16  Cl    Cl    0.512945 0.952916 0.656323 -0.379611
Cl17  Cl    Cl    0.643633 0.266207 0.598751 -0.389978
Cl18  Cl    Cl    0.421623 0.743725 0.354979 -0.364352
Cl19  Cl    Cl    0.356366 0.266204 0.401250 -0.389944
Cl20  Cl    Cl    0.578377 0.743725 0.645021 -0.364343

loop_
_geom_bond_atom_site_label_1
_geom_bond_atom_site_label_2
_geom_bond_distance
_ccdc_geom_bond_type
C1    C27   1.474008 S    
C34   Cl16  1.772256 S    
C44   H8    1.110715 S    
O3    C2    1.304871 A    
C46   H15   1.110869 S    
C46   H13   1.110725 S    
C37   N1    1.376921 A    
O12   C47   1.411759 S    
C9    Cl5   1.769090 S    
C5    C9    1.401106 A    
C36   Cl18  1.760978 S    
C4    C13   1.456141 S    
O1    C1    1.304872 A    
C7    C16   1.405677 A    
C5    Cl1   1.768466 S    
C6    C10   1.401220 A    
C33   Cl15  1.770225 S    
C11   Cl7   1.769096 S    
C32   Cl14  1.772256 S    
C12   Cl8   1.769029 S    
C47   H17   1.115711 S    
C5    C15   1.405673 A    
Cu2   N1    2.028029 S    
C38   Cl20  1.760977 S    
C19   C23   1.394623 A    
C3    C14   1.456143 S    
C21   C30   1.405400 A    
C32   C36   1.417138 A    
C22   C29   1.405772 A    
O7    Cu1   1.930111 S    
C31   Cl13  1.770225 S    
C41   H2    1.115907 S    
C10   C14   1.405736 A    
C42   H4    1.110508 S    
C2    C28   1.474002 S    
C43   H6    1.110507 S    
C48   H19   1.110496 S    
C7    Cl3   1.768473 S    
O9    C41   1.411755 S    
O3    Cu1   1.964226 S    
C8    Cl4   1.768351 S    
C34   C40   1.404292 A    
C38   N2    1.389693 A    
C24   C28   1.418352 A    
Cu1   Cu2   2.699655 S    
C44   H9    1.110494 S    
O2    C2    1.300923 A    
C8    C15   1.405789 A    
C46   H14   1.110508 S    
C21   O11   1.386040 S    
C6    C16   1.405792 A    
C19   O9    1.386040 S    
C37   Cl19  1.760574 S    
C20   C24   1.397889 A    
C39   C40   1.518762 S    
C25   C28   1.415091 A    
O8    Cu2   1.930111 S    
C29   C30   1.464722 S    
C47   H16   1.110507 S    
O11   C45   1.411755 S    
C23   C27   1.415093 A    
C9    C13   1.405923 A    
C41   H1    1.110308 S    
C26   Cl12  1.771437 S    
O5    C3    1.297511 A    
C35   N1    1.376921 A    
O6    C4    1.298689 A    
C42   H5    1.110869 S    
C19   C29   1.405400 A    
C43   C44   1.520094 S    
C20   C30   1.405774 A    
C48   H20   1.110918 S    
C35   Cl17  1.760580 S    
C44   H10   1.110916 S    
C21   C25   1.394622 A    
O1    Cu1   1.964229 S    
C10   Cl6   1.769031 S    
C22   C26   1.397889 A    
C20   O10   1.385565 S    
C26   C27   1.418356 A    
O6    Cu2   1.930110 S    
C41   C42   1.520064 S    
C8    C12   1.401219 A    
C24   Cl10  1.771436 S    
O4    C1    1.300923 A    
C47   C48   1.520095 S    
C23   Cl9   1.764434 S    
C25   Cl11  1.764433 S    
C15   C17   1.433526 S    
C36   N2    1.389695 A    
C16   C18   1.433527 S    
C45   H11   1.110308 S    
C45   C46   1.520063 S    
C33   C39   1.410863 A    
C22   O12   1.385566 S    
C45   H12   1.115907 S    
O4    Cu2   1.964229 S    
O10   C43   1.411760 S    
O2    Cu2   1.964226 S    
O7    C4    1.297511 A    
C6    Cl2   1.768357 S    
O8    C3    1.298692 A    
Cu1   N2    2.028029 S    
O5    Cu1   1.930110 S    
C42   H3    1.110726 S    
C11   C14   1.405928 A    
C17   C18   1.199186 T    
C31   C35   1.414941 A    
C12   C13   1.405731 A    
C43   H7    1.115710 S    
C48   H18   1.110716 S    
C33   C37   1.414940 A    
C31   C39   1.410863 A    
C34   C38   1.417138 A    
C32   C40   1.404291 A    
C7    C11   1.401107 A    
