data_mof_unit_20238.cif
_audit_creation_date              2013-03-05T16:15:21-0500
_audit_creation_method            fapswitch 2.2
_symmetry_space_group_name_H-M    P1
_symmetry_Int_Tables_number       1
_space_group_crystal_system       triclinic
_cell_length_a                    27.767783
_cell_length_b                    10.61804
_cell_length_c                    9.403614
_cell_angle_alpha                 90.400476
_cell_angle_beta                  90.078557
_cell_angle_gamma                 89.948442
_cell_volume                      2772.48476654

loop_
_atom_site_label
_atom_site_type_symbol
_atom_site_description
_atom_site_fract_x
_atom_site_fract_y
_atom_site_fract_z
_atom_type_partial_charge
O1    O     O_R   0.500020 0.316850 0.620870 -0.581481
O2    O     O_R   0.499980 0.683150 0.379130 -0.581562
O3    O     O_R   0.500000 0.316860 0.379090 -0.588409
O4    O     O_R   0.500000 0.683140 0.620910 -0.588652
C1    C     C_R   0.500011 0.259354 0.499480 0.787266
C2    C     C_R   0.499987 0.740646 0.500519 0.786623
O5    O     O_R   0.430270 0.500020 0.620880 -0.582858
O6    O     O_R   0.569730 0.499980 0.379120 -0.583898
O7    O     O_R   0.430250 0.500030 0.379090 -0.586680
O8    O     O_R   0.569750 0.499970 0.620910 -0.585988
C3    C     C_R   0.407483 0.500201 0.499939 0.809948
C4    C     C_R   0.592538 0.499839 0.500094 0.810296
Cu1   Cu    Cu3+1 0.500010 0.499990 0.643150 0.932896
Cu2   Cu    Cu3+1 0.499990 0.500010 0.356850 0.932500
C5    C     C_R   0.178127 0.407267 0.573179 0.542181
C6    C     C_R   0.821853 0.612329 0.487929 0.592796
O9    O     O_2   0.203453 0.310937 0.629031 -0.538544
O10   O     O_2   0.796327 0.718367 0.464177 -0.534142
N1    N     N_R   0.201728 0.503535 0.507113 -0.472223
N2    N     N_R   0.798412 0.500355 0.506584 -0.456122
C7    C     C_R   0.177195 0.602852 0.449894 0.535054
C8    C     C_R   0.823158 0.391635 0.533704 0.511557
C9    C     C_R   0.278141 0.475100 0.373972 0.309610
C10   C     C_R   0.721756 0.514151 0.372910 0.307250
C11   C     C_R   0.328703 0.474526 0.374805 -0.228384
C12   C     C_R   0.671270 0.515481 0.373245 -0.291198
C13   C     C_R   0.329296 0.527916 0.625904 -0.225588
C14   C     C_R   0.670957 0.482000 0.628065 -0.224508
C15   C     C_R   0.279214 0.528540 0.626532 -0.139728
C16   C     C_R   0.721089 0.481177 0.628639 -0.166386
C17   C     C_R   0.253376 0.502060 0.501927 0.292644
C18   C     C_R   0.746744 0.497494 0.502029 0.338323
C19   C     C_R   0.101689 0.508509 0.523175 -0.053379
C20   C     C_R   0.898474 0.506913 0.522254 -0.051862
C21   C     C_R   0.127674 0.408121 0.582794 -0.057477
C22   C     C_R   0.872344 0.617562 0.494618 -0.066714
C23   C     C_R   0.103035 0.313163 0.654688 -0.210981
C24   C     C_R   0.896886 0.731557 0.479295 -0.212202
C25   C     C_R   0.126714 0.606708 0.455730 -0.007356
C26   C     C_R   0.873606 0.392796 0.542041 -0.004339
C27   C     C_R   0.354476 0.501166 0.500084 -0.093548
C28   C     C_R   0.645582 0.499140 0.500433 -0.066379
H1    H     H_    0.348283 0.548916 0.723930 0.160458
H2    H     H_    0.652114 0.469131 0.727663 0.156254
H3    H     H_    0.260248 0.549657 0.724427 0.146082
H4    H     H_    0.740183 0.468879 0.728099 0.149371
H5    H     H_    0.122922 0.240073 0.709243 0.186489
H6    H     H_    0.876931 0.818575 0.467022 0.186877
C29   C     C_R   0.975103 0.399856 0.568222 0.056925
C30   C     C_R   0.025095 0.616472 0.478463 0.055352
C31   C     C_R   0.974339 0.622909 0.497400 0.002508
C32   C     C_R   0.025761 0.406444 0.588374 0.003667
C33   C     C_R   0.949424 0.510081 0.529631 0.013911
C34   C     C_R   0.050729 0.510576 0.530412 0.012963
C35   C     C_R   0.949484 0.285516 0.578577 -0.175066
C36   C     C_R   0.050915 0.709276 0.403507 -0.171112
C37   C     C_R   0.899599 0.282276 0.567041 -0.173540
C38   C     C_R   0.100852 0.705269 0.393938 -0.171809
O11   O     O_2   0.798976 0.282695 0.551654 -0.543714
O12   O     O_2   0.201615 0.697914 0.388659 -0.548424
C39   C     C_R   0.052717 0.313311 0.662800 0.229145
C40   C     C_R   0.947226 0.736531 0.484682 0.234599
H7    H     H_    0.652238 0.529036 0.273844 0.151606
H8    H     H_    0.347943 0.450094 0.278404 0.159669
H9    H     H_    0.881525 0.192396 0.577087 0.186927
H10   H     H_    0.119080 0.779399 0.336608 0.186834
H11   H     H_    0.967569 0.196182 0.589494 0.177882
H12   H     H_    0.033011 0.783247 0.345743 0.180809
C41   C     C_3   0.539610 0.042542 0.566920 -0.162352
C42   C     C_3   0.460387 0.957458 0.433071 -0.163000
C43   C     C_3   0.539520 0.957240 0.432953 -0.164315
C44   C     C_3   0.460477 0.042759 0.567037 -0.164772
H13   H     H_    0.571842 0.918998 0.378259 0.133176
H14   H     H_    0.428154 0.080996 0.621730 0.135279
H15   H     H_    0.572008 0.080598 0.621508 0.134444
H16   H     H_    0.427988 0.919406 0.378482 0.135017
C45   C     C_3   0.499991 0.877587 0.501432 0.018302
C46   C     C_3   0.500006 0.122413 0.498560 0.018215
C47   C     C_3   0.500081 0.960602 0.635517 -0.140011
C48   C     C_3   0.499916 0.039399 0.364474 -0.139623
H17   H     H_    0.500152 0.925786 0.746569 0.129180
H18   H     H_    0.499843 0.074215 0.253422 0.129233
C49   C     C_3   0.534552 0.569051 0.051372 -0.034088
C50   C     C_3   0.465446 0.430949 0.948631 -0.037478
C51   C     C_3   0.494402 0.612850 0.950402 -0.037091
C52   C     C_3   0.505592 0.387151 0.049602 -0.036489
H19   H     H_    0.489602 0.707996 0.904345 0.112165
H20   H     H_    0.510389 0.292004 0.095661 0.112541
H21   H     H_    0.563576 0.627146 0.099721 0.109977
H22   H     H_    0.436423 0.372845 0.900297 0.116600
N3    N     N_3   0.500040 0.499970 0.858290 -0.153926
N4    N     N_3   0.499960 0.500030 0.141710 -0.153299
C53   C     C_3   0.540188 0.456181 0.949396 -0.037122
C54   C     C_3   0.459806 0.543812 0.050614 -0.041207
H23   H     H_    0.573970 0.418958 0.902076 0.109899
H24   H     H_    0.425997 0.580882 0.097960 0.113624
N5    N     N_2   0.747229 0.532448 0.243494 -0.415790
H25   H     H_    0.729176 0.588427 0.171685 0.251400
C55   C     C_3   0.764816 0.417675 0.178074 -0.668952
H26   H     H_    0.785598 0.441022 0.080964 0.227317
H27   H     H_    0.734147 0.355894 0.147528 0.221332
H28   H     H_    0.789030 0.366382 0.251638 0.253331
N6    N     N_2   0.252731 0.441138 0.247308 -0.424145
H29   H     H_    0.217001 0.417827 0.260575 0.260200
C56   C     C_3   0.260914 0.520976 0.125496 -0.655366
H30   H     H_    0.239647 0.485427 0.033519 0.228105
H31   H     H_    0.299451 0.520246 0.094431 0.214378
H32   H     H_    0.249433 0.619039 0.149596 0.259145
N7    N     N_2   0.030360 0.226859 0.757334 -0.457578
H33   H     H_    0.049917 0.145822 0.775285 0.247682
C57   C     C_3   0.012810 0.282942 0.888061 -0.661953
H34   H     H_    0.994047 0.210265 0.951697 0.226294
H35   H     H_    0.986789 0.359759 0.865497 0.242828
H36   H     H_    0.043365 0.321158 0.951438 0.227099
N8    N     N_2   0.969491 0.857338 0.490681 -0.451885
H37   H     H_    0.950151 0.928211 0.442305 0.248439
C58   C     C_3   0.986717 0.893867 0.630241 -0.678140
H38   H     H_    0.006646 0.984038 0.622487 0.226317
H39   H     H_    0.011693 0.821848 0.673438 0.244327
H40   H     H_    0.955888 0.906669 0.704224 0.229718

loop_
_geom_bond_atom_site_label_1
_geom_bond_atom_site_label_2
_geom_bond_distance
_ccdc_geom_bond_type
C13   C15   1.390710 A    
C57   H34   1.110436 S    
C30   C34   1.419470 A    
C12   H7    1.083568 S    
N1    C17   1.435117 S    
N5    H25   1.031857 S    
C51   N3    1.482180 S    
C57   H35   1.110538 S    
C5    N1    1.368022 A    
C49   N4    1.481072 S    
C56   H31   1.109629 S    
C19   C25   1.408572 A    
O1    C1    1.290736 A    
N1    C7    1.367959 A    
C10   C12   1.401945 A    
C44   C47   1.545718 S    
C32   C39   1.426486 A    
N7    C57   1.447132 S    
C52   H20   1.109824 S    
N8    H37   1.032009 S    
C49   C53   1.537655 S    
C14   C28   1.403778 A    
O4    Cu1   1.957360 S    
C41   C43   1.546429 S    
C4    C28   1.472937 S    
C38   H10   1.083412 S    
C9    N6    1.427853 S    
N8    C58   1.446727 S    
C44   C46   1.531662 S    
C41   H15   1.110219 S    
C50   N3    1.481134 S    
C23   H5    1.083710 S    
C24   H6    1.083726 S    
O6    C4    1.301254 A    
C51   H19   1.109825 S    
C39   N7    1.425557 S    
C53   H23   1.110042 S    
Cu1   Cu2   2.692255 S    
Cu1   N3    2.023095 S    
C42   C45   1.531616 S    
C41   C46   1.531613 S    
O2    C2    1.290726 A    
C31   C40   1.427140 A    
C50   H22   1.110253 S    
C5    C21   1.404043 A    
C43   C48   1.545725 S    
N5    C55   1.446147 S    
C32   C34   1.418141 A    
C45   C47   1.533375 S    
C49   H21   1.110285 S    
C56   H32   1.110616 S    
C42   C48   1.545768 S    
C10   N5    1.423033 S    
C7    O12   1.349318 S    
C44   H14   1.110234 S    
C58   H40   1.111480 S    
C11   C27   1.404780 A    
C8    O11   1.349739 S    
C43   H13   1.110243 S    
C2    C45   1.454012 S    
C29   C35   1.411707 A    
C25   C38   1.398049 A    
C14   H2    1.083000 S    
C30   C36   1.412177 A    
C15   H3    1.083190 S    
C31   C33   1.418751 A    
C11   H8    1.082715 S    
C9    C17   1.414116 A    
O5    C3    1.300705 A    
O7    Cu2   1.948070 S    
C10   C18   1.409769 A    
C52   C53   1.536690 S    
N3    C53   1.481550 S    
C51   C54   1.536758 S    
C13   C27   1.402356 A    
C35   H11   1.078356 S    
C55   H26   1.110503 S    
C7    C25   1.403433 A    
O5    Cu1   1.947530 S    
C6    N2    1.368454 A    
C29   C32   1.420835 A    
C8    C26   1.402982 A    
N4    C54   1.481593 S    
C30   C31   1.422354 A    
N6    C56   1.448117 S    
C50   C54   1.537642 S    
C54   H24   1.110205 S    
O7    C3    1.301179 A    
Cu2   N4    2.023095 S    
O3    Cu2   1.957359 S    
O8    C4    1.301186 A    
C48   H18   1.110228 S    
C49   C51   1.537218 S    
N2    C8    1.368221 A    
C35   C37   1.389721 A    
C42   H16   1.110213 S    
C20   C26   1.408796 A    
C41   C47   1.545769 S    
O4    C2    1.290028 A    
O1    Cu1   1.954386 S    
C43   C45   1.531669 S    
C12   C28   1.405284 A    
C47   H17   1.110227 S    
N2    C18   1.435618 S    
C19   C34   1.416901 A    
C5    O9    1.349743 S    
O6    Cu2   1.947530 S    
C26   C37   1.398284 A    
C21   C23   1.397769 A    
C16   H4    1.083124 S    
C37   H9    1.083439 S    
O3    C1    1.290017 A    
O8    Cu1   1.948070 S    
C23   C39   1.399417 A    
C56   H30   1.110728 S    
C36   H12   1.078729 S    
C58   H39   1.110585 S    
C14   C16   1.392055 A    
C15   C17   1.400074 A    
C52   N4    1.482134 S    
N7    H33   1.031856 S    
C6    C22   1.404490 A    
C16   C18   1.400170 A    
C29   C33   1.419029 A    
C22   C24   1.398014 A    
C19   C21   1.406065 A    
C20   C22   1.405891 A    
C36   C38   1.390282 A    
C3    C27   1.471924 S    
C57   H36   1.111551 S    
C46   C48   1.533381 S    
C9    C11   1.404014 A    
O2    Cu2   1.954385 S    
C13   H1    1.083237 S    
C40   N8    1.425184 S    
C55   H28   1.109316 S    
C20   C33   1.416777 A    
C6    O10   1.349679 S    
N6    H29   1.030703 S    
C50   C52   1.537152 S    
C42   C44   1.546422 S    
C1    C46   1.454013 S    
C58   H38   1.109177 S    
C55   H27   1.111651 S    
C24   C40   1.399709 A    
