data_mof_unit_67264.cif
_audit_creation_date              2013-03-05T16:01:29-0500
_audit_creation_method            fapswitch 2.2
_symmetry_space_group_name_H-M    P1
_symmetry_Int_Tables_number       1
_space_group_crystal_system       triclinic
_cell_length_a                    19.970661
_cell_length_b                    20.677025
_cell_length_c                    8.468287
_cell_angle_alpha                 89.960172
_cell_angle_beta                  91.638864
_cell_angle_gamma                 90.123662
_cell_volume                      3495.40316959

loop_
_atom_site_label
_atom_site_type_symbol
_atom_site_description
_atom_site_fract_x
_atom_site_fract_y
_atom_site_fract_z
_atom_type_partial_charge
P1    P     P_3+3 0.136530 0.426510 0.931350 0.469072
P2    P     P_3+3 0.136530 0.573490 0.431350 0.471559
P3    P     P_3+3 0.636530 0.926510 0.931350 0.471459
P4    P     P_3+3 0.636530 0.073490 0.431350 0.477896
O1    O     O_2   0.130070 0.404060 0.104920 -0.369239
O2    O     O_2   0.130070 0.595940 0.604920 -0.376554
O3    O     O_2   0.630070 0.904060 0.104920 -0.375557
O4    O     O_2   0.630070 0.095940 0.604920 -0.370619
O5    O     O_3   0.075780 0.466370 0.861070 -0.403755
O6    O     O_3   0.075780 0.533630 0.361070 -0.400610
O7    O     O_3   0.575780 0.966370 0.861070 -0.405965
O8    O     O_3   0.575780 0.033630 0.361070 -0.408093
O9    O     O_3   0.022320 0.344950 0.359800 -0.388101
O10   O     O_3   0.022320 0.655050 0.859800 -0.390302
O11   O     O_3   0.522320 0.844950 0.359800 -0.390929
O12   O     O_3   0.522320 0.155050 0.859800 -0.407795
O13   O     O_2   0.133151 0.294061 0.240488 -0.408270
O14   O     O_2   0.133334 0.705953 0.739924 -0.410369
O15   O     O_2   0.633834 0.795291 0.241225 -0.411969
O16   O     O_2   0.634517 0.202588 0.744168 -0.362898
O17   O     O_3   0.207662 0.476136 0.941034 -0.544972
O18   O     O_3   0.207353 0.523917 0.439127 -0.540706
O19   O     O_3   0.707152 0.976935 0.943039 -0.540136
O20   O     O_3   0.707817 0.024306 0.441770 -0.544344
O21   O     O_3   0.052380 0.212403 0.372351 -0.520803
O22   O     O_3   0.053005 0.787750 0.871817 -0.513567
O23   O     O_3   0.552615 0.712240 0.366445 -0.509569
O24   O     O_3   0.551997 0.289367 0.843189 -0.472876
H1    H     H_    0.957260 0.239176 0.437728 0.104898
H2    H     H_    0.957496 0.761936 0.936333 0.102173
H3    H     H_    0.456777 0.738757 0.426790 0.104601
H4    H     H_    0.456602 0.253617 0.791660 0.160690
C1    C     C_3   0.976064 0.139219 0.491421 -0.834005
C2    C     C_3   0.978199 0.861322 0.993388 -0.837259
C3    C     C_3   0.474493 0.638283 0.475838 -0.842711
C4    C     C_3   0.453540 0.354556 0.844607 -0.834978
H5    H     H_    0.956238 0.122419 0.374679 0.262817
H6    H     H_    0.958382 0.878996 0.877441 0.261866
H7    H     H_    0.456214 0.622677 0.356796 0.265474
H8    H     H_    0.399520 0.354049 0.872326 0.226725
H9    H     H_    0.018161 0.107504 0.530822 0.295393
H10   H     H_    0.020976 0.892272 0.033127 0.292661
H11   H     H_    0.515910 0.606016 0.516586 0.280824
H12   H     H_    0.459010 0.368637 0.719126 0.301152
P5    P     P_3+3 0.863410 0.426100 0.379280 0.506032
P6    P     P_3+3 0.863410 0.573900 0.879280 0.508464
P7    P     P_3+3 0.363410 0.926100 0.379280 0.503309
P8    P     P_3+3 0.363410 0.073900 0.879280 0.503051
P9    P     P_3+3 0.922256 0.280047 0.917930 0.462603
P10   P     P_3+3 0.924765 0.721540 0.414045 0.461299
P11   P     P_3+3 0.424735 0.778285 0.915993 0.465442
P12   P     P_3+3 0.422829 0.219802 0.423237 0.485662
O25   O     O_2   0.869860 0.403670 0.205810 -0.330049
O26   O     O_2   0.869860 0.596330 0.705810 -0.323936
O27   O     O_2   0.369860 0.903670 0.205810 -0.328547
O28   O     O_2   0.369860 0.096330 0.705810 -0.326839
O29   O     O_3   0.977590 0.344880 0.951200 -0.393277
O30   O     O_3   0.977590 0.655120 0.451200 -0.388798
O31   O     O_3   0.477590 0.844880 0.951200 -0.389476
O32   O     O_3   0.477590 0.155120 0.451200 -0.353316
O33   O     O_2   0.874998 0.277999 0.060014 -0.350724
O34   O     O_2   0.876010 0.724656 0.553201 -0.353216
O35   O     O_2   0.375695 0.776271 0.054675 -0.351410
O36   O     O_2   0.373567 0.216678 0.561078 -0.369561
O37   O     O_3   0.790848 0.475160 0.371829 -0.581008
O38   O     O_3   0.791281 0.523828 0.876740 -0.559976
O39   O     O_3   0.291120 0.975401 0.376887 -0.576724
O40   O     O_3   0.291093 0.024413 0.874382 -0.581180
O41   O     O_3   0.964375 0.206167 0.931179 -0.542397
O42   O     O_3   0.967802 0.795129 0.427492 -0.545494
O43   O     O_3   0.467468 0.704823 0.934689 -0.536091
O44   O     O_3   0.468828 0.290033 0.463559 -0.505851
C5    C     C_3   0.030353 0.216579 0.984882 0.428262
C6    C     C_3   0.032889 0.784873 0.486866 0.433542
C7    C     C_3   0.534657 0.716268 0.976537 0.413554
C8    C     C_3   0.516466 0.299538 0.346612 0.433510
H13   H     H_    0.032451 0.250548 0.085617 0.187449
H14   H     H_    0.033422 0.750424 0.586658 0.185608
H15   H     H_    0.539361 0.751770 0.073679 0.186426
H16   H     H_    0.566615 0.301466 0.405976 0.152749
H17   H     H_    0.060898 0.235533 0.887326 0.052921
H18   H     H_    0.064936 0.766430 0.391701 0.053331
H19   H     H_    0.562048 0.733918 0.872507 0.046364
H20   H     H_    0.518672 0.260642 0.256147 0.015050
C9    C     C_3   0.058831 0.152493 0.041639 -0.770062
C10   C     C_3   0.060374 0.849091 0.547164 -0.770239
C11   C     C_3   0.565263 0.653019 0.034052 -0.757012
C12   C     C_3   0.502455 0.363755 0.264705 -0.901488
H21   H     H_    0.028259 0.133010 0.138151 0.269332
H22   H     H_    0.028853 0.867823 0.642573 0.270573
H23   H     H_    0.537018 0.633750 0.134691 0.272654
H24   H     H_    0.506738 0.403899 0.351496 0.288682
H25   H     H_    0.057336 0.117004 0.943358 0.273777
H26   H     H_    0.059472 0.885318 0.450425 0.262991
H27   H     H_    0.562529 0.616515 0.938123 0.269759
H28   H     H_    0.451103 0.363581 0.210916 0.244666
C13   C     C_3   0.793576 0.468438 0.781254 0.499847
C14   C     C_3   0.791233 0.528268 0.269213 0.507480
C15   C     C_3   0.291811 0.970849 0.773060 0.509317
C16   C     C_3   0.291179 0.028577 0.273803 0.532164
H29   H     H_    0.840452 0.465671 0.714286 0.082651
H30   H     H_    0.834889 0.527904 0.191449 0.090449
H31   H     H_    0.336042 0.970689 0.696906 0.091312
H32   H     H_    0.337002 0.030873 0.203003 0.079890
C17   C     C_3   0.731840 0.464045 0.667927 -0.642197
C18   C     C_3   0.724845 0.533490 0.169983 -0.619804
C19   C     C_3   0.226380 0.966109 0.671340 -0.649682
C20   C     C_3   0.227857 0.029286 0.164480 -0.651259
H33   H     H_    0.726751 0.508338 0.596567 0.250969
H34   H     H_    0.721207 0.491370 0.090974 0.260977
H35   H     H_    0.224908 0.007893 0.591565 0.276038
H36   H     H_    0.229118 0.986293 0.088784 0.254375
H37   H     H_    0.743059 0.423546 0.589127 0.179439
H38   H     H_    0.728313 0.577388 0.095820 0.167662
H39   H     H_    0.229536 0.921720 0.599358 0.161490
H40   H     H_    0.230682 0.072883 0.089852 0.165609
Ba1   Ba    Ba6+2 0.999980 0.452130 0.155200 1.566471
Ba2   Ba    Ba6+2 0.999980 0.547870 0.655200 1.569149
Ba3   Ba    Ba6+2 0.499980 0.952130 0.155200 1.568035
Ba4   Ba    Ba6+2 0.499980 0.047870 0.655200 1.578061
C21   C     C_3   0.191924 0.537715 0.996109 0.309162
C22   C     C_3   0.192323 0.463435 0.502174 0.320784
C23   C     C_3   0.689451 0.039682 0.986849 0.319462
C24   C     C_3   0.691242 0.961267 0.485800 0.314290
H41   H     H_    0.174730 0.534369 0.118881 0.099067
H42   H     H_    0.175423 0.468989 0.624684 0.097297
H43   H     H_    0.672234 0.039392 0.109867 0.085335
H44   H     H_    0.674009 0.961189 0.608842 0.088196
H45   H     H_    0.152843 0.560852 0.919109 0.089786
H46   H     H_    0.153290 0.438420 0.428456 0.083634
H47   H     H_    0.649759 0.059721 0.906482 0.100309
H48   H     H_    0.651933 0.940502 0.405301 0.099863
C25   C     C_3   0.255157 0.579214 0.991847 -0.229538
C26   C     C_3   0.256062 0.422897 0.502581 -0.237025
C27   C     C_3   0.751031 0.083033 0.974615 -0.253977
C28   C     C_3   0.753789 0.919464 0.473933 -0.248963
H49   H     H_    0.244776 0.629027 0.030808 0.112544
H50   H     H_    0.247318 0.374865 0.555379 0.112651
H51   H     H_    0.737683 0.134072 0.996174 0.118243
H52   H     H_    0.741583 0.868042 0.494060 0.116439
H53   H     H_    0.273364 0.581541 0.869284 0.178240
H54   H     H_    0.272402 0.415863 0.379490 0.172834
H55   H     H_    0.771190 0.079668 0.853994 0.183729
H56   H     H_    0.774335 0.923817 0.353853 0.184720
O45   O     O_3   0.924190 0.533610 0.949240 -0.388107
O46   O     O_3   0.924190 0.466390 0.449240 -0.380075
O47   O     O_3   0.424190 0.033610 0.949240 -0.383276
O48   O     O_3   0.424190 0.966390 0.449240 -0.386060
P13   P     P_3+3 0.087776 0.710351 0.884249 0.429232
P14   P     P_3+3 0.087650 0.289738 0.384972 0.427470
P15   P     P_3+3 0.585782 0.212542 0.880464 0.472154
P16   P     P_3+3 0.587437 0.789606 0.383720 0.430054
C29   C     C_3   0.000084 0.208852 0.479829 0.384019
C30   C     C_3   0.000853 0.791433 0.979535 0.393819
C31   C     C_3   0.498997 0.707906 0.470007 0.399425
C32   C     C_3   0.483154 0.287770 0.872996 0.440694
H57   H     H_    0.016944 0.224579 0.600257 0.062772
H58   H     H_    0.017386 0.774831 0.099508 0.061318
H59   H     H_    0.514566 0.722448 0.592193 0.054972
H60   H     H_    0.474476 0.273474 0.997082 0.009893
H61   H     H_    0.935565 0.135797 0.578235 0.229824
H62   H     H_    0.938004 0.864852 0.080887 0.229486
H63   H     H_    0.432755 0.634195 0.559168 0.233836
H64   H     H_    0.479663 0.390945 0.920422 0.253496
H65   H     H_    0.111187 0.159242 0.086406 0.234920
H66   H     H_    0.112417 0.842606 0.594016 0.236231
H67   H     H_    0.618203 0.660991 0.072942 0.230031
H68   H     H_    0.539024 0.371666 0.170423 0.259068
C33   C     C_R   0.249513 0.310916 0.998082 -0.115300
C34   C     C_R   0.249372 0.689064 0.496322 -0.095250
C35   C     C_R   0.748959 0.810440 0.996125 -0.099514
C36   C     C_R   0.747486 0.190367 0.495933 -0.090680
C37   C     C_R   0.155668 0.352548 0.819285 0.277210
C38   C     C_R   0.155546 0.647408 0.318216 0.278441
C39   C     C_R   0.655419 0.852521 0.818138 0.277850
C40   C     C_R   0.653967 0.148455 0.317586 0.288128
C41   C     C_R   0.118579 0.344863 0.678240 -0.552322
C42   C     C_R   0.118397 0.655110 0.177313 -0.551145
C43   C     C_R   0.617864 0.844583 0.677712 -0.546384
C44   C     C_R   0.615876 0.157031 0.177353 -0.535658
C45   C     C_R   0.135738 0.297928 0.570238 0.224256
C46   C     C_R   0.135656 0.702192 0.069293 0.221918
C47   C     C_R   0.634753 0.797443 0.569754 0.218039
C48   C     C_R   0.630830 0.206391 0.071982 0.205134
C49   C     C_R   0.185838 0.253777 0.607986 -0.207724
C50   C     C_R   0.185904 0.746416 0.106578 -0.205074
C51   C     C_R   0.685305 0.753729 0.606160 -0.202743
C52   C     C_R   0.680096 0.251201 0.111882 -0.230345
C53   C     C_R   0.219527 0.255325 0.756244 -0.004218
C54   C     C_R   0.219543 0.744800 0.254677 0.004181
C55   C     C_R   0.718776 0.755002 0.754436 0.000646
C56   C     C_R   0.715414 0.248010 0.257963 0.012139
C57   C     C_R   0.208850 0.307807 0.858985 -0.039485
C58   C     C_R   0.208767 0.692223 0.357430 -0.038285
C59   C     C_R   0.708321 0.807501 0.857340 -0.034632
C60   C     C_R   0.706327 0.194065 0.357796 -0.023151
H69   H     H_    0.078182 0.377852 0.647927 0.176063
H70   H     H_    0.077919 0.622045 0.147136 0.176045
H71   H     H_    0.577444 0.877584 0.647709 0.175166
H72   H     H_    0.576620 0.122892 0.145484 0.172111
C61   C     C_R   0.799977 0.703441 0.940282 -0.081351
C62   C     C_R   0.798304 0.297682 0.442932 -0.060237
C63   C     C_R   0.300805 0.204041 0.942570 -0.088546
C64   C     C_R   0.300608 0.796144 0.441090 -0.076094
C65   C     C_R   0.795533 0.760516 0.035271 0.046702
C66   C     C_R   0.793674 0.240481 0.537141 0.051283
C67   C     C_R   0.296268 0.261083 0.037755 0.048496
C68   C     C_R   0.296090 0.738971 0.535818 0.046107
C69   C     C_R   0.848552 0.653583 0.985500 0.250699
C70   C     C_R   0.847407 0.347151 0.487611 0.245165
C71   C     C_R   0.348999 0.153851 0.987748 0.237550
C72   C     C_R   0.348987 0.846246 0.486366 0.253690
C73   C     C_R   0.888926 0.663883 0.121624 -0.498319
C74   C     C_R   0.886295 0.337745 0.626319 -0.510153
C75   C     C_R   0.388714 0.163809 0.125789 -0.474461
C76   C     C_R   0.389155 0.836104 0.623046 -0.496605
C77   C     C_R   0.879642 0.717266 0.220184 0.293811
C78   C     C_R   0.876376 0.284586 0.725176 0.297903
C79   C     C_R   0.379721 0.217453 0.224819 0.260223
C80   C     C_R   0.379989 0.782412 0.721370 0.288905
C81   C     C_R   0.834414 0.765694 0.175411 -0.267548
C82   C     C_R   0.831876 0.235534 0.678567 -0.267659
C83   C     C_R   0.334882 0.266140 0.178781 -0.275787
C84   C     C_R   0.334901 0.733769 0.676063 -0.269314
C85   C     C_R   0.754996 0.700237 0.807319 0.243733
C86   C     C_R   0.751912 0.302377 0.313229 0.241452
C87   C     C_R   0.255609 0.200611 0.810152 0.249431
C88   C     C_R   0.255480 0.799629 0.308739 0.237334
H73   H     H_    0.195576 0.215689 0.524626 0.205471
H74   H     H_    0.195857 0.784642 0.023194 0.211282
H75   H     H_    0.695855 0.716225 0.521395 0.210581
H76   H     H_    0.688470 0.290576 0.031099 0.201278
H77   H     H_    0.828763 0.807136 0.252191 0.157834
H78   H     H_    0.826215 0.193865 0.754795 0.157936
H79   H     H_    0.328906 0.307439 0.255820 0.149431
H80   H     H_    0.329205 0.692202 0.752628 0.158426
H81   H     H_    0.925232 0.627593 0.157734 0.172553
H82   H     H_    0.922611 0.374104 0.662706 0.172584
H83   H     H_    0.424287 0.127004 0.162727 0.166998
H84   H     H_    0.425231 0.872667 0.659534 0.172365
H85   H     H_    0.245091 0.351722 0.076956 0.172220
H86   H     H_    0.245001 0.648152 0.575083 0.168324
H87   H     H_    0.744762 0.851267 0.075024 0.166192
H88   H     H_    0.743854 0.148908 0.573169 0.162915
C89   C     C_2   0.664484 0.447932 0.737429 1.193143
O49   O     O_2   0.633277 0.400708 0.688497 -0.592538
O50   O     O_R   0.637848 0.485687 0.856480 -0.747249
H89   H     H_    0.592333 0.469665 0.889622 0.350095
C90   C     C_2   0.658577 0.538036 0.253880 1.198044
O51   O     O_2   0.651007 0.574972 0.364347 -0.620307
O52   O     O_R   0.603343 0.503449 0.193641 -0.772799
H90   H     H_    0.561181 0.511718 0.254375 0.326473
C91   C     C_2   0.159307 0.963561 0.752055 1.222814
O53   O     O_2   0.149992 0.927840 0.864244 -0.601919
O54   O     O_R   0.105384 0.998526 0.686937 -0.740297
H91   H     H_    0.062665 0.992230 0.747073 0.332428
C92   C     C_2   0.158930 0.030139 0.234857 1.205257
O55   O     O_2   0.150646 0.042500 0.373847 -0.587537
O56   O     O_R   0.103644 0.015117 0.136609 -0.775256
H92   H     H_    0.060014 0.015078 0.194991 0.329245
I1    I     I_    0.332934 0.541226 0.143960 -0.296657
I2    I     I_    0.335082 0.469031 0.636405 -0.322299
I3    I     I_    0.827778 0.056304 0.143379 -0.302734
I4    I     I_    0.829261 0.947398 0.644954 -0.300138
I5    I     I_    0.692395 0.619649 0.770813 -0.376657
I6    I     I_    0.684701 0.380255 0.304704 -0.409210
I7    I     I_    0.190246 0.121609 0.786084 -0.393792
I8    I     I_    0.189326 0.877851 0.286764 -0.414724
I9    I     I_    0.784327 0.386265 0.925400 -0.329345
I10   I     I_    0.793878 0.611324 0.408326 -0.289727
I11   I     I_    0.291921 0.886912 0.910810 -0.302181
I12   I     I_    0.284037 0.113261 0.408308 -0.313776

loop_
_geom_bond_atom_site_label_1
_geom_bond_atom_site_label_2
_geom_bond_distance
_ccdc_geom_bond_type
C15   H31   1.108499 S    
C12   H28   1.110182 S    
C27   I3    2.138760 S    
O23   P16   1.747511 S    
C53   C57   1.411722 A    
C11   H23   1.108725 S    
C28   I4    2.139006 S    
C71   C75   1.408726 A    
O13   P14   1.547206 D    
C10   H66   1.110208 S    
C16   H32   1.109189 S    
C25   H49   1.103641 S    
O44   C8    1.406166 S    
C87   I7    2.095206 S    
C8    H20   1.112911 S    
C63   C87   1.420938 A    
P2    Ba2   3.405666 S    
O52   H90   1.014010 S    
P8    Ba4   3.410709 S    
P2    O2    1.550679 D    
O24   P15   1.752141 S    
C14   I10   2.082967 S    
P1    O17   1.750661 S    
C1    H61   1.110550 S    
Ba3   O48   2.965898 S    
P6    Ba2   3.410709 S    
C90   O51   1.220995 D    
C7    H15   1.104773 S    
C43   H71   1.082677 S    
P12   O32   1.741223 S    
C18   H38   1.106583 S    
P1    O1    1.549900 D    
C56   C60   1.413647 A    
C18   C90   1.522969 S    
C17   H37   1.098570 S    
C9    H65   1.110495 S    
C74   H82   1.082279 S    
C6    H18   1.111517 S    
O9    P14   1.743882 S    
P6    O38   1.771754 S    
P3    O3    1.549900 D    
O12   Ba4   2.840638 S    
C16   I12   2.096881 S    
C91   O53   1.221178 D    
P4    O20   1.751498 S    
C4    H12   1.109916 S    
O25   Ba1   2.827046 S    
O9    Ba1   2.840262 S    
P6    O45   1.575088 S    
Ba3   O47   2.833237 S    
P8    O47   1.575088 S    
O54   H91   1.014107 S    
O20   C24   1.397199 S    
C17   C89   1.519830 S    
P9    O29   1.753262 S    
C24   H48   1.110709 S    
C25   I1    2.139696 S    
Ba1   O45   2.833237 S    
C92   O55   1.220563 D    
C46   C50   1.386056 A    
P4    C40   1.861934 S    
C5    H17   1.111556 S    
P4    O4    1.550679 D    
O30   Ba2   2.838464 S    
C5    H13   1.105186 S    
O37   C14   1.400030 S    
C22   C26   1.525543 S    
C17   H33   1.100180 S    
C10   H26   1.109461 S    
C21   H41   1.106261 S    
H4    C32   1.110158 S    
P5    O37   1.770301 S    
C9    H25   1.109654 S    
C9    H21   1.109072 S    
C11   H67   1.110333 S    
C12   H24   1.110605 S    
C12   H68   1.109141 S    
C2    H10   1.110887 S    
O42   C6    1.396775 S    
C44   C48   1.392737 A    
C8    H16   1.108339 S    
O41   C5    1.397840 S    
C72   C76   1.405146 A    
C37   C41   1.396297 A    
P4    O8    1.568581 S    
O14   P13   1.547229 D    
C3    H11   1.110880 S    
C8    C12   1.520433 S    
C51   C55   1.405740 A    
P11   O35   1.551004 D    
C28   H52   1.104540 S    
C24   H44   1.106623 S    
C35   H87   1.081842 S    
C23   H47   1.110576 S    
C27   H55   1.110865 S    
C26   H50   1.104463 S    
C42   H70   1.082699 S    
C16   C20   1.545824 S    
P5    O25   1.549729 D    
C26   I2    2.139459 S    
C41   H69   1.082732 S    
C89   O49   1.223412 D    
C77   C81   1.395011 A    
O5    Ba2   2.833132 S    
O28   Ba4   2.831234 S    
P6    O26   1.548951 D    
C20   C92   1.515703 S    
C53   C87   1.411221 A    
P11   O43   1.748764 S    
C62   C70   1.458084 A    
O7    Ba4   2.833132 S    
C85   I5    2.098763 S    
O11   P16   1.741466 S    
O18   C22   1.394906 S    
P14   C45   1.823695 S    
C43   C47   1.385618 A    
C2    C30   1.520785 S    
O23   C31   1.406030 S    
C61   C69   1.460458 A    
C4    H64   1.109194 S    
C90   O52   1.397613 S    
C88   I8    2.095396 S    
C24   C28   1.526244 S    
O21   C29   1.406592 S    
P5    O46   1.572750 S    
P10   O30   1.756331 S    
P6    C69   1.905574 S    
O3    Ba3   2.827321 S    
C4    H8    1.110619 S    
C78   C82   1.396728 A    
P9    O33   1.550785 D    
C62   C86   1.419937 A    
C74   C78   1.398389 A    
C33   H85   1.081808 S    
C34   C58   1.410965 A    
C45   C49   1.386329 A    
C67   C83   1.406767 A    
Ba2   O46   2.830795 S    
C33   C57   1.412875 A    
C68   C84   1.403691 A    
C35   C59   1.410300 A    
O10   Ba2   2.840638 S    
P3    O19   1.752666 S    
C14   H30   1.107572 S    
C31   H59   1.113249 S    
C69   C73   1.403822 A    
C20   H36   1.097094 S    
C23   C27   1.526116 S    
Ba1   O46   2.965898 S    
C92   O56   1.397869 S    
C3    H63   1.110460 S    
C22   H42   1.106238 S    
C61   C85   1.421668 A    
C34   C68   1.423270 A    
C44   H72   1.082372 S    
C75   C79   1.405933 A    
C26   H54   1.110878 S    
O8    Ba3   2.830688 S    
C73   C77   1.400126 A    
C50   C54   1.406108 A    
C40   C44   1.403191 A    
C91   O54   1.398309 S    
P8    C71   1.918003 S    
C32   H60   1.109670 S    
O50   H89   1.013858 S    
P1    C37   1.846821 S    
P12   O44   1.745367 S    
C64   C72   1.459028 A    
P3    Ba3   3.407910 S    
O15   P16   1.546528 D    
C56   C86   1.411274 A    
P1    O5    1.570899 S    
P7    O39   1.768745 S    
P1    Ba1   3.407910 S    
C40   C60   1.440352 A    
P16   C47   1.820864 S    
C49   C53   1.407686 A    
C19   H39   1.105068 S    
C42   C46   1.385157 A    
C83   H79   1.083850 S    
O39   C16   1.403461 S    
C86   I6    2.098458 S    
C64   C68   1.432297 A    
C7    C11   1.518783 S    
C7    H19   1.111195 S    
Ba4   O48   2.830795 S    
C37   C57   1.442317 A    
C89   O50   1.393681 S    
O22   C30   1.406213 S    
C10   H22   1.108886 S    
P13   C46   1.820138 S    
P10   O34   1.551402 D    
C28   H56   1.110883 S    
C54   C88   1.410092 A    
C36   C60   1.412459 A    
C52   H76   1.078873 S    
C64   C88   1.419855 A    
O29   Ba1   2.838832 S    
O56   H92   1.014045 S    
P2    O6    1.568581 S    
C23   H43   1.106337 S    
C80   C84   1.395157 A    
C15   C19   1.547337 S    
P7    Ba3   3.408434 S    
C4    C32   1.519689 S    
H1    C29   1.111846 S    
C18   H34   1.099627 S    
P3    C39   1.851249 S    
P8    O28   1.548951 D    
O4    Ba4   2.823167 S    
C38   C42   1.396110 A    
P7    O48   1.572750 S    
C82   H78   1.083889 S    
P12   C79   1.866532 S    
O31   Ba3   2.838832 S    
P10   C77   1.852074 S    
C81   H77   1.084044 S    
C2    H6    1.110021 S    
C19   H35   1.096286 S    
C13   C17   1.543137 S    
C34   H86   1.081805 S    
Ba2   O45   2.964905 S    
O38   C13   1.404036 S    
C76   C80   1.402085 A    
C21   H45   1.111417 S    
C2    H62   1.110438 S    
C14   C18   1.553173 S    
C22   H46   1.111636 S    
C33   C67   1.425545 A    
C11   H27   1.109398 S    
H3    C31   1.111813 S    
Ba3   Ba4   4.675308 S    
C38   C58   1.440344 A    
C50   H74   1.081386 S    
P11   C80   1.854190 S    
C6    C10   1.518860 S    
C19   C91   1.521917 S    
C49   H73   1.079654 S    
C39   C43   1.397235 A    
C76   H84   1.082294 S    
C73   H81   1.082402 S    
P5    C70   1.902887 S    
P12   O36   1.549147 D    
O16   P15   1.545070 D    
P8    O40   1.767710 S    
P9    C78   1.851305 S    
C52   C56   1.407950 A    
C27   H51   1.105616 S    
C1    H9    1.110947 S    
C20   H40   1.102825 S    
O26   Ba2   2.831234 S    
P10   O42   1.748137 S    
O40   C15   1.401840 S    
C51   H75   1.082205 S    
C5    C9    1.515630 S    
O22   P13   1.747814 S    
O6    Ba1   2.830688 S    
C70   C74   1.403167 A    
Ba1   Ba2   4.675308 S    
P2    C38   1.847797 S    
O43   C7    1.397695 S    
C54   C58   1.412001 A    
C13   I9    2.102295 S    
C63   C67   1.433519 A    
C66   C82   1.405252 A    
C41   C45   1.384321 A    
C3    H7    1.110180 S    
H2    C30   1.111526 S    
O10   P13   1.742852 S    
C65   C81   1.403518 A    
P2    O18   1.748237 S    
C75   H83   1.082117 S    
C63   C71   1.460284 A    
O11   Ba3   2.840262 S    
C1    H5    1.110091 S    
C35   C65   1.423601 A    
O12   P15   1.741009 S    
C1    C29   1.520616 S    
C29   H57   1.113326 S    
C55   C59   1.412107 A    
P5    Ba1   3.408434 S    
O21   P14   1.748013 S    
P3    O7    1.570899 S    
C84   H80   1.084005 S    
O32   Ba4   2.838464 S    
C79   C83   1.396658 A    
C36   C66   1.422794 A    
C48   C52   1.384970 A    
P7    O27   1.549729 D    
O27   Ba3   2.827046 S    
P11   O31   1.753701 S    
C36   H88   1.081462 S    
Ba4   O47   2.964905 S    
C55   C85   1.410792 A    
C62   C66   1.430497 A    
O1    Ba1   2.827321 S    
O24   C32   1.405206 S    
C30   H58   1.113493 S    
C61   C65   1.433014 A    
P4    Ba4   3.405666 S    
O17   C21   1.395868 S    
P9    O41   1.747453 S    
C25   H53   1.110492 S    
O19   C23   1.398587 S    
C21   C25   1.526490 S    
P7    C72   1.908498 S    
C15   I11   2.090458 S    
C39   C59   1.441070 A    
C13   H29   1.109913 S    
C47   C51   1.384540 A    
C3    C31   1.520723 S    
O2    Ba2   2.823167 S    
C6    H14   1.104668 S    
P15   C48   1.836478 S    
