data_mof_unit_21241.cif
_audit_creation_date              2012-12-11T14:36:03-0500
_audit_creation_method            fapswitch 2.2
_symmetry_space_group_name_H-M    P1
_symmetry_Int_Tables_number       1
_space_group_crystal_system       triclinic
_cell_length_a                    13.474457
_cell_length_b                    13.485986
_cell_length_c                    27.51059
_cell_angle_alpha                 90.824771
_cell_angle_beta                  90.14875
_cell_angle_gamma                 60.066058
_cell_volume                      4331.73751539

loop_
_atom_site_label
_atom_site_type_symbol
_atom_type_description
_atom_site_fract_x
_atom_site_fract_y
_atom_site_fract_z
_atom_type_partial_charge
C1    C     C_R   0.620367 0.101581 0.570120 0.547772
C2    C     C_1   0.631576 0.731764 0.616260 -0.006209
C3    C     C_3   0.652473 0.581896 0.769191 -0.070787
C4    C     C_3   0.679616 0.653374 0.805516 0.029489
C5    C     C_3   0.569692 0.693824 0.743893 0.136743
C6    C     C_3   0.665176 0.681821 0.710420 0.073059
C7    C     C_3   0.593964 0.765643 0.780695 -0.096040
C8    C     C_3   0.692253 0.752916 0.746975 -0.121291
C9    C     C_1   0.688324 0.632965 0.857895 -0.055529
C10   C     C_1   0.650485 0.703958 0.658175 -0.032091
C11   C     C_3   0.080918 0.145801 0.737197 -0.103386
C12   C     C_R   0.599702 0.779543 0.568754 0.546693
C13   C     C_3   0.169470 0.068142 0.774750 0.134223
C14   C     C_1   0.095950 0.201696 0.901728 -0.011759
C15   C     C_1   0.229113 0.138593 0.617446 -0.012287
C16   C     C_3   0.056082 0.251062 0.769744 -0.125337
C17   C     C_3   0.144933 0.170750 0.806954 0.077528
C18   C     C_3   0.152307 0.261172 0.743417 -0.113701
C19   C     C_3   0.177223 0.155955 0.711821 0.031482
C20   C     C_3   0.240680 0.180922 0.781186 -0.121346
C21   C     C_3   0.266480 0.075275 0.748805 -0.077965
C22   C     C_1   0.122902 0.183127 0.859438 -0.038910
C23   C     C_R   0.277695 0.121948 0.569676 0.546475
C24   C     C_1   0.200572 0.147936 0.659500 -0.058325
C25   C     C_3   0.604202 0.283558 0.741101 -0.124419
C26   C     C_3   0.551408 0.238533 0.779164 -0.100274
C27   C     C_1   0.691785 0.207965 0.902856 -0.012876
C28   C     C_1   0.636246 0.134516 0.617988 -0.008304
C29   C     C_3   0.716796 0.232451 0.770910 -0.116564
C30   C     C_3   0.664137 0.186748 0.807996 0.031751
C31   C     C_3   0.765403 0.118069 0.741742 -0.116842
C32   C     C_3   0.653272 0.169445 0.712554 0.072782
C33   C     C_3   0.713371 0.072320 0.779658 -0.071953
C34   C     C_R   0.621777 0.098657 0.430834 0.545401
C35   C     C_3   0.602190 0.125309 0.750176 0.132721
C36   C     C_1   0.675324 0.197132 0.860542 -0.057806
C37   C     C_1   0.645429 0.154046 0.660122 -0.036656
C38   C     C_R   0.735516 0.700317 0.359239 -0.139102
C39   C     C_R   0.747539 0.682879 0.308825 0.017662
C40   C     C_R   0.763846 0.660435 0.207156 0.005501
C41   C     C_R   0.857035 0.648701 0.234547 -0.126299
C42   C     C_R   0.848461 0.661214 0.285089 -0.134213
C43   C     C_R   0.774626 0.638772 0.157252 -0.167289
C44   C     C_R   0.682624 0.644883 0.130734 0.033224
C45   C     C_R   0.601619 0.776060 0.430191 0.545501
C46   C     C_R   0.547114 0.717968 0.354836 -0.116549
C47   C     C_R   0.554241 0.709759 0.304746 0.017540
C48   C     C_R   0.654330 0.692672 0.281367 0.066111
C49   C     C_R   0.459786 0.725068 0.277805 -0.129129
C50   C     C_R   0.463304 0.725264 0.227477 -0.134609
C51   C     C_R   0.564208 0.703272 0.203243 0.020812
C52   C     C_R   0.660665 0.685956 0.230535 0.043413
C53   C     C_R   0.573492 0.691100 0.152511 0.091944
C54   C     C_R   0.633158 0.722534 0.381952 -0.002776
C55   C     C_R   0.211404 0.057936 0.358221 -0.134946
C56   C     C_R   0.277582 0.120811 0.431102 0.546616
C57   C     C_R   0.184462 0.071989 0.308712 0.016171
C58   C     C_R   0.145460 0.096413 0.208003 0.014361
C59   C     C_R   0.160794 0.997797 0.231230 -0.129521
C60   C     C_R   0.180845 0.985398 0.281255 -0.126707
C61   C     C_R   0.121368 0.111981 0.158314 -0.134928
C62   C     C_R   0.102625 0.213103 0.136151 -0.003374
C63   C     C_R   0.187325 0.249044 0.362385 -0.127911
C64   C     C_R   0.165928 0.262073 0.312957 0.012971
C65   C     C_R   0.166062 0.172693 0.285733 0.063326
C66   C     C_R   0.150606 0.360738 0.290013 -0.127956
C67   C     C_3   0.750474 0.569918 0.735529 -0.123825
C68   C     C_R   0.137038 0.370308 0.239926 -0.126276
C69   C     C_R   0.135811 0.282595 0.212562 0.013246
C70   C     C_R   0.149433 0.183649 0.235392 0.063400
C71   C     C_R   0.116037 0.294881 0.162977 -0.129023
C72   C     C_R   0.217863 0.144570 0.384535 -0.004608
C73   C     C_R   0.569166 0.237117 0.363104 -0.119243
C74   C     C_R   0.572454 0.256745 0.313229 0.046018
C75   C     C_R   0.583965 0.289443 0.212906 -0.010691
C76   C     C_R   0.510703 0.381742 0.243146 -0.109422
C77   C     C_R   0.502954 0.366196 0.293158 0.108948
C78   C     C_3   0.778086 0.640512 0.772771 -0.122208
C79   C     C_R   0.597589 0.306194 0.163864 -0.134864
C80   C     C_R   0.676519 0.213888 0.134838 -0.001955
C81   C     C_R   0.716232 0.038078 0.351353 -0.127047
C82   C     C_R   0.717914 0.054268 0.301894 0.010349
C83   C     C_R   0.646285 0.163643 0.282547 0.034542
C84   C     C_R   0.788653 0.961453 0.271447 -0.123627
C85   C     C_R   0.790057 0.976674 0.221730 -0.125173
C86   C     C_R   0.722661 0.085488 0.202211 0.019565
C87   C     C_R   0.649862 0.179445 0.232493 0.053084
C88   C     C_R   0.732791 0.102996 0.153360 -0.127362
C89   C     C_1   0.697195 0.607462 0.900107 -0.010912
C90   C     C_R   0.639907 0.127776 0.381951 -0.013339
C91   C     C_R   0.049187 0.236187 0.949757 0.545623
C92   C     C_R   0.711573 0.562876 0.948173 0.546218
C93   C     C_R   0.722185 0.225420 0.950896 0.543761
C94   C     C_R   0.047677 0.245632 0.088619 0.548334
C95   C     C_R   0.706823 0.577412 0.085656 0.570166
C96   C     C_R   0.718110 0.234301 0.089242 0.546181
Cr1   Cr    Cr6+3 0.417550 0.169090 0.500530 1.026173
Cr2   Cr    Cr6+3 0.669180 0.913420 0.499920 1.024049
Cr3   Cr    Cr6+3 0.413260 0.917540 0.499520 1.026992
Cr4   Cr    Cr6+3 0.909170 0.177380 0.020380 1.024874
Cr5   Cr    Cr6+3 0.912710 0.429210 0.018220 1.019162
Cr6   Cr    Cr6+3 0.657170 0.432570 0.019030 1.035340
H1    H     H_    0.864858 0.618537 0.785485 0.113682
H2    H     H_    0.305692 0.195768 0.799543 0.100344
H3    H     H_    0.144787 0.341721 0.729798 0.113106
H4    H     H_    0.969780 0.323791 0.778863 0.103135
H5    H     H_    0.560662 0.369969 0.724891 0.119299
H6    H     H_    0.755927 0.985643 0.795622 0.106083
H7    H     H_    0.802557 0.702710 0.380202 0.115365
H8    H     H_    0.920771 0.653351 0.305581 0.095901
H9    H     H_    0.387740 0.738804 0.208077 0.099611
H10   H     H_    0.382285 0.739025 0.295731 0.095497
H11   H     H_    0.468211 0.733317 0.372017 0.136936
H12   H     H_    0.111450 0.048498 0.137590 0.121811
H13   H     H_    0.234089 0.977462 0.375325 0.121197
H14   H     H_    0.709779 0.822393 0.737330 0.140139
H15   H     H_    0.193334 0.908321 0.298479 0.097098
H16   H     H_    0.102042 0.373079 0.146178 0.128897
H17   H     H_    0.126355 0.446711 0.222653 0.096236
H18   H     H_    0.151364 0.429418 0.310663 0.096799
H19   H     H_    0.189981 0.317263 0.382655 0.130858
H20   H     H_    0.510225 0.305289 0.387234 0.150641
H21   H     H_    0.459969 0.466145 0.227852 0.100367
H22   H     H_    0.792260 0.031344 0.130691 0.125925
H23   H     H_    0.528573 0.845389 0.799184 0.111004
H24   H     H_    0.846322 0.904141 0.198772 0.104717
H25   H     H_    0.843282 0.877241 0.286161 0.107724
H26   H     H_    0.633952 0.512940 0.778606 0.108253
H27   H     H_    0.016173 0.130092 0.719131 0.098592
H28   H     H_    0.352462 0.001882 0.739958 0.108824
O1    O     O_R   0.301710 0.195650 0.554160 -0.507279
O2    O     O_R   0.658900 0.818120 0.449760 -0.502721
O3    O     O_R   0.503220 0.801620 0.445520 -0.522706
O4    O     O_R   0.319370 0.022040 0.450020 -0.502241
O5    O     O_3   0.499990 0.000010 0.499990 -0.245726
O6    O     O_R   0.818720 0.150820 0.967160 -0.507652
O7    O     O_R   0.006410 0.181720 0.970200 -0.492517
O8    O     O_R   0.027890 0.334070 0.964920 -0.507939
O9    O     O_R   0.809600 0.521790 0.967960 -0.497318
O10   O     O_R   0.635520 0.542770 0.964420 -0.503359
O11   O     O_R   0.665950 0.325030 0.970100 -0.495513
O12   O     O_R   0.522390 0.158990 0.550460 -0.494091
O13   O     O_R   0.816620 0.158530 0.074540 -0.519532
O14   O     O_R   0.004460 0.188870 0.069750 -0.499124
O15   O     O_R   0.025800 0.341780 0.072300 -0.522787
O16   O     O_R   0.807650 0.528950 0.067500 -0.515693
O17   O     O_R   0.633420 0.550490 0.071810 -0.479355
O18   O     O_R   0.664000 0.332180 0.069640 -0.503842
O19   O     O_3   0.826350 0.346390 0.019210 -0.248541
O20   O     O_R   0.694390 0.003530 0.554040 -0.505089
O21   O     O_R   0.657700 0.819660 0.549320 -0.495515
O22   O     O_R   0.501930 0.803280 0.552920 -0.502395
O23   O     O_R   0.318170 0.023580 0.549580 -0.493904
O24   O     O_R   0.303010 0.193990 0.446760 -0.521177
O25   O     O_R   0.523600 0.157450 0.450900 -0.500405
O26   O     O_R   0.695690 0.001860 0.446640 -0.521114
H29   H     H_    0.463535 0.285733 0.794695 0.102122
N1    N     N_3   0.540160 0.065634 0.738021 -0.647173
H30   H     H_    0.515526 0.045498 0.770718 0.214096
H31   H     H_    0.465077 0.123598 0.720271 0.233109
H32   H     H_    0.853047 0.069649 0.726053 0.101091
H33   H     H_    0.764897 0.277170 0.780168 0.105832
H34   H     H_    0.857505 0.607406 0.140026 0.125444
H35   H     H_    0.814729 0.490038 0.716750 0.104505
H36   H     H_    0.936484 0.629647 0.216866 0.095524
N2    N     N_3   0.475175 0.718243 0.122978 -0.607245
H37   H     H_    0.412260 0.803174 0.130027 0.223952
H38   H     H_    0.443387 0.664217 0.132009 0.225617
H39   H     H_    0.157404 0.930346 0.210730 0.098669
H40   H     H_    0.553497 0.392010 0.149416 0.126937
N3    N     N_3   0.426342 0.461374 0.323638 -0.641661
H41   H     H_    0.359106 0.448081 0.333634 0.217048
H42   H     H_    0.389648 0.537404 0.304096 0.219708
H43   H     H_    0.769712 0.952749 0.365422 0.133546
N4    N     N_3   0.456057 0.721494 0.727421 -0.627154
H44   H     H_    0.407524 0.729300 0.758297 0.234370
H45   H     H_    0.418546 0.802249 0.711707 0.230057
N5    N     N_3   0.179809 0.962349 0.792630 -0.633275
H46   H     H_    0.193981 0.908793 0.762483 0.221564
H47   H     H_    0.100287 0.982314 0.807188 0.231052

loop_
_geom_bond_atom_site_label_1
_geom_bond_atom_site_label_2
_ccdc_geom_bond_type
C2    C10   T    
C66   C68   A    
N3    H41   S    
C31   H32   S    
C41   C42   A    
C12   O22   A    
C83   C87   A    
C74   C83   A    
C88   H22   S    
C93   O6    A    
C2    C12   S    
N5    H46   S    
Cr5   O9    S    
C7    C8    S    
N4    H45   S    
C34   O25   A    
N3    H42   S    
C11   C19   S    
C20   C21   S    
C79   H40   S    
C19   C21   S    
C73   C90   A    
C68   H17   S    
C5    C6    S    
C81   H43   S    
C86   C88   A    
C13   N5    S    
C17   C20   S    
Cr3   O3    S    
C26   H29   S    
C96   O13   A    
C18   C19   S    
C73   C74   A    
C69   C71   A    
C23   O23   A    
C1    O12   A    
Cr6   O18   S    
C91   O7    A    
C67   H35   S    
N1    H31   S    
C40   C43   A    
C47   C48   A    
C16   C17   S    
C56   C72   S    
C74   C77   A    
C41   H36   S    
C1    C28   S    
C31   C33   S    
Cr6   O11   S    
C80   C96   S    
C58   C61   A    
C55   C72   A    
C71   H16   S    
C16   H4    S    
C94   O15   A    
C15   C23   S    
C59   C60   A    
C30   C33   S    
C66   H18   S    
C8    C78   S    
C5    N4    S    
C12   O21   A    
C85   H24   S    
C61   C62   A    
C67   C78   S    
C4    C7    S    
C30   C36   S    
C11   H27   S    
C63   H19   S    
C81   C82   A    
C39   C42   A    
Cr2   O21   S    
C25   C29   S    
C38   C39   A    
C96   O18   A    
Cr2   O26   S    
Cr5   O16   S    
C23   O1    A    
C51   C52   A    
C32   C35   S    
C60   H15   S    
N2    H38   S    
C95   O17   A    
C84   C85   A    
Cr1   O1    S    
C56   O24   A    
Cr4   O14   S    
C9    C89   T    
C5    C7    S    
C3    H26   S    
C58   C70   A    
C57   C60   A    
C6    C8    S    
C58   C59   A    
C85   C86   A    
Cr2   O5    S    
C7    H23   S    
C63   C64   A    
Cr3   O4    S    
Cr1   O12   S    
C51   C53   A    
C64   C66   A    
C65   C70   A    
C75   C76   A    
C34   C90   S    
C4    C78   S    
C29   C30   S    
Cr6   O17   S    
C91   O8    A    
C11   C16   S    
C26   C35   S    
N5    H47   S    
N4    H44   S    
C38   C54   A    
C77   N3    S    
Cr5   O15   S    
C46   C54   A    
C50   C51   A    
C44   C53   A    
Cr3   O5    S    
C1    O20   A    
C16   C18   S    
Cr6   O10   S    
C32   C37   S    
C76   C77   A    
C89   C92   S    
C49   H10   S    
C33   H6    S    
C81   C90   A    
C75   C87   A    
C40   C41   A    
C84   H25   S    
C45   C54   S    
C73   H20   S    
C82   C84   A    
C55   C57   A    
C43   C44   A    
N1    H30   S    
C27   C36   T    
C49   C50   A    
C14   C91   S    
C27   C93   S    
Cr1   O5    S    
C3    C4    S    
C92   O10   A    
C93   O11   A    
C25   H5    S    
Cr2   O20   S    
C46   C47   A    
C6    C67   S    
C46   H11   S    
C78   H1    S    
C86   C87   A    
C76   H21   S    
C29   H33   S    
C68   C69   A    
C31   C32   S    
C3    C67   S    
C38   H7    S    
C3    C5    S    
Cr4   O13   S    
Cr1   O24   S    
C6    C10   S    
C56   O4    A    
Cr5   O8    S    
C26   C30   S    
C20   H2    S    
C34   O26   A    
Cr4   O19   S    
C47   C49   A    
Cr3   O22   S    
C45   O3    A    
C17   C22   S    
C13   C17   S    
C94   O14   A    
C64   C65   A    
C14   C22   T    
C62   C94   S    
C19   C24   S    
C25   C26   S    
C35   N1    S    
C80   C88   A    
C44   C95   S    
C40   C52   A    
C13   C21   S    
C15   C24   T    
C11   C13   S    
N2    H37   S    
C55   H13   S    
C28   C37   T    
C25   C32   S    
Cr3   O23   S    
Cr5   O19   S    
C50   H9    S    
C33   C35   S    
C62   C71   A    
C18   C20   S    
Cr1   O25   S    
C42   H8    S    
C69   C70   A    
C21   H28   S    
C18   H3    S    
Cr4   O7    S    
C8    H14   S    
Cr6   O19   S    
C79   C80   A    
C53   N2    S    
C48   C52   A    
C63   C72   A    
C45   O2    A    
C29   C31   S    
C82   C83   A    
Cr2   O2    S    
C61   H12   S    
C95   O16   A    
C4    C9    S    
C59   H39   S    
C92   O9    A    
C75   C79   A    
Cr4   O6    S    
C39   C48   A    
C57   C65   A    
C43   H34   S    
