data_mof_unit_18454.cif
_audit_creation_date              2012-12-11T14:36:24-0500
_audit_creation_method            fapswitch 2.2
_symmetry_space_group_name_H-M    P1
_symmetry_Int_Tables_number       1
_space_group_crystal_system       triclinic
_cell_length_a                    13.515362
_cell_length_b                    13.451688
_cell_length_c                    27.482933
_cell_angle_alpha                 90.031755
_cell_angle_beta                  89.578311
_cell_angle_gamma                 60.000326
_cell_volume                      4326.95772708

loop_
_atom_site_label
_atom_site_type_symbol
_atom_type_description
_atom_site_fract_x
_atom_site_fract_y
_atom_site_fract_z
_atom_type_partial_charge
C1    C     C_R   0.619907 0.101191 0.570209 0.558826
C2    C     C_1   0.654500 0.686631 0.655271 0.003169
C3    C     C_2   0.986658 0.573286 0.213347 0.289156
C4    C     C_2   0.354706 0.761469 0.303304 0.308586
C5    C     C_2   0.136759 0.021576 0.400310 0.346561
C6    C     C_2   0.688535 0.844259 0.727029 0.317405
C7    C     C_2   0.394977 0.480746 0.217979 0.211077
C8    C     C_2   0.792523 0.993841 0.117988 0.283417
C9    C     C_2   0.358195 0.093793 0.744748 0.247428
C10   C     C_3   0.082922 0.130449 0.733262 0.242464
C11   C     C_R   0.600091 0.777636 0.568176 0.559391
C12   C     C_3   0.168523 0.092742 0.775768 -0.065871
C13   C     C_1   0.034202 0.240839 0.894270 0.012227
C14   C     C_1   0.218913 0.144388 0.614935 0.064996
C15   C     C_3   0.004417 0.247584 0.758177 -0.107745
C16   C     C_3   0.090904 0.210218 0.800087 -0.002639
C17   C     C_3   0.070214 0.298996 0.731438 -0.135862
C18   C     C_3   0.146855 0.181854 0.706865 0.058803
C19   C     C_1   0.634252 0.721549 0.614206 0.042444
C20   C     C_3   0.155431 0.262799 0.774262 -0.114511
C21   C     C_3   0.231436 0.146159 0.749013 0.014645
C22   C     C_1   0.060382 0.225506 0.851820 -0.013090
C23   C     C_R   0.275935 0.122685 0.569009 0.565569
C24   C     C_1   0.181298 0.162615 0.655707 0.063702
C25   C     C_3   0.686637 0.266373 0.730212 -0.147911
C26   C     C_3   0.592116 0.301243 0.769367 -0.008746
C27   C     C_1   0.720857 0.231738 0.896453 0.045954
C28   C     C_1   0.636136 0.134801 0.617660 0.043780
C29   C     C_3   0.773617 0.173865 0.765285 -0.134940
C30   C     C_3   0.678691 0.550438 0.766808 -0.185603
C31   C     C_3   0.678590 0.210195 0.803843 0.060176
C32   C     C_3   0.744192 0.084420 0.745089 -0.034701
C33   C     C_3   0.657039 0.177122 0.710770 0.004980
C34   C     C_3   0.649132 0.122070 0.783978 0.238865
C35   C     C_R   0.621883 0.099398 0.430861 0.544783
C36   C     C_3   0.560890 0.213222 0.749175 -0.106752
C37   C     C_1   0.699288 0.222765 0.854925 0.056534
C38   C     C_1   0.646370 0.156433 0.659245 0.012558
C39   C     C_R   0.748275 0.688890 0.361787 -0.049543
C40   C     C_R   0.758844 0.671909 0.310688 -0.058936
C41   C     C_3   0.691701 0.631786 0.802462 0.048031
C42   C     C_R   0.771644 0.654212 0.207458 0.006855
C43   C     C_R   0.869931 0.629980 0.234981 0.035508
C44   C     C_R   0.860546 0.644292 0.285636 -0.114539
C45   C     C_R   0.770132 0.653852 0.155558 -0.018058
C46   C     C_R   0.684931 0.640007 0.132186 -0.031327
C47   C     C_R   0.604319 0.772606 0.431145 0.576911
C48   C     C_R   0.571139 0.683764 0.359606 0.252521
C49   C     C_R   0.567942 0.692280 0.308798 0.033051
C50   C     C_R   0.665771 0.680427 0.284123 -0.009166
C51   C     C_R   0.470409 0.712943 0.281821 0.039225
C52   C     C_3   0.580851 0.656352 0.740938 -0.101515
C53   C     C_R   0.478049 0.703678 0.231456 -0.150643
C54   C     C_R   0.577620 0.682440 0.207208 -0.001768
C55   C     C_R   0.671648 0.673250 0.232928 0.037056
C56   C     C_R   0.585408 0.664588 0.157501 -0.124289
C57   C     C_R   0.647394 0.705403 0.385408 0.026049
C58   C     C_R   0.163271 0.090355 0.365946 -0.001043
C59   C     C_R   0.274632 0.123770 0.431709 0.583843
C60   C     C_R   0.140708 0.096984 0.314774 0.010014
C61   C     C_R   0.110226 0.110914 0.212208 -0.028770
C62   C     C_R   0.078739 0.044514 0.240170 -0.092868
C63   C     C_3   0.670691 0.660080 0.707196 -0.030655
C64   C     C_R   0.091082 0.038251 0.290714 0.240476
C65   C     C_R   0.086495 0.125355 0.162518 -0.128225
C66   C     C_R   0.104503 0.203863 0.135468 0.001690
C67   C     C_R   0.207148 0.245169 0.357749 0.204718
C68   C     C_R   0.203649 0.240178 0.307445 0.012538
C69   C     C_R   0.169632 0.167161 0.285649 -0.024308
C70   C     C_R   0.234272 0.307156 0.278512 -0.065815
C71   C     C_3   0.768228 0.554296 0.732128 -0.127141
C72   C     C_R   0.226444 0.306776 0.228406 -0.119600
C73   C     C_R   0.183275 0.243509 0.206360 0.010445
C74   C     C_3   0.595269 0.736355 0.776932 0.231020
C75   C     C_R   0.156342 0.172031 0.234697 0.056356
C76   C     C_R   0.158486 0.257830 0.156903 -0.132265
C77   C     C_R   0.208395 0.156332 0.385771 0.016714
C78   C     C_R   0.563055 0.235496 0.361144 -0.105790
C79   C     C_R   0.565493 0.251584 0.310881 -0.014495
C80   C     C_R   0.570941 0.281478 0.209638 -0.026096
C81   C     C_R   0.487043 0.371824 0.239073 0.004305
C82   C     C_R   0.486937 0.355705 0.289621 -0.086224
C83   C     C_3   0.780754 0.635189 0.768514 0.258864
C84   C     C_R   0.588925 0.297612 0.160645 -0.159772
C85   C     C_3   0.684127 0.740290 0.742958 0.066316
C86   C     C_R   0.671362 0.206475 0.132469 0.013952
C87   C     C_R   0.721719 0.040772 0.352364 -0.087244
C88   C     C_R   0.721170 0.053735 0.302416 0.031330
C89   C     C_R   0.643862 0.159780 0.281295 0.058980
C90   C     C_R   0.793942 0.960080 0.273347 -0.081237
C91   C     C_R   0.792874 0.971546 0.223323 -0.122111
C92   C     C_R   0.721366 0.078345 0.201307 -0.017725
C93   C     C_R   0.645083 0.173311 0.230687 0.044970
C94   C     C_R   0.726368 0.093625 0.150996 -0.007197
C95   C     C_1   0.702771 0.598562 0.898319 0.058185
C96   C     C_1   0.698135 0.616977 0.855317 0.074675
C97   C     C_R   0.639993 0.129315 0.381796 0.006672
C98   C     C_R   0.999463 0.265957 0.944233 0.531864
C99   C     C_R   0.712538 0.561579 0.947720 0.537820
C100  C     C_R   0.749255 0.244713 0.945063 0.525476
C101  C     C_R   0.047790 0.244131 0.088573 0.559670
C102  C     C_R   0.707349 0.576286 0.086082 0.534088
C103  C     C_R   0.716821 0.232295 0.088439 0.583797
C104  C     C_2   0.504559 0.422370 0.781953 0.225405
C105  C     C_2   0.840389 0.687964 0.125225 0.229502
C106  C     C_2   0.842557 0.686877 0.390154 0.281709
Cl1   Cl    Cl    0.913420 0.619764 0.787489 -0.515489
Cl2   Cl    Cl    0.625802 0.029240 0.822551 -0.544068
Cl3   Cl    Cl    0.497925 0.623853 0.390853 -0.502565
Cl4   Cl    Cl    0.031676 0.963095 0.319838 -0.628716
Cl5   Cl    Cl    0.200381 0.369087 0.384751 -0.533653
Cl6   Cl    Cl    0.480708 0.853077 0.808502 -0.570290
Cl7   Cl    Cl    0.038047 0.041053 0.704523 -0.577734
Cr1   Cr    Cr6+3 0.417550 0.169090 0.500530 1.110745
Cr2   Cr    Cr6+3 0.669180 0.913420 0.499920 1.114848
Cr3   Cr    Cr6+3 0.413260 0.917540 0.499520 1.131673
Cr4   Cr    Cr6+3 0.909170 0.177380 0.020380 1.069789
Cr5   Cr    Cr6+3 0.912710 0.429210 0.018220 1.047282
Cr6   Cr    Cr6+3 0.657170 0.432570 0.019030 1.062667
H1    H     H_    0.185731 0.317075 0.791735 0.163816
H2    H     H_    0.516007 0.662075 0.139022 0.142347
H3    H     H_    0.404383 0.716649 0.210792 0.121579
H4    H     H_    0.044651 0.082952 0.146041 0.132292
H5    H     H_    0.039656 0.000446 0.222708 0.149283
H6    H     H_    0.173138 0.317760 0.136017 0.132480
H7    H     H_    0.249196 0.360275 0.207074 0.148481
H8    H     H_    0.265641 0.359756 0.294229 0.194966
H9    H     H_    0.547160 0.382696 0.145236 0.118982
H10   H     H_    0.498629 0.303458 0.383769 0.171800
H11   H     H_    0.424239 0.424085 0.312628 0.196556
H12   H     H_    0.033392 0.382690 0.712541 0.157227
H13   H     H_    0.851699 0.896581 0.202741 0.172388
H14   H     H_    0.851764 0.877461 0.289328 0.152298
H15   H     H_    0.780565 0.957666 0.367713 0.148066
H16   H     H_    0.498588 0.664821 0.729178 0.161363
H17   H     H_    0.679576 0.470781 0.777722 0.141627
H18   H     H_    0.208750 0.008104 0.794134 0.189300
H19   H     H_    0.448831 0.478728 0.753871 0.121933
H20   H     H_    0.843876 0.679263 0.086013 0.159500
H21   H     H_    0.889584 0.726429 0.375818 0.109077
H22   H     H_    0.004939 0.524152 0.179874 0.115513
H23   H     H_    0.910176 0.292732 0.762410 0.107366
H24   H     H_    0.290251 0.749138 0.285516 0.185847
H25   H     H_    0.164191 0.932482 0.393203 0.221525
H26   H     H_    0.617264 0.929034 0.734442 0.179019
H27   H     H_    0.384211 0.492840 0.179063 0.109117
H28   H     H_    0.878820 0.928264 0.126800 0.140276
H29   H     H_    0.407626 0.083373 0.777106 0.189054
H30   H     H_    0.702344 0.325743 0.707727 0.128292
H31   H     H_    0.473171 0.229847 0.742167 0.138821
H32   H     H_    0.808305 0.995066 0.734873 0.219593
H33   H     H_    0.860940 0.154861 0.774200 0.164179
H34   H     H_    0.836577 0.479782 0.712209 0.130301
H35   H     H_    0.936274 0.626240 0.305665 0.175947
O1    O     O_R   0.301710 0.195650 0.554160 -0.495724
O2    O     O_R   0.635520 0.542770 0.964420 -0.489242
O3    O     O_R   0.665950 0.325030 0.970100 -0.468358
O4    O     O_R   0.522390 0.158990 0.550460 -0.495966
O5    O     O_R   0.816620 0.158530 0.074540 -0.495983
O6    O     O_R   0.004460 0.188870 0.069750 -0.500239
O7    O     O_R   0.025800 0.341780 0.072300 -0.508684
O8    O     O_R   0.807650 0.528950 0.067500 -0.517759
O9    O     O_R   0.633420 0.550490 0.071810 -0.509615
O10   O     O_R   0.664000 0.332180 0.069640 -0.498513
O11   O     O_3   0.826350 0.346390 0.019210 -0.303031
O12   O     O_R   0.658900 0.818120 0.449760 -0.488648
O13   O     O_R   0.694390 0.003530 0.554040 -0.474143
O14   O     O_R   0.657700 0.819660 0.549320 -0.474413
O15   O     O_R   0.501930 0.803280 0.552920 -0.493270
O16   O     O_R   0.318170 0.023580 0.549580 -0.478313
O17   O     O_R   0.303010 0.193990 0.446760 -0.445665
O18   O     O_R   0.523600 0.157450 0.450900 -0.492727
O19   O     O_R   0.695690 0.001860 0.446640 -0.507990
O20   O     O_2   0.495516 0.458300 0.823467 -0.468210
O21   O     O_2   0.887952 0.735736 0.143061 -0.541529
O22   O     O_2   0.869991 0.638556 0.429440 -0.427332
O23   O     O_R   0.503220 0.801620 0.445520 -0.446172
O24   O     O_2   0.063859 0.580458 0.232782 -0.470642
O25   O     O_2   0.327628 0.823154 0.339145 -0.498586
O26   O     O_2   0.084692 0.064704 0.438116 -0.467187
O27   O     O_2   0.770200 0.833569 0.703498 -0.466344
O28   O     O_2   0.326304 0.558270 0.244206 -0.497030
O29   O     O_2   0.751044 0.986149 0.079833 -0.450482
O30   O     O_2   0.406090 0.064503 0.705228 -0.530858
O31   O     O_R   0.319370 0.022040 0.450020 -0.486112
O32   O     O_3   0.499990 0.000010 0.499990 -0.295257
O33   O     O_R   0.818720 0.150820 0.967160 -0.469191
O34   O     O_R   0.006410 0.181720 0.970200 -0.492023
O35   O     O_R   0.027890 0.334070 0.964920 -0.472652
O36   O     O_R   0.809600 0.521790 0.967960 -0.508171

loop_
_geom_bond_atom_site_label_1
_geom_bond_atom_site_label_2
_ccdc_geom_bond_type
C70   H8    S    
C84   H9    S    
C39   C106  S    
C87   C88   A    
Cr5   O7    S    
Cr6   O2    S    
C76   H6    S    
C23   O1    A    
Cr4   O5    S    
C18   C21   S    
C95   C96   T    
C67   C77   A    
C20   H1    S    
C80   C84   A    
C103  O5    A    
C59   C77   S    
C4    H24   S    
C62   H5    S    
C81   C82   A    
C48   C57   A    
C53   C54   A    
C61   C75   A    
Cr1   O18   S    
C46   C102  S    
C11   C19   S    
C103  O10   A    
C6    C85   S    
C5    C58   S    
C18   C24   S    
C1    O4    A    
C78   H10   S    
C84   C86   A    
C29   C32   S    
C52   C74   S    
C10   C15   S    
C74   Cl6   S    
C6    H26   S    
Cr5   O35   S    
C95   C99   S    
C41   C96   S    
C17   H12   S    
C1    O13   A    
C58   C60   A    
C15   C16   S    
C41   C83   S    
C17   C20   S    
C25   H30   S    
C14   C24   T    
C13   C98   S    
C49   C50   A    
Cr1   O4    S    
C62   C64   A    
C86   C94   A    
C58   C77   A    
C26   C104  S    
C41   C74   S    
C54   C55   A    
C106  H21   S    
C100  O3    A    
C12   C16   S    
C101  O6    A    
Cr4   O11   S    
C68   C69   A    
C49   C51   A    
C3    H22   S    
C17   C18   S    
C13   C22   T    
C1    C28   S    
C98   O34   A    
C30   C41   S    
C69   C75   A    
C82   H11   S    
Cr6   O11   S    
Cr6   O3    S    
C72   C73   A    
C7    H27   S    
C48   Cl3   S    
C66   C76   A    
C26   C31   S    
C83   Cl1   S    
Cr3   O23   S    
C63   C85   S    
Cr4   O6    S    
C53   H3    S    
C35   O18   A    
C73   C75   A    
C66   C101  S    
C105  H20   S    
C98   O35   A    
C59   O17   A    
C86   C103  S    
C45   C105  S    
C30   C71   S    
C71   C83   S    
C25   C29   S    
Cr1   O17   S    
C54   C56   A    
C27   C100  S    
C99   O36   A    
C6    O27   D    
C33   C36   S    
C35   O19   A    
C100  O33   A    
C8    C94   S    
Cr4   O33   S    
Cr6   O9    S    
C91   C92   A    
Cr2   O32   S    
C78   C79   A    
C102  O9    A    
C5    H25   S    
C104  O20   D    
C91   H13   S    
C4    C51   S    
C25   C26   S    
C45   C46   A    
Cr3   O32   S    
C12   C21   S    
Cr4   O34   S    
C31   C37   S    
C72   H7    S    
C51   C53   A    
C42   C45   A    
C32   C34   S    
C14   C23   S    
C43   C44   A    
C5    O26   D    
C42   C55   A    
C47   C57   S    
C15   H23   S    
C64   Cl4   S    
C28   C38   T    
C16   C20   S    
C3    C43   S    
C99   O2    A    
C78   C97   A    
C92   C94   A    
C87   H15   S    
C31   C34   S    
Cr3   O16   S    
C20   C21   S    
Cr2   O12   S    
C39   C57   A    
C10   Cl7   S    
C10   C12   S    
C8    O29   D    
C26   C36   S    
C48   C49   A    
C7    C81   S    
C88   C90   A    
C11   O15   A    
C30   H17   S    
C11   O14   A    
C73   C76   A    
C8    H28   S    
C42   C43   A    
C52   H16   S    
C4    O25   D    
Cr2   O13   S    
C9    C21   S    
Cr1   O1    S    
C39   C40   A    
C102  O8    A    
C90   H14   S    
C67   Cl5   S    
C47   O12   A    
C30   C52   S    
C2    C63   S    
Cr5   O8    S    
C16   C22   S    
Cr5   O11   S    
C7    O28   D    
C83   C85   S    
C2    C19   T    
C29   C31   S    
C3    O24   D    
C33   C38   S    
C63   C71   S    
C80   C81   A    
C52   C63   S    
Cr6   O10   S    
C79   C82   A    
C15   C17   S    
C67   C68   A    
Cr3   O31   S    
C9    H29   S    
C50   C55   A    
Cr1   O32   S    
C60   C64   A    
C34   Cl2   S    
C32   C33   S    
C101  O7    A    
Cr2   O14   S    
C44   H35   S    
Cr2   O19   S    
C9    O30   D    
C56   H2    S    
C29   H33   S    
Cr5   O36   S    
C36   H31   S    
C90   C91   A    
C23   O16   A    
C60   C69   A    
C10   C18   S    
C40   C50   A    
C92   C93   A    
C32   H32   S    
C104  H19   S    
Cr3   O15   S    
C59   O31   A    
C34   C36   S    
C65   H4    S    
C74   C85   S    
C89   C93   A    
C61   C62   A    
C79   C89   A    
C61   C65   A    
C40   C44   A    
C88   C89   A    
C47   O23   A    
C65   C66   A    
C105  O21   D    
C46   C56   A    
C68   C70   A    
C106  O22   D    
C12   H18   S    
C70   C72   A    
C80   C93   A    
C35   C97   S    
C27   C37   T    
C25   C33   S    
C87   C97   A    
C71   H34   S    
