data_mof_unit_17884.cif
_audit_creation_date              2012-12-11T14:08:16-0500
_audit_creation_method            fapswitch 2.2
_symmetry_space_group_name_H-M    P1
_symmetry_Int_Tables_number       1
_space_group_crystal_system       triclinic
_cell_length_a                    10.959262
_cell_length_b                    10.927314
_cell_length_c                    18.762901
_cell_angle_alpha                 90.277055
_cell_angle_beta                  89.861183
_cell_angle_gamma                 60.493537
_cell_volume                      1955.47415376

loop_
_atom_site_label
_atom_site_type_symbol
_atom_type_description
_atom_site_fract_x
_atom_site_fract_y
_atom_site_fract_z
_atom_type_partial_charge
C1    C     C_R   0.238568 0.646196 0.609625 0.545487
C2    C     C_3   0.700843 0.533764 0.799998 -0.249442
C3    C     C_3   0.697891 0.674043 0.813463 0.057093
C4    C     C_3   0.668254 0.647342 0.677871 0.051286
C5    C     C_3   0.792468 0.674010 0.688859 -0.251968
C6    C     C_3   0.696165 0.513268 0.719691 -0.216508
C7    C     C_2   0.666797 0.169458 0.674143 -0.128460
C8    C     C_2   0.676051 0.180619 0.831874 -0.117256
C9    C     C_2   0.781564 0.160810 0.789339 -0.183156
C10   C     C_2   0.760394 0.187417 0.712131 -0.201516
C11   C     C_2   0.193408 0.668121 0.684957 0.248830
C12   C     C_R   0.652449 0.621055 0.602313 0.554782
C13   C     C_2   0.211371 0.648384 0.845754 -0.076695
C14   C     C_2   0.193321 0.560984 0.801508 -0.148800
C15   C     C_2   0.215837 0.555083 0.723587 -0.133759
C16   C     C_2   0.627769 0.620634 0.312936 -0.111382
C17   C     C_2   0.633189 0.658397 0.157536 -0.107860
C18   C     C_2   0.705816 0.534730 0.190857 -0.154932
C19   C     C_2   0.683382 0.514503 0.265776 -0.172406
C20   C     C_2   0.618032 0.228610 0.317109 -0.097968
C21   C     C_2   0.633683 0.192785 0.165838 -0.091756
C22   C     C_2   0.534908 0.188857 0.206041 -0.156182
C23   C     C_R   0.626263 0.230344 0.602846 0.557662
C24   C     C_2   0.513824 0.234120 0.278681 -0.182013
C25   C     C_2   0.247075 0.632994 0.320671 -0.105991
C26   C     C_2   0.195421 0.642110 0.168664 0.142549
C27   C     C_2   0.244769 0.718170 0.202071 -0.136704
C28   C     C_2   0.296385 0.690112 0.274405 -0.179505
C29   C     C_R   0.700787 0.105784 0.899025 0.548037
C30   C     C_R   0.722870 0.687665 0.888931 0.542425
C31   C     C_R   0.123089 0.703280 0.909306 0.542864
C32   C     C_R   0.673163 0.112230 0.101636 0.561180
C33   C     C_R   0.692696 0.687729 0.094590 0.552338
C34   C     C_R   0.288982 0.620139 0.393143 0.537722
C35   C     C_R   0.098636 0.706524 0.110824 0.586742
C36   C     C_R   0.617277 0.590468 0.387116 0.532577
C37   C     C_R   0.586828 0.282904 0.387640 0.532530
C38   C     C_3   0.554550 0.795734 0.787876 -0.237740
C39   C     C_3   0.533478 0.773641 0.709048 -0.246957
C40   C     C_3   0.816469 0.678881 0.769340 -0.216589
Cr1   Cr    Cr6+3 0.393010 0.398050 0.501480 1.008734
Cr2   Cr    Cr6+3 0.398820 0.707980 0.501630 1.003193
Cr3   Cr    Cr6+3 0.708140 0.393940 0.496850 1.006363
Cr4   Cr    Cr6+3 0.937950 0.938450 0.008940 1.017816
Cr5   Cr    Cr6+3 0.626180 0.937030 0.994750 1.013223
Cr6   Cr    Cr6+3 0.937790 0.625760 0.001410 1.012761
H1    H     H_    0.551487 0.898621 0.794168 0.143323
H2    H     H_    0.800108 0.426053 0.703141 0.132512
H3    H     H_    0.919070 0.586970 0.783047 0.130546
H4    H     H_    0.889433 0.589212 0.663381 0.127805
H5    H     H_    0.886038 0.119983 0.811121 0.149345
H6    H     H_    0.826665 0.219005 0.685018 0.142357
H7    H     H_    0.569974 0.229916 0.810984 0.113816
H8    H     H_    0.604853 0.128551 0.699167 0.106010
H9    H     H_    0.144775 0.501817 0.821131 0.130812
H10   H     H_    0.239998 0.457043 0.697056 0.103571
H11   H     H_    0.272248 0.697631 0.830100 0.156143
H12   H     H_    0.467196 0.800024 0.820235 0.120802
H13   H     H_    0.794576 0.446901 0.164759 0.148632
H14   H     H_    0.727263 0.407064 0.284094 0.128338
H15   H     H_    0.539055 0.744115 0.181064 0.096109
H16   H     H_    0.586905 0.729277 0.297167 0.110236
H17   H     H_    0.469659 0.146444 0.186852 0.165737
H18   H     H_    0.410273 0.269514 0.301356 0.151143
H19   H     H_    0.695884 0.239369 0.183785 0.087913
H20   H     H_    0.724075 0.186967 0.296727 0.106745
H21   H     H_    0.226813 0.818250 0.181206 0.135547
H22   H     H_    0.445301 0.751048 0.704866 0.167555
H23   H     H_    0.358915 0.735791 0.292525 0.133404
H24   H     H_    0.172190 0.599842 0.306265 0.140299
H25   H     H_    0.506075 0.871131 0.678785 0.114297
H26   H     H_    0.821787 0.775728 0.782313 0.130761
H27   H     H_    0.769512 0.775318 0.663919 0.118029
H28   H     H_    0.797525 0.443843 0.822068 0.136588
H29   H     H_    0.609313 0.534580 0.826379 0.115688
H30   H     H_    0.614406 0.483905 0.707621 0.133205
O1    O     O_R   0.507110 0.256280 0.580300 -0.512956
O2    O     O_R   0.524640 0.695370 0.425100 -0.507130
O3    O     O_R   0.735890 0.504390 0.415980 -0.493632
O4    O     O_R   0.690560 0.277820 0.422350 -0.507390
O5    O     O_3   0.499990 0.499990 0.499980 -0.301053
O6    O     O_R   0.089190 0.825870 0.932320 -0.512793
O7    O     O_R   0.819070 0.053960 0.931440 -0.494009
O8    O     O_R   0.607070 0.076440 0.916460 -0.524192
O9    O     O_R   0.647110 0.806550 0.917690 -0.510081
O10   O     O_R   0.837080 0.593860 0.915300 -0.530339
O11   O     O_R   0.064770 0.636080 0.932550 -0.505824
O12   O     O_R   0.280830 0.527190 0.577940 -0.515941
O13   O     O_R   0.068250 0.829200 0.092940 -0.543148
O14   O     O_R   0.799650 0.057040 0.080330 -0.502049
O15   O     O_R   0.586130 0.079760 0.077080 -0.517316
O16   O     O_R   0.627700 0.809630 0.066580 -0.498006
O17   O     O_R   0.816140 0.597180 0.075920 -0.520921
O18   O     O_R   0.045360 0.639170 0.081440 -0.487285
O19   O     O_3   0.833980 0.833750 0.001700 -0.248887
O20   O     O_R   0.261360 0.738990 0.584270 -0.522129
O21   O     O_R   0.532590 0.694780 0.574370 -0.508467
O22   O     O_R   0.744470 0.503750 0.577000 -0.523056
O23   O     O_R   0.698520 0.277230 0.571620 -0.497633
O24   O     O_R   0.498530 0.256920 0.419280 -0.504255
O25   O     O_R   0.272880 0.527780 0.428680 -0.507302
O26   O     O_R   0.252780 0.739630 0.423250 -0.497566
O27   O     O_3   0.171700 0.788616 0.721929 -0.606819
C41   C     C_3   0.093719 0.917616 0.686181 0.028281
H31   H     H_    0.006429 0.982030 0.721689 0.158924
H32   H     H_    0.045330 0.911772 0.635109 0.140287
C42   C     C_3   0.182875 0.990326 0.678228 -0.261417
H33   H     H_    0.234242 0.986103 0.729892 0.161568
H34   H     H_    0.266024 0.935225 0.637679 0.192782
C43   C     C_3   0.097902 0.143763 0.656086 -0.484916
H35   H     H_    0.029781 0.155206 0.609968 0.163362
H36   H     H_    0.170272 0.182923 0.640350 0.146303
H37   H     H_    0.034280 0.208714 0.701828 0.130957
N1    N     N_2   0.246221 0.497214 0.184004 -0.532862
H38   H     H_    0.338425 0.448906 0.211510 0.264174
C44   C     C_3   0.145713 0.450960 0.200130 -0.283845
H39   H     H_    0.172803 0.393150 0.251323 0.113030
H40   H     H_    0.149194 0.378895 0.157319 0.166970
H41   H     H_    0.037162 0.540822 0.205190 0.168662

loop_
_geom_bond_atom_site_label_1
_geom_bond_atom_site_label_2
_ccdc_geom_bond_type
C7    C10   D    
C23   O23   A    
C39   H22   S    
C28   H23   S    
C1    C11   S    
Cr3   O22   S    
Cr4   O7    S    
C10   H6    S    
C41   H32   S    
N1    H38   S    
C25   C28   D    
C26   C27   D    
C34   O26   A    
C31   O6    A    
C16   H16   S    
Cr2   O20   S    
C8    C29   S    
C20   H20   S    
Cr3   O23   S    
C29   O7    A    
Cr4   O6    S    
C1    O20   A    
Cr1   O1    S    
C38   C39   S    
C32   O15   A    
C13   H11   S    
Cr3   O3    S    
C40   H3    S    
C44   H39   S    
C18   C19   S    
Cr5   O16   S    
C43   H35   S    
C17   H15   S    
C22   H17   S    
C38   H12   S    
C11   C15   D    
C32   O14   A    
Cr6   O19   S    
C20   C24   D    
C3    C38   S    
C44   H40   S    
C8    C9    D    
C9    H5    S    
C42   H33   S    
C30   O10   A    
C9    C10   S    
C12   O22   A    
C2    H28   S    
C25   C34   S    
C1    O12   A    
C14   H9    S    
C24   H18   S    
C21   C22   D    
C42   H34   S    
C2    C6    S    
Cr2   O5    S    
C17   C33   S    
Cr2   O26   S    
C41   H31   S    
C37   O4    A    
C21   C32   S    
C34   O25   A    
C31   O11   A    
C29   O8    A    
C4    C6    S    
Cr2   O21   S    
Cr3   O4    S    
C3    C30   S    
Cr5   O9    S    
C26   N1    S    
C18   H13   S    
Cr6   O18   S    
C4    C39   S    
Cr1   O5    S    
C17   C18   D    
C38   H1    S    
Cr1   O24   S    
C23   O1    A    
C30   O9    A    
C43   H37   S    
C12   O21   A    
C6    H2    S    
C35   O13   A    
C3    C40   S    
Cr2   O2    S    
Cr3   O5    S    
C42   C43   S    
C22   C24   S    
C5    H4    S    
C33   O16   A    
Cr5   O8    S    
C4    C12   S    
Cr5   O19   S    
C27   C28   S    
Cr4   O14   S    
Cr6   O11   S    
C35   O18   A    
Cr1   O12   S    
C40   H26   S    
C21   H19   S    
C13   C31   S    
C4    C5    S    
C36   O3    A    
C33   O17   A    
C8    H7    S    
N1    C44   S    
C6    H30   S    
C19   H14   S    
C44   H41   S    
C15   H10   S    
C2    C3    S    
Cr4   O19   S    
C36   O2    A    
C16   C36   S    
C20   C37   S    
Cr6   O17   S    
C16   C19   D    
C7    C23   S    
Cr1   O25   S    
C37   O24   A    
C5    H27   S    
Cr5   O15   S    
C43   H36   S    
C27   H21   S    
C2    H29   S    
C26   C35   S    
C5    C40   S    
O27   C41   S    
C39   H25   S    
C14   C15   S    
C11   O27   S    
C25   H24   S    
C7    H8    S    
C13   C14   D    
C41   C42   S    
Cr4   O13   S    
Cr6   O10   S    
