data_mof_unit_33885.cif
_audit_creation_date              2013-03-05T15:40:40-0500
_audit_creation_method            fapswitch 2.2
_symmetry_space_group_name_H-M    P1
_symmetry_Int_Tables_number       1
_space_group_crystal_system       triclinic
_cell_length_a                    19.074
_cell_length_b                    11.053572
_cell_length_c                    18.787492
_cell_angle_alpha                 89.479643
_cell_angle_beta                  90.750691
_cell_angle_gamma                 89.574891
_cell_volume                      3960.46062255

loop_
_atom_site_label
_atom_site_type_symbol
_atom_site_description
_atom_site_fract_x
_atom_site_fract_y
_atom_site_fract_z
_atom_type_partial_charge
O1    O     O_R   0.043230 0.549300 0.667990 -0.489026
O2    O     O_R   0.956770 0.549300 0.332010 -0.440346
O3    O     O_R   0.543230 0.049300 0.667990 -0.489030
O4    O     O_R   0.456770 0.049300 0.332010 -0.440345
O5    O     O_R   0.178620 0.457600 0.674100 -0.529459
O6    O     O_R   0.821380 0.457600 0.325900 -0.472238
O7    O     O_R   0.678620 0.957600 0.674100 -0.529459
O8    O     O_R   0.321380 0.957600 0.325900 -0.472238
C1    C     C_R   0.238894 0.469435 0.646482 0.547540
C2    C     C_R   0.761353 0.467011 0.353261 0.551411
C3    C     C_R   0.738894 0.969435 0.646482 0.547540
C4    C     C_R   0.261353 0.967011 0.353261 0.551412
O9    O     O_R   0.284680 0.542100 0.669460 -0.434862
O10   O     O_R   0.715320 0.542100 0.330540 -0.469152
O11   O     O_R   0.784680 0.042100 0.669460 -0.434863
O12   O     O_R   0.215320 0.042100 0.330540 -0.469151
O13   O     O_R   0.262860 0.790390 0.676650 -0.382701
O14   O     O_R   0.737140 0.790390 0.323350 -0.417360
O15   O     O_R   0.762860 0.290390 0.676650 -0.382705
O16   O     O_R   0.237140 0.290390 0.323350 -0.417360
C5    C     C_R   0.204981 0.820784 0.642814 0.592285
C6    C     C_R   0.772934 0.872061 0.352632 0.614002
C7    C     C_R   0.704982 0.320784 0.642814 0.592283
C8    C     C_R   0.272934 0.372060 0.352632 0.614004
O17   O     O_R   0.167460 0.907030 0.670940 -0.475194
O18   O     O_R   0.832540 0.907030 0.329060 -0.484352
O19   O     O_R   0.667460 0.407030 0.670940 -0.475193
O20   O     O_R   0.332540 0.407030 0.329060 -0.484352
O21   O     O_R   0.053950 0.750220 0.675100 -0.555269
O22   O     O_R   0.946050 0.750220 0.324900 -0.506719
O23   O     O_R   0.553950 0.250220 0.675100 -0.555268
O24   O     O_R   0.446050 0.250220 0.324900 -0.506719
C9    C     C_R   0.028922 0.656472 0.644819 0.544117
C10   C     C_R   0.973875 0.653914 0.352826 0.609107
C11   C     C_R   0.528922 0.156472 0.644818 0.544121
C12   C     C_R   0.473875 0.153914 0.352826 0.609107
O25   O     O_R   0.043300 0.547370 0.827390 -0.480915
O26   O     O_R   0.956700 0.547370 0.172610 -0.487213
O27   O     O_R   0.543300 0.047370 0.827390 -0.480916
O28   O     O_R   0.456700 0.047370 0.172610 -0.487213
O29   O     O_R   0.178690 0.455820 0.821860 -0.455234
O30   O     O_R   0.821310 0.455820 0.178140 -0.476659
O31   O     O_R   0.678690 0.955820 0.821860 -0.455234
O32   O     O_R   0.321310 0.955820 0.178140 -0.476659
C13   C     C_R   0.238235 0.470340 0.852660 0.580689
C14   C     C_R   0.761791 0.470335 0.147454 0.564701
C15   C     C_R   0.738235 0.970341 0.852660 0.580689
C16   C     C_R   0.261791 0.970335 0.147454 0.564701
O33   O     O_R   0.284750 0.540170 0.828860 -0.504470
O34   O     O_R   0.715250 0.540170 0.171140 -0.508758
O35   O     O_R   0.784750 0.040170 0.828860 -0.504469
O36   O     O_R   0.215250 0.040170 0.171140 -0.508758
O37   O     O_R   0.262920 0.788600 0.824420 -0.505148
O38   O     O_R   0.737080 0.788600 0.175580 -0.510155
O39   O     O_R   0.762920 0.288600 0.824420 -0.505148
O40   O     O_R   0.237080 0.288600 0.175580 -0.510155
C17   C     C_R   0.229021 0.875786 0.851492 0.589936
C18   C     C_R   0.770972 0.876264 0.148574 0.568461
C19   C     C_R   0.729021 0.375786 0.851492 0.589935
C20   C     C_R   0.270971 0.376264 0.148574 0.568461
O41   O     O_R   0.167530 0.905110 0.830340 -0.442990
O42   O     O_R   0.832470 0.905110 0.169660 -0.447248
O43   O     O_R   0.667530 0.405110 0.830340 -0.442990
O44   O     O_R   0.332470 0.405110 0.169660 -0.447248
O45   O     O_R   0.054010 0.748440 0.822860 -0.493822
O46   O     O_R   0.945990 0.748440 0.177140 -0.502895
O47   O     O_R   0.554010 0.248440 0.822860 -0.493821
O48   O     O_R   0.445990 0.248440 0.177140 -0.502895
C21   C     C_R   0.028423 0.652641 0.849746 0.570559
C22   C     C_R   0.967709 0.651740 0.147510 0.549700
C23   C     C_R   0.528423 0.152641 0.849746 0.570561
C24   C     C_R   0.467709 0.151740 0.147510 0.549700
Cr1   Cr    Cr6+3 0.113970 0.508630 0.747920 1.105406
Cr2   Cr    Cr6+3 0.886030 0.508630 0.252080 1.154281
Cr3   Cr    Cr6+3 0.613970 0.008630 0.747920 1.105402
Cr4   Cr    Cr6+3 0.386030 0.008630 0.252080 1.154282
Cr5   Cr    Cr6+3 0.269200 0.666740 0.749850 1.146979
Cr6   Cr    Cr6+3 0.730800 0.666740 0.250150 1.146249
Cr7   Cr    Cr6+3 0.769200 0.166740 0.749850 1.146978
Cr8   Cr    Cr6+3 0.230800 0.166740 0.250150 1.146250
Cr9   Cr    Cr6+3 0.112300 0.820070 0.749800 1.078069
Cr10  Cr    Cr6+3 0.887700 0.820070 0.250200 1.107056
Cr11  Cr    Cr6+3 0.612300 0.320070 0.749800 1.078069
Cr12  Cr    Cr6+3 0.387700 0.320070 0.250200 1.107057
O49   O     O_3   0.165160 0.665150 0.749190 -0.343431
O50   O     O_3   0.834840 0.665150 0.250810 -0.305139
O51   O     O_3   0.665160 0.165150 0.749190 -0.343431
O52   O     O_3   0.334840 0.165150 0.250810 -0.305139
C25   C     C_2   0.201015 0.818165 0.564795 -0.089805
C26   C     C_2   0.745737 0.918367 0.419021 -0.024084
C27   C     C_2   0.701015 0.318165 0.564795 -0.089806
C28   C     C_2   0.245737 0.418367 0.419022 -0.024084
C29   C     C_2   0.259799 0.930838 0.426982 0.235537
C30   C     C_2   0.751842 0.909909 0.579873 0.224697
C31   C     C_2   0.759799 0.430838 0.426982 0.235533
C32   C     C_2   0.251843 0.409909 0.579873 0.224697
C33   C     C_2   0.234565 0.821614 0.444039 -0.153347
C34   C     C_2   0.696987 0.895767 0.535530 -0.141280
C35   C     C_2   0.734566 0.321613 0.444039 -0.153348
C36   C     C_2   0.196988 0.395765 0.535530 -0.141280
C37   C     C_2   0.245810 0.773682 0.516038 0.163699
C38   C     C_2   0.705926 0.851667 0.464077 0.221745
C39   C     C_2   0.745811 0.273682 0.516039 0.163699
C40   C     C_2   0.205927 0.351666 0.464077 0.221743
C41   C     C_R   0.011303 0.658752 0.422392 0.025260
C42   C     C_R   0.999790 0.668845 0.571340 0.043474
C43   C     C_R   0.511302 0.158751 0.422392 0.025260
C44   C     C_R   0.499790 0.168845 0.571340 0.043477
C45   C     C_R   0.035939 0.874056 0.416661 -0.092665
C46   C     C_R   0.014671 0.893260 0.562415 -0.023430
C47   C     C_R   0.535939 0.374056 0.416660 -0.092665
C48   C     C_R   0.514671 0.393261 0.562415 -0.023431
C49   C     C_R   0.040522 0.985534 0.449117 -0.072279
C50   C     C_R   0.029338 0.995803 0.521698 -0.050183
C51   C     C_R   0.540522 0.485535 0.449117 -0.072278
C52   C     C_R   0.529338 0.495803 0.521698 -0.050183
C53   C     C_R   0.011345 0.777275 0.531116 0.016089
C54   C     C_R   0.018941 0.770158 0.456328 -0.002726
C55   C     C_R   0.511345 0.277275 0.531116 0.016088
C56   C     C_R   0.518941 0.270158 0.456328 -0.002727
H1    H     H_    0.052120 0.063370 0.416968 0.186167
H2    H     H_    0.032226 0.083207 0.546782 0.142994
H3    H     H_    0.552120 0.563370 0.416967 0.186168
H4    H     H_    0.532226 0.583208 0.546782 0.142994
C57   C     C_R   0.988731 0.559061 0.534489 -0.001924
C58   C     C_R   0.012255 0.551835 0.464016 -0.041723
C59   C     C_R   0.488730 0.059062 0.534490 -0.001923
C60   C     C_R   0.512254 0.051835 0.464016 -0.041724
C61   C     C_R   0.962191 0.452621 0.567728 0.265363
C62   C     C_R   0.028306 0.436867 0.435035 0.220130
C63   C     C_R   0.462189 0.952623 0.567729 0.265363
C64   C     C_R   0.528305 0.936867 0.435036 0.220129
C65   C     C_R   0.975348 0.340387 0.536741 -0.104884
C66   C     C_R   0.008539 0.332757 0.471745 -0.114550
C67   C     C_R   0.475345 0.840388 0.536743 -0.104884
C68   C     C_R   0.508537 0.832758 0.471746 -0.114549
C69   C     C_2   0.257674 0.927456 0.916581 -0.095747
C70   C     C_2   0.741980 0.929672 0.083532 -0.094615
C71   C     C_2   0.757674 0.427456 0.916581 -0.095747
C72   C     C_2   0.241980 0.429672 0.083532 -0.094614
C73   C     C_2   0.255005 0.941268 0.072554 -0.119572
C74   C     C_2   0.744881 0.941707 0.927856 -0.110265
C75   C     C_2   0.755005 0.441268 0.072554 -0.119572
C76   C     C_2   0.244881 0.441707 0.927856 -0.110265
C77   C     C_2   0.238899 0.033463 0.027467 -0.149752
C78   C     C_2   0.760723 0.034170 0.971613 -0.147313
C79   C     C_2   0.738899 0.533463 0.027467 -0.149752
C80   C     C_2   0.260723 0.534170 0.971613 -0.147313
C81   C     C_2   0.226718 0.019180 0.950717 0.172616
C82   C     C_2   0.773048 0.020269 0.048402 0.172797
C83   C     C_2   0.726718 0.519180 0.950717 0.172616
C84   C     C_2   0.273048 0.520269 0.048402 0.172797
C85   C     C_2   0.991190 0.663899 0.916149 -0.100380
C86   C     C_2   0.988351 0.656595 0.073520 -0.091713
C87   C     C_2   0.491190 0.163899 0.916149 -0.100379
C88   C     C_2   0.488351 0.156595 0.073520 -0.091713
C89   C     C_2   0.962750 0.570667 0.030069 -0.147741
C90   C     C_2   0.977888 0.565062 0.954671 -0.150003
C91   C     C_2   0.462750 0.070667 0.030069 -0.147741
C92   C     C_2   0.477888 0.065062 0.954671 -0.150004
H5    H     H_    0.018423 0.732705 0.054034 0.113928
H6    H     H_    0.983643 0.753729 0.937901 0.126281
H7    H     H_    0.518423 0.232705 0.054034 0.113928
H8    H     H_    0.483643 0.253729 0.937901 0.126281
H9    H     H_    0.210222 0.764540 0.404042 0.096988
H10   H     H_    0.643715 0.916347 0.551639 0.102755
H11   H     H_    0.710224 0.264537 0.404042 0.096989
H12   H     H_    0.143716 0.416346 0.551639 0.102755
N1    N     N_R   0.181492 0.105149 0.914192 0.093584
O53   O     O_R   0.196735 0.143140 0.850490 -0.301991
O54   O     O_R   0.131826 0.159737 0.948578 -0.331174
N2    N     N_R   0.818604 0.104863 0.083752 0.093922
O55   O     O_R   0.803802 0.143268 0.147156 -0.321714
O56   O     O_R   0.868115 0.158004 0.048480 -0.335657
N3    N     N_R   0.681492 0.605149 0.914192 0.093584
O57   O     O_R   0.696735 0.643140 0.850490 -0.301992
O58   O     O_R   0.631826 0.659737 0.948578 -0.331174
N4    N     N_R   0.318604 0.604863 0.083752 0.093922
O59   O     O_R   0.303802 0.643268 0.147156 -0.321713
O60   O     O_R   0.368115 0.658004 0.048480 -0.335657
H13   H     H_    0.265111 0.849808 0.054853 0.142575
H14   H     H_    0.735179 0.850458 0.946739 0.139182
H15   H     H_    0.765111 0.349808 0.054853 0.142575
H16   H     H_    0.235179 0.350458 0.946739 0.139182
H17   H     H_    0.299880 0.876359 0.942428 0.085638
H18   H     H_    0.699530 0.880102 0.058330 0.094449
H19   H     H_    0.799879 0.376358 0.942428 0.085638
H20   H     H_    0.199530 0.380102 0.058330 0.094449
H21   H     H_    0.932306 0.495874 0.050991 0.180178
H22   H     H_    0.982075 0.475345 0.931863 0.190335
H23   H     H_    0.432306 0.995874 0.050991 0.180178
H24   H     H_    0.482075 0.975344 0.931863 0.190334
N5    N     N_R   0.309952 0.706380 0.529319 0.081760
O61   O     O_R   0.344740 0.665661 0.475308 -0.348584
O62   O     O_R   0.341837 0.706823 0.590476 -0.251982
N6    N     N_R   0.679294 0.732470 0.450025 0.098918
O63   O     O_R   0.674456 0.656219 0.502828 -0.320617
O64   O     O_R   0.640213 0.713817 0.394329 -0.313482
N7    N     N_R   0.809953 0.206380 0.529320 0.081761
O65   O     O_R   0.844740 0.165659 0.475310 -0.348583
O66   O     O_R   0.841839 0.206828 0.590477 -0.251984
N8    N     N_R   0.179296 0.232469 0.450025 0.098918
O67   O     O_R   0.174459 0.156216 0.502827 -0.320615
O68   O     O_R   0.140213 0.213816 0.394330 -0.313486
N9    N     N_R   0.300735 0.003303 0.475964 0.111334
O69   O     O_R   0.285384 0.011056 0.542915 -0.222660
O70   O     O_R   0.347566 0.076649 0.450989 -0.305578
N10   N     N_R   0.822526 0.881762 0.559669 0.077267
O71   O     O_R   0.837264 0.779734 0.529341 -0.249354
O72   O     O_R   0.873325 0.953005 0.577856 -0.296270
N11   N     N_R   0.800734 0.503304 0.475964 0.111334
O73   O     O_R   0.785380 0.511062 0.542915 -0.222655
O74   O     O_R   0.847567 0.576646 0.450990 -0.305578
N12   N     N_R   0.322527 0.381761 0.559670 0.077268
O75   O     O_R   0.337264 0.279733 0.529342 -0.249352
O76   O     O_R   0.373325 0.453004 0.577857 -0.296270
H25   H     H_    0.156542 0.869580 0.543673 0.104379
H26   H     H_    0.765068 0.005269 0.436198 0.130470
H27   H     H_    0.656542 0.369579 0.543673 0.104379
H28   H     H_    0.265068 0.505269 0.436199 0.130471
H29   H     H_    0.047326 0.869171 0.360439 0.134031
H30   H     H_    0.002208 0.908459 0.617455 0.183618
H31   H     H_    0.547326 0.369170 0.360439 0.134031
H32   H     H_    0.502209 0.408460 0.617455 0.183618
N13   N     N_R   0.064614 0.425170 0.368643 0.107293
O77   O     O_R   0.110581 0.505183 0.349519 -0.388101
O78   O     O_R   0.045041 0.343673 0.323032 -0.281914
N14   N     N_R   0.921538 0.457523 0.631923 0.132530
O79   O     O_R   0.885896 0.554287 0.647698 -0.242136
O80   O     O_R   0.921285 0.365968 0.675960 -0.294199
N15   N     N_R   0.564612 0.925168 0.368644 0.107294
O81   O     O_R   0.610579 0.005180 0.349520 -0.388100
O82   O     O_R   0.545039 0.843671 0.323033 -0.281914
N16   N     N_R   0.421534 0.957527 0.631924 0.132535
O83   O     O_R   0.385901 0.054296 0.647703 -0.242146
O84   O     O_R   0.421273 0.865966 0.675956 -0.294193
H33   H     H_    0.960815 0.257773 0.563359 0.205960
H34   H     H_    0.017730 0.245204 0.449279 0.175971
H35   H     H_    0.460813 0.757774 0.563360 0.205962
H36   H     H_    0.517728 0.745204 0.449281 0.175970
H37   H     H_    0.229993 0.123687 0.048374 0.167096
H38   H     H_    0.769325 0.124124 0.949563 0.164591
H39   H     H_    0.729993 0.623687 0.048374 0.167096
H40   H     H_    0.269325 0.624124 0.949563 0.164591

loop_
_geom_bond_atom_site_label_1
_geom_bond_atom_site_label_2
_geom_bond_distance
_ccdc_geom_bond_type
C18   O42   1.276812 A    
Cr11  O51   1.980939 S    
O4    C12   1.267687 A    
O47   Cr11  1.944333 S    
C89   C90   1.451147 S    
C24   C88   1.450353 S    
O39   C19   1.270349 A    
O20   Cr12  2.068260 S    
C66   H34   1.073458 S    
N1    O53   1.301933 A    
C74   C78   1.350942 D    
C86   H5    1.085291 S    
O15   C7    1.306885 A    
C36   C40   1.444098 S    
C76   C80   1.350942 D    
C29   N9    1.449812 S    
Cr6   O50   1.984280 S    
C50   H2    1.080244 S    
N14   O80   1.301408 A    
N4    O59   1.301959 A    
O1    C9    1.284552 A    
C67   C68   1.385791 A    
N3    O58   1.301346 A    
C30   C34   1.339844 D    
C5    C25   1.467304 S    
N9    O69   1.298656 A    
C70   C82   1.340397 D    
O7    C3    1.274635 A    
C42   C57   1.418320 A    
O5    C1    1.274634 A    
N8    O68   1.295710 A    
C41   C58   1.411060 A    
C81   N1    1.441716 S    
O24   C12   1.290094 A    
C80   H40   1.088074 S    
C70   H18   1.086858 S    
C43   C60   1.411062 A    
O25   C21   1.272026 A    
C90   H22   1.086688 S    
O38   C18   1.274073 A    
C72   C84   1.340396 D    
C31   C35   1.340744 D    
C64   C68   1.393181 A    
O47   C23   1.272428 A    
C58   C62   1.419960 A    
C51   C52   1.388488 A    
O21   C9    1.279182 A    
O8    Cr4   1.950173 S    
O23   Cr11  1.948316 S    
O32   Cr4   1.942906 S    
O30   C14   1.274911 A    
C35   C39   1.460889 S    
C85   C90   1.332771 D    
C28   H28   1.081934 S    
C1    O9    1.265319 A    
C26   C38   1.360341 D    
C26   H26   1.081934 S    
C5    O17   1.307358 A    
C11   C44   1.486117 S    
C78   C82   1.465168 S    
C32   N12   1.438027 S    
C3    O11   1.265319 A    
C82   N2    1.441766 S    
C4    O12   1.270823 A    
C88   H7    1.085291 S    
N2    O56   1.301369 A    
N10   O71   1.298733 A    
N5    O62   1.293030 A    
C13   C76   1.448690 S    
C7    O19   1.307359 A    
C15   O35   1.263786 A    
C89   H21   1.087390 S    
O28   C24   1.262427 A    
C46   C50   1.393821 A    
C69   H17   1.086701 S    
O2    Cr2   2.060560 S    
O48   C24   1.278395 A    
C76   H16   1.084170 S    
C18   C70   1.453214 S    
O42   Cr10  2.049554 S    
Cr5   O49   1.984544 S    
N7    O65   1.301543 A    
O18   Cr10  2.068260 S    
C22   C86   1.450353 S    
C12   C43   1.482579 S    
C84   N4    1.441767 S    
C48   H32   1.078443 S    
C44   C55   1.431083 A    
C69   C81   1.341924 D    
C62   C66   1.393182 A    
N16   O84   1.301400 A    
C71   H19   1.086701 S    
C8    C28   1.453085 S    
C46   C53   1.416816 A    
Cr7   O51   1.984544 S    
N14   O79   1.301634 A    
C37   N5    1.444865 S    
C45   C54   1.405625 A    
O6    Cr2   1.950173 S    
C35   H11   1.087233 S    
N9    O70   1.300069 A    
C63   N16   1.443570 S    
O31   Cr3   1.929777 S    
O24   Cr12  1.931595 S    
O11   Cr7   2.076009 S    
O30   Cr2   1.942906 S    
C51   H3    1.072793 S    
C83   N3    1.441715 S    
N8    O67   1.300543 A    
O22   C10   1.290093 A    
C77   H37   1.088165 S    
O48   Cr12  1.947761 S    
C91   H23   1.087390 S    
C30   N10   1.438027 S    
C62   N13   1.440969 S    
C86   C89   1.348159 D    
N6    O64   1.295712 A    
C19   C71   1.456054 S    
C2    O10   1.270822 A    
O23   C11   1.279181 A    
O16   Cr8   1.950957 S    
N12   O75   1.298734 A    
O7    Cr3   1.952170 S    
C57   C61   1.426269 A    
O27   C23   1.272026 A    
Cr10  O50   1.993652 S    
O29   Cr1   1.929777 S    
O13   C5    1.306886 A    
Cr4   O52   1.980091 S    
O28   Cr4   2.068629 S    
O43   Cr11  2.069235 S    
C47   C56   1.405625 A    
C64   N15   1.440971 S    
C72   H20   1.086858 S    
O22   Cr10  1.931595 S    
C79   C83   1.467635 S    
N11   O73   1.298657 A    
O21   Cr9   1.948316 S    
O34   Cr6   2.069081 S    
O46   Cr10  1.947761 S    
O39   Cr7   1.956467 S    
O3    C11   1.284553 A    
C33   C37   1.460887 S    
O45   Cr9   1.944333 S    
C91   C92   1.451147 S    
C15   C74   1.448690 S    
C13   O33   1.263786 A    
O8    C4    1.265149 A    
C23   C87   1.449452 S    
C78   H38   1.088074 S    
O13   Cr5   1.932107 S    
N13   O77   1.301545 A    
C6    C26   1.453082 S    
C17   C69   1.456054 S    
N15   O82   1.302244 A    
C39   N7    1.444866 S    
Cr2   O50   1.980091 S    
O15   Cr7   1.932107 S    
C75   H15   1.083829 S    
C1    C32   1.442441 S    
Cr1   O49   1.993087 S    
C36   H12   1.087067 S    
C34   H10   1.087065 S    
C20   C72   1.453214 S    
C61   C65   1.397604 A    
C3    C30   1.442441 S    
Cr3   O51   1.993087 S    
O26   C22   1.262427 A    
N11   O74   1.300068 A    
C79   H39   1.088165 S    
C75   C79   1.350291 D    
O27   Cr3   2.070100 S    
C68   H36   1.073459 S    
C42   C53   1.431084 A    
C57   C58   1.406304 A    
C7    C27   1.467303 S    
C4    C29   1.438849 S    
N16   O83   1.301624 A    
C59   C60   1.406303 A    
C46   H30   1.078445 S    
C47   H31   1.082885 S    
C29   C33   1.340744 D    
C43   C56   1.399524 A    
C48   C52   1.393821 A    
N15   O81   1.301545 A    
C45   H29   1.082886 S    
N2    O55   1.301959 A    
C8    O20   1.286364 A    
O14   Cr6   1.950957 S    
C49   C50   1.388489 A    
O26   Cr2   2.068629 S    
O25   Cr1   2.070100 S    
C60   C64   1.419960 A    
O37   C17   1.270349 A    
C52   H4    1.080245 S    
C25   C37   1.354014 D    
C87   C92   1.332771 D    
O14   C6    1.261772 A    
C10   C41   1.482579 S    
C19   O43   1.272172 A    
C74   H14   1.084170 S    
C88   C91   1.348159 D    
C9    C42   1.486121 S    
C80   C84   1.465168 S    
C27   C39   1.354013 D    
N6    O63   1.300543 A    
O17   Cr9   2.063000 S    
C38   N6    1.440975 S    
O6    C2    1.265151 A    
C48   C55   1.416817 A    
N4    O60   1.301369 A    
C55   C56   1.417245 A    
C17   O41   1.272172 A    
C14   C75   1.450603 S    
C45   C49   1.382646 A    
C87   H8    1.086494 S    
O5    Cr1   1.952170 S    
C14   O34   1.260303 A    
C63   C67   1.397604 A    
O40   Cr8   1.940099 S    
O44   Cr12  2.049554 S    
C85   H6    1.086494 S    
C20   O44   1.276812 A    
O1    Cr1   2.050218 S    
C77   C81   1.467635 S    
O33   Cr5   2.047766 S    
C59   C63   1.426271 A    
O19   Cr11  2.063000 S    
O3    Cr3   2.050218 S    
N12   O76   1.297398 A    
C31   N11   1.449810 S    
Cr8   O52   1.984280 S    
N3    O57   1.301931 A    
C34   C38   1.444098 S    
C53   C54   1.417243 A    
O9    Cr5   2.076009 S    
C47   C51   1.382648 A    
O2    C10   1.267688 A    
C65   C66   1.385788 A    
Cr12  O52   1.993652 S    
C2    C31   1.438852 S    
O45   C21   1.272428 A    
C32   C36   1.339843 D    
C61   N14   1.443565 S    
C71   C83   1.341924 D    
C73   C77   1.350291 D    
N13   O78   1.302244 A    
C67   H35   1.076985 S    
C16   C73   1.450603 S    
C73   H13   1.083829 S    
O10   Cr6   2.060657 S    
C44   C59   1.418319 A    
C27   H27   1.086258 S    
C41   C54   1.399524 A    
O35   Cr7   2.047766 S    
O4    Cr4   2.060560 S    
C21   C85   1.449452 S    
C28   C40   1.360339 D    
C92   H24   1.086688 S    
C25   H25   1.086257 S    
C65   H33   1.076986 S    
O40   C20   1.274073 A    
C16   O36   1.260303 A    
C49   H1    1.072792 S    
O46   C22   1.278395 A    
N10   O72   1.297398 A    
N5    O61   1.301542 A    
C6    O18   1.286365 A    
C33   H9    1.087234 S    
N7    O66   1.293031 A    
O29   C13   1.279742 A    
O41   Cr9   2.069235 S    
O12   Cr8   2.060657 S    
O37   Cr5   1.956467 S    
O36   Cr8   2.069081 S    
O31   C15   1.279742 A    
O16   C8    1.261771 A    
Cr9   O49   1.980939 S    
O32   C16   1.274911 A    
C40   N8    1.440974 S    
O38   Cr6   1.940099 S    
N1    O54   1.301345 A    
