data_mof_unit_51418.cif
_audit_creation_date              2012-12-11T16:47:56-0500
_audit_creation_method            fapswitch 2.2
_symmetry_space_group_name_H-M    P1
_symmetry_Int_Tables_number       1
_space_group_crystal_system       triclinic
_cell_length_a                    26.199637
_cell_length_b                    7.164787
_cell_length_c                    23.960406
_cell_angle_alpha                 89.999871
_cell_angle_beta                  101.77555
_cell_angle_gamma                 89.999716
_cell_volume                      4403.06672205

loop_
_atom_site_label
_atom_site_type_symbol
_atom_type_description
_atom_site_fract_x
_atom_site_fract_y
_atom_site_fract_z
_atom_type_partial_charge
O1    O     O_R   0.797620 0.601060 0.203310 -0.504080
O2    O     O_R   0.202380 0.398940 0.796690 -0.503426
O3    O     O_R   0.702380 0.101060 0.296690 -0.504080
O4    O     O_R   0.297620 0.898940 0.703310 -0.503426
O5    O     O_R   0.692070 0.267810 0.186600 -0.532567
O6    O     O_R   0.307930 0.732190 0.813400 -0.534282
O7    O     O_R   0.807930 0.767810 0.313400 -0.532569
O8    O     O_R   0.192070 0.232190 0.686600 -0.534283
C1    C     C_R   0.673731 0.439598 0.171496 0.692073
C2    C     C_R   0.326187 0.560364 0.828613 0.700472
C3    C     C_R   0.826269 0.939597 0.328504 0.692074
C4    C     C_R   0.173813 0.060365 0.671387 0.700472
O9    O     O_R   0.796590 0.271120 0.196480 -0.544562
O10   O     O_R   0.203410 0.728880 0.803520 -0.545767
O11   O     O_R   0.703410 0.771120 0.303520 -0.544562
O12   O     O_R   0.296590 0.228880 0.696480 -0.545767
O13   O     O_R   0.807640 0.104280 0.306650 -0.535587
O14   O     O_R   0.192360 0.895720 0.693350 -0.534073
O15   O     O_R   0.692360 0.604280 0.193350 -0.535587
O16   O     O_R   0.307640 0.395720 0.806650 -0.534074
C5    C     C_R   0.812734 0.440557 0.184628 0.702534
C6    C     C_R   0.188029 0.559318 0.816209 0.701943
C7    C     C_R   0.687266 0.940558 0.315372 0.702535
C8    C     C_R   0.311971 0.059317 0.683791 0.701945
O17   O     O_3   0.753500 0.435660 0.286130 -0.363589
O18   O     O_3   0.246500 0.564340 0.713870 -0.367975
O19   O     O_3   0.746500 0.935660 0.213870 -0.363589
O20   O     O_3   0.253500 0.064340 0.786130 -0.367975
V1    V     V_3+5 0.749350 0.159470 0.243300 1.482193
V2    V     V_3+5 0.250650 0.840530 0.756700 1.472421
V3    V     V_3+5 0.750650 0.659470 0.256700 1.482192
V4    V     V_3+5 0.249350 0.340530 0.743300 1.472420
C9    C     C_R   0.361246 0.872582 0.621197 0.469757
C10   C     C_R   0.625855 0.126424 0.364402 0.475599
C11   C     C_R   0.138755 0.372583 0.878803 0.469756
C12   C     C_R   0.874145 0.626424 0.135598 0.475600
C13   C     C_R   0.398643 0.863574 0.586834 -0.223282
C14   C     C_R   0.590801 0.133940 0.401564 -0.225732
C15   C     C_R   0.101357 0.363574 0.913166 -0.223283
C16   C     C_R   0.909199 0.633939 0.098436 -0.225733
H1    H     H_    0.409146 0.727669 0.572939 0.117461
H2    H     H_    0.574858 0.267860 0.410272 0.117754
H3    H     H_    0.090854 0.227670 0.927061 0.117461
H4    H     H_    0.925141 0.767859 0.089727 0.117755
C17   C     C_R   0.422601 0.025373 0.571283 0.032623
C18   C     C_R   0.575323 0.971535 0.426146 0.029179
C19   C     C_R   0.077399 0.525374 0.928717 0.032623
C20   C     C_R   0.924676 0.471534 0.073853 0.029179
C21   C     C_R   0.409027 0.198123 0.592164 -0.146707
C22   C     C_R   0.596391 0.799685 0.413956 -0.145504
C23   C     C_R   0.090972 0.698123 0.907835 -0.146707
C24   C     C_R   0.903609 0.299685 0.086044 -0.145505
C25   C     C_R   0.373293 0.208003 0.628345 -0.239075
C26   C     C_R   0.632888 0.791043 0.378650 -0.236417
C27   C     C_R   0.126707 0.708003 0.871654 -0.239075
C28   C     C_R   0.867112 0.291043 0.121350 -0.236418
C29   C     C_R   0.349095 0.046259 0.643938 -0.150087
C30   C     C_R   0.648505 0.953301 0.353419 -0.151637
C31   C     C_R   0.150905 0.546260 0.856062 -0.150087
C32   C     C_R   0.851495 0.453300 0.146581 -0.151638
C33   C     C_R   0.504497 0.135548 0.540891 -0.153954
C34   C     C_R   0.494611 0.858763 0.457078 -0.157873
C35   C     C_R   0.995502 0.635548 0.959109 -0.153954
C36   C     C_R   0.005389 0.358764 0.042922 -0.157873
C37   C     C_R   0.541330 0.121719 0.506162 -0.154948
C38   C     C_R   0.457339 0.874167 0.491206 -0.157596
C39   C     C_R   0.958669 0.621718 0.993837 -0.154949
C40   C     C_R   0.042661 0.374168 0.008795 -0.157597
C41   C     C_R   0.536875 0.982908 0.463965 0.107049
C42   C     C_R   0.461802 0.012287 0.533872 0.109369
C43   C     C_R   0.963125 0.482908 0.036034 0.107048
C44   C     C_R   0.038197 0.512288 0.966128 0.109369
C45   C     C_3   0.959011 0.969992 0.522802 0.423792
C46   C     C_3   0.041526 0.029712 0.476488 0.424604
C47   C     C_3   0.540987 0.469960 0.977198 0.423792
C48   C     C_3   0.458476 0.529745 0.023512 0.424603
C49   C     C_3   0.993355 0.145974 0.531550 0.415744
C50   C     C_3   0.007173 0.853723 0.467735 0.415757
C51   C     C_3   0.506647 0.645952 0.968442 0.415746
C52   C     C_3   0.492825 0.353745 0.032273 0.415759
C53   C     C_1   0.128113 0.051239 0.625387 -0.180561
C54   C     C_1   0.872168 0.948619 0.374239 -0.183117
C55   C     C_1   0.371887 0.551235 0.874613 -0.180559
C56   C     C_1   0.627832 0.448623 0.125761 -0.183116
C57   C     C_3   0.007826 0.842262 0.532511 -0.430657
C58   C     C_3   0.992703 0.157439 0.466775 -0.432343
C59   C     C_3   0.492169 0.342245 0.967497 -0.430654
C60   C     C_3   0.507301 0.657455 0.033217 -0.432339
C61   C     C_3   0.042515 0.021231 0.541163 -0.059252
C62   C     C_3   0.958016 0.978475 0.458130 -0.058904
C63   C     C_3   0.457484 0.521225 0.958837 -0.059251
C64   C     C_3   0.541985 0.478481 0.041870 -0.058903
C65   C     C_1   0.089643 0.040433 0.587276 0.077586
C66   C     C_1   0.910787 0.959336 0.412154 0.077340
C67   C     C_1   0.410357 0.540426 0.912724 0.077597
C68   C     C_1   0.589213 0.459342 0.087846 0.077351
O21   O     O_3   0.338996 0.708313 0.634845 -0.552866
C69   C     C_3   0.298233 0.659232 0.589071 -0.233901
H5    H     H_    0.313425 0.624832 0.550194 0.119102
H6    H     H_    0.268331 0.771658 0.579765 0.123406
H7    H     H_    0.278652 0.532589 0.601139 0.168196
O22   O     O_3   0.639897 0.291311 0.341611 -0.549983
C70   C     C_3   0.600165 0.342108 0.294974 -0.245345
H8    H     H_    0.563556 0.379008 0.309122 0.122420
H9    H     H_    0.592746 0.229752 0.262176 0.125811
H10   H     H_    0.613033 0.467661 0.274505 0.152699
O23   O     O_3   0.161004 0.208313 0.865155 -0.552866
C71   C     C_3   0.201767 0.159230 0.910929 -0.233900
H11   H     H_    0.186576 0.124830 0.949807 0.119102
H12   H     H_    0.231669 0.271655 0.920235 0.123404
H13   H     H_    0.221349 0.032587 0.898861 0.168196
O24   O     O_3   0.860102 0.791311 0.158389 -0.549982
C72   C     C_3   0.899834 0.842106 0.205026 -0.245351
H14   H     H_    0.936443 0.879008 0.190877 0.122420
H15   H     H_    0.907254 0.729749 0.237824 0.125808
H16   H     H_    0.886966 0.967659 0.225494 0.152700
H17   H     H_    0.425903 0.326633 0.580518 0.120497
H18   H     H_    0.585364 0.672071 0.432668 0.124370
H19   H     H_    0.074096 0.826634 0.919482 0.120497
H20   H     H_    0.914636 0.172071 0.067332 0.124370
H21   H     H_    0.365016 0.343058 0.644569 0.193244
H22   H     H_    0.649104 0.656572 0.371402 0.196415
H23   H     H_    0.134983 0.843059 0.855431 0.193243
H24   H     H_    0.850896 0.156572 0.128598 0.196416
H25   H     H_    0.510048 0.241275 0.573831 0.113112
H26   H     H_    0.489724 0.752297 0.424326 0.109755
H27   H     H_    0.989951 0.741275 0.926168 0.113112
H28   H     H_    0.010277 0.252298 0.075675 0.109755
H29   H     H_    0.573799 0.218347 0.512801 0.117117
H30   H     H_    0.424558 0.779101 0.483413 0.106614
H31   H     H_    0.926200 0.718345 0.987198 0.117118
H32   H     H_    0.075443 0.279103 0.016588 0.106614
O25   O     O_3   0.988218 0.297160 0.567718 -0.558676
C73   C     C_3   0.942839 0.398862 0.544335 -0.234323
H33   H     H_    0.907621 0.308477 0.534892 0.170016
H34   H     H_    0.947655 0.475007 0.505333 0.170579
H35   H     H_    0.936154 0.503943 0.575999 0.167414
O26   O     O_3   0.012300 0.702551 0.431557 -0.560418
C74   C     C_3   0.057694 0.600887 0.454913 -0.247800
H36   H     H_    0.052906 0.524740 0.493925 0.172708
H37   H     H_    0.092909 0.691295 0.464332 0.166897
H38   H     H_    0.064366 0.495812 0.423241 0.166135
O27   O     O_3   0.511785 0.797113 0.932265 -0.558671
C75   C     C_3   0.557165 0.898816 0.955642 -0.234317
H39   H     H_    0.592383 0.808425 0.965091 0.170004
H40   H     H_    0.552349 0.974990 0.994640 0.170561
H41   H     H_    0.563851 0.003873 0.923972 0.167415
O28   O     O_3   0.487697 0.202598 0.068459 -0.560414
C76   C     C_3   0.442302 0.100933 0.045109 -0.247795
H42   H     H_    0.447089 0.024757 0.006101 0.172690
H43   H     H_    0.407088 0.191347 0.035685 0.166884
H44   H     H_    0.435629 0.995882 0.076787 0.166134
O29   O     O_3   0.913169 0.938617 0.543770 -0.550103
C77   C     C_3   0.925534 0.929557 0.603755 -0.233764
H45   H     H_    0.940840 0.064943 0.622680 0.175335
H46   H     H_    0.953679 0.815637 0.619138 0.131526
H47   H     H_    0.889330 0.898850 0.619259 0.159261
O30   O     O_3   0.087359 0.061077 0.455503 -0.551971
C78   C     C_3   0.074974 0.070138 0.395516 -0.255419
H48   H     H_    0.046841 0.184102 0.380143 0.131172
H49   H     H_    0.059640 0.934781 0.376591 0.173993
H50   H     H_    0.111174 0.100771 0.379994 0.155335
O31   O     O_3   0.586828 0.438546 0.956230 -0.550104
C79   C     C_3   0.574462 0.429483 0.896245 -0.233767
H51   H     H_    0.559177 0.564895 0.877319 0.175342
H52   H     H_    0.546300 0.315614 0.880861 0.131530
H53   H     H_    0.610663 0.398695 0.880742 0.159255
O32   O     O_3   0.412645 0.561148 0.044497 -0.551972
C80   C     C_3   0.425030 0.570212 0.104484 -0.255421
H54   H     H_    0.453180 0.684126 0.119858 0.131177
H55   H     H_    0.440343 0.434829 0.123410 0.174000
H56   H     H_    0.388834 0.600926 0.120004 0.155329
H57   H     H_    0.985807 0.283723 0.439504 0.174312
H58   H     H_    0.014721 0.715964 0.559776 0.175442
H59   H     H_    0.514200 0.783754 0.060481 0.174311
H60   H     H_    0.485272 0.215933 0.940239 0.175440

loop_
_geom_bond_atom_site_label_1
_geom_bond_atom_site_label_2
_ccdc_geom_bond_type
C33   C42   A    
O17   V3    S    
C7    C30   S    
O1    C5    A    
C12   O24   S    
C54   C66   T    
C13   C17   A    
C27   C31   A    
O19   V1    S    
O13   V1    S    
C80   H54   S    
O3    C7    A    
O31   C79   S    
C64   C68   S    
O15   V3    S    
C73   H35   S    
O21   C69   S    
C38   C42   A    
C50   C62   S    
O7    C3    A    
C59   H60   S    
C49   C61   S    
C10   O22   S    
C60   H59   S    
C36   C40   A    
C46   C61   S    
O2    V4    S    
C79   H51   S    
C45   C62   S    
C14   H2    S    
C52   C59   S    
C59   C63   S    
C76   H43   S    
O16   V4    S    
O4    C8    A    
C74   H38   S    
C37   C41   A    
O27   C75   S    
C2    C55   S    
O1    V3    S    
C71   H11   S    
C11   C31   A    
C56   C68   T    
C36   C43   A    
O3    V1    S    
C51   C60   S    
C18   C41   S    
C1    O15   A    
C21   H17   S    
C60   C64   S    
C2    O16   A    
C8    C29   S    
C36   H28   S    
O2    C6    A    
C23   H19   S    
O23   C71   S    
C78   H49   S    
O14   V2    S    
C19   C23   A    
C48   C60   S    
C77   H46   S    
C40   C44   A    
C72   H16   S    
O11   C7    A    
C26   H22   S    
O12   C8    A    
C22   H18   S    
C61   C65   S    
C80   H55   S    
C49   O25   S    
O10   V2    S    
C75   H41   S    
C50   O26   S    
O24   C72   S    
C62   C66   S    
O5    V1    S    
C3    C54   S    
C27   H23   S    
O7    V3    S    
C34   C38   A    
O8    V4    S    
C12   C16   A    
O28   C76   S    
C5    C32   S    
C75   H40   S    
C58   C62   S    
C76   H44   S    
C6    C31   S    
C34   H26   S    
C57   C61   S    
O18   V4    S    
C15   H3    S    
C1    C56   S    
C23   C27   A    
C9    C13   A    
C28   C32   A    
C34   C41   A    
C40   H32   S    
C52   C64   S    
C52   O28   S    
C11   C15   A    
C35   C39   A    
O5    C1    A    
C51   O27   S    
C53   C65   T    
C37   H29   S    
C78   H48   S    
C17   C21   A    
O8    C4    A    
C55   C67   T    
C57   H58   S    
C78   H50   S    
O9    C5    A    
C70   H9    S    
C22   C26   A    
C46   C58   S    
C46   O30   S    
C45   C57   S    
C77   H45   S    
C47   C64   S    
C77   H47   S    
C24   H20   S    
C50   C57   S    
C47   C59   S    
O32   C80   S    
O6    V2    S    
C49   C58   S    
C69   H6    S    
O25   C73   S    
C80   H56   S    
C20   C43   S    
C4    O14   A    
C28   H24   S    
C15   C19   A    
C72   H14   S    
C26   C30   A    
O9    V1    S    
C16   C20   A    
C3    O13   A    
C9    C29   A    
C17   C42   S    
C10   C14   A    
C51   C63   S    
C79   H53   S    
C39   H31   S    
C48   C52   S    
C75   H39   S    
C12   C32   A    
C25   C29   A    
O6    C2    A    
C73   H34   S    
C74   H36   S    
O11   V3    S    
C73   H33   S    
O12   V4    S    
C69   H7    S    
C18   C22   A    
C71   H13   S    
C58   H57   S    
O10   C6    A    
C79   H52   S    
C25   H21   S    
C76   H42   S    
C74   H37   S    
O30   C78   S    
C47   O31   S    
C21   C25   A    
O20   V2    S    
C71   H12   S    
C4    C53   S    
C48   O32   S    
C70   H10   S    
C39   C43   A    
C13   H1    S    
O22   C70   S    
O4    V2    S    
C19   C44   S    
C14   C18   A    
C11   O23   S    
O26   C74   S    
C48   C63   S    
C63   C67   S    
C33   C37   A    
C16   H4    S    
C35   C44   A    
C69   H5    S    
C46   C50   S    
C45   O29   S    
C70   H8    S    
C10   C30   A    
C45   C49   S    
C33   H25   S    
C9    O21   S    
C38   H30   S    
O29   C77   S    
C20   C24   A    
C47   C51   S    
C35   H27   S    
C24   C28   A    
C72   H15   S    
