data_mof_unit_20692.cif
_audit_creation_date              2012-10-26T17:11:26-0400
_audit_creation_method            fapswitch 2.2
_symmetry_space_group_name_H-M    P1
_symmetry_Int_Tables_number       1
_space_group_crystal_system       triclinic
_cell_length_a                    27.955238
_cell_length_b                    19.319316
_cell_length_c                    17.016144
_cell_angle_alpha                 90.068683
_cell_angle_beta                  62.557429
_cell_angle_gamma                 89.959724
_cell_volume                      8155.87568779

loop_
_atom_site_label
_atom_site_type_symbol
_atom_type_description
_atom_site_fract_x
_atom_site_fract_y
_atom_site_fract_z
_atom_type_partial_charge
C1    C     C_R   0.297542 0.732338 0.329525 0.804544
C2    C     C_R   0.599045 0.000266 0.508230 0.067939
C3    C     C_R   0.687982 0.716856 0.898963 0.097509
C4    C     C_R   0.927204 0.902784 0.066424 0.809046
C5    C     C_R   0.072713 0.097080 0.933102 0.808366
C6    C     C_R   0.073565 0.903550 0.933140 0.805984
C7    C     C_R   0.927893 0.098004 0.066557 0.808289
C8    C     C_R   0.427963 0.401866 0.065868 0.809022
C9    C     C_R   0.572415 0.597474 0.933265 0.809627
C10   C     C_R   0.572841 0.402924 0.933395 0.805763
C11   C     C_R   0.427755 0.597879 0.066638 0.809352
C12   C     C_R   0.050445 0.625427 0.499124 0.027620
C13   C     C_R   0.901433 0.499862 0.490732 0.069591
C14   C     C_R   0.949139 0.374269 0.503901 0.026424
C15   C     C_R   0.950068 0.625478 0.500857 0.023722
C16   C     C_R   0.050560 0.374275 0.499057 0.029315
C17   C     C_R   0.551628 0.125811 0.494465 0.024687
C18   C     C_R   0.450165 0.874700 0.500188 0.027162
C19   C     C_R   0.450169 0.125774 0.499501 0.027283
C20   C     C_R   0.552412 0.874744 0.492799 0.029148
C21   C     C_R   0.025425 0.689577 0.500103 0.175751
C22   C     C_R   0.974282 0.310174 0.502819 0.171892
C23   C     C_R   0.975405 0.689583 0.498708 0.172873
C24   C     C_R   0.098548 0.499934 0.510790 0.069806
C25   C     C_R   0.025332 0.310151 0.500857 0.177444
C26   C     C_R   0.526191 0.189895 0.496853 0.173903
C27   C     C_R   0.475820 0.810677 0.497343 0.173293
C28   C     C_R   0.475562 0.189875 0.496920 0.174432
C29   C     C_R   0.527192 0.810663 0.494288 0.176017
C30   C     C_R   0.975611 0.562733 0.498484 -0.016694
C31   C     C_R   0.024390 0.436959 0.503228 -0.020428
C32   C     C_R   0.024465 0.562748 0.502764 -0.017699
C33   C     C_R   0.975286 0.436945 0.499527 -0.018694
C34   C     C_R   0.476359 0.063090 0.495299 -0.018304
C35   C     C_R   0.604748 0.877759 0.482653 -0.215488
C36   C     C_R   0.525872 0.937371 0.497913 -0.020106
C37   C     C_R   0.525624 0.063120 0.498294 -0.018096
C38   C     C_R   0.476453 0.937342 0.495356 -0.018841
C39   C     C_R   0.451699 0.000179 0.492623 0.015974
C40   C     C_R   0.550254 0.000258 0.501406 0.015938
C41   C     C_R   0.950916 0.499834 0.495677 0.015443
C42   C     C_R   0.048945 0.499887 0.506240 0.015202
C43   C     C_R   0.376141 0.937040 0.491015 0.001069
C44   C     C_R   0.624930 0.063298 0.505855 0.002343
C45   C     C_R   0.625258 0.937240 0.505139 0.000746
C46   C     C_R   0.397598 0.122918 0.511101 -0.216725
C47   C     C_R   0.376105 0.063142 0.491049 0.002817
C48   C     C_R   0.875107 0.436836 0.495042 0.003260
C49   C     C_R   0.124774 0.562986 0.506676 0.002939
C50   C     C_R   0.124880 0.436956 0.506367 0.001690
C51   C     C_R   0.875485 0.563072 0.493775 0.002751
C52   C     C_R   0.328727 0.935845 0.478889 -0.142203
C53   C     C_R   0.671685 0.064263 0.519671 -0.150593
C54   C     C_R   0.671790 0.935989 0.519543 -0.143024
C55   C     C_R   0.328680 0.064150 0.479124 -0.152054
C56   C     C_R   0.825443 0.435949 0.489551 -0.150256
C57   C     C_R   0.397590 0.877477 0.511569 -0.217018
C58   C     C_R   0.174424 0.564072 0.512244 -0.148969
C59   C     C_R   0.174387 0.435979 0.512245 -0.149662
C60   C     C_R   0.825531 0.564142 0.489150 -0.149025
C61   C     C_R   0.307072 0.999992 0.466645 0.042272
C62   C     C_R   0.692999 0.000108 0.532795 0.039788
C63   C     C_R   0.799275 0.500113 0.491578 0.043029
C64   C     C_R   0.200237 0.500041 0.511918 0.041213
C65   C     C_3   0.553262 0.743072 0.499810 -0.897864
C66   C     C_3   0.451233 0.257163 0.485619 -0.894823
C67   C     C_3   0.449725 0.743331 0.491135 -0.895456
C68   C     C_R   0.603763 0.123065 0.485044 -0.214371
C69   C     C_3   0.551137 0.256983 0.507194 -0.885156
C70   C     C_3   0.050968 0.242463 0.507475 -0.898046
C71   C     C_3   0.950332 0.756657 0.488216 -0.885465
C72   C     C_3   0.947610 0.242712 0.498565 -0.889593
C73   C     C_3   0.049854 0.757055 0.510601 -0.897635
C74   C     C_3   0.259930 0.000740 0.442696 -0.262724
C75   C     C_3   0.204011 0.005402 0.525912 -0.714202
C76   C     C_3   0.739842 0.000606 0.557670 -0.261198
C77   C     C_3   0.796083 0.004063 0.474949 -0.715131
C78   C     C_3   0.741222 0.499884 0.502751 -0.251393
C79   C     C_R   0.103129 0.377121 0.487385 -0.213659
C80   C     C_3   0.740709 0.496517 0.412125 -0.710281
C81   C     C_3   0.256938 0.499516 0.507685 -0.232064
C82   C     C_3   0.253216 0.495194 0.601279 -0.718854
C83   C     C_3   0.321530 0.723157 0.806301 -0.397326
C84   C     C_3   0.300180 0.654889 0.784441 -0.806637
C85   C     C_3   0.692331 0.279190 0.188620 -0.401634
C86   C     C_3   0.681327 0.211306 0.241075 -0.782099
C87   C     C_3   0.690576 0.701696 0.185524 -0.405788
C88   C     C_3   0.722375 0.643156 0.202091 -0.808309
C89   C     C_3   0.309232 0.283199 0.814589 -0.411035
C90   C     C_R   0.898094 0.623186 0.510301 -0.217194
C91   C     C_3   0.325353 0.215450 0.761716 -0.786534
C92   C     C_3   0.816531 0.216651 0.808900 -0.404992
C93   C     C_3   0.787993 0.155921 0.788813 -0.810123
C94   C     C_3   0.188320 0.765332 0.189008 -0.409921
C95   C     C_3   0.178501 0.695586 0.236025 -0.773451
C96   C     C_3   0.200012 0.192630 0.181523 -0.401741
C97   C     C_3   0.238449 0.141852 0.193274 -0.803531
C98   C     C_3   0.812160 0.763629 0.808050 -0.409756
C99   C     C_3   0.821514 0.694485 0.759720 -0.784839
C100  C     C_3   0.092737 0.828242 0.766654 -0.306988
C101  C     C_R   0.896916 0.376918 0.513871 -0.215677
C102  C     C_3   0.105240 0.891683 0.704157 -0.696416
C103  C     C_3   0.911360 0.175141 0.237708 -0.352455
C104  C     C_3   0.927259 0.243750 0.264815 -0.801265
C105  C     C_3   0.906615 0.830766 0.235752 -0.302890
C106  C     C_3   0.892944 0.895096 0.297477 -0.702441
C107  C     C_3   0.091767 0.169577 0.759304 -0.343443
C108  C     C_3   0.074281 0.237221 0.733412 -0.795894
C109  C     C_3   0.595603 0.335281 0.760958 -0.288911
C110  C     C_3   0.610986 0.400298 0.699977 -0.695336
C111  C     C_3   0.410736 0.674603 0.237892 -0.349840
C112  C     C_R   0.705763 0.274029 0.668725 0.809102
C113  C     C_R   0.102698 0.622789 0.488526 -0.219204
C114  C     C_3   0.427609 0.743284 0.262718 -0.813163
C115  C     C_3   0.403680 0.338210 0.241423 -0.283558
C116  C     C_3   0.386908 0.403702 0.301719 -0.703902
C117  C     C_3   0.590966 0.670956 0.759745 -0.343639
C118  C     C_3   0.574556 0.738516 0.731398 -0.791590
C119  C     C_R   0.231041 0.773987 0.940544 0.055135
C120  C     C_R   0.783878 0.243154 0.049910 0.066755
C121  C     C_R   0.772984 0.768589 0.055513 0.064720
C122  C     C_R   0.220164 0.236424 0.949695 0.076719
C123  C     C_R   0.732510 0.281004 0.940584 0.062599
C124  C     C_R   0.282071 0.740774 0.050961 0.066490
C125  C     C_R   0.271250 0.275866 0.058420 0.071029
C126  C     C_R   0.720010 0.735516 0.947874 0.070441
C127  C     C_R   0.285785 0.746615 0.902398 0.181310
C128  C     C_R   0.702674 0.731914 0.670543 0.807981
C129  C     C_R   0.730187 0.271164 0.089143 0.171863
C130  C     C_R   0.720975 0.734324 0.093240 0.180725
C131  C     C_R   0.270749 0.272587 0.912862 0.173276
C132  C     C_R   0.784247 0.245088 0.903225 0.181653
C133  C     C_R   0.226382 0.760501 0.089832 0.173622
C134  C     C_R   0.224982 0.230401 0.092307 0.177333
C135  C     C_R   0.775023 0.757913 0.907555 0.173927
C136  C     C_R   0.310210 0.736670 0.958011 -0.253968
C137  C     C_R   0.709247 0.295114 0.033309 -0.253001
C138  C     C_R   0.694534 0.726251 0.040460 -0.260330
C139  C     C_R   0.293692 0.275158 0.331702 0.808372
C140  C     C_R   0.289391 0.299597 0.970547 -0.262346
C141  C     C_R   0.809742 0.234033 0.957093 -0.254674
C142  C     C_R   0.203276 0.776823 0.034098 -0.255611
C143  C     C_R   0.197937 0.219427 0.040693 -0.260569
C144  C     C_R   0.798763 0.775838 0.961995 -0.253287
C145  C     C_R   0.152058 0.839611 0.932770 -0.242621
C146  C     C_R   0.854289 0.169444 0.066425 -0.253254
C147  C     C_R   0.851969 0.834682 0.063870 -0.243182
C148  C     C_R   0.147904 0.164864 0.932619 -0.248298
C149  C     C_R   0.648701 0.336354 0.934855 -0.240107
C150  C     C_R   0.797746 0.232567 0.329463 0.815251
C151  C     C_R   0.353516 0.668606 0.066616 -0.252249
C152  C     C_R   0.356015 0.327650 0.061564 -0.241488
C153  C     C_R   0.647144 0.666106 0.932716 -0.252421
C154  C     C_R   0.118459 0.853097 0.892331 -0.090684
C155  C     C_R   0.886716 0.152929 0.107332 -0.108136
C156  C     C_R   0.883252 0.851294 0.106955 -0.094462
C157  C     C_R   0.114987 0.149991 0.891879 -0.104460
C158  C     C_R   0.617561 0.352778 0.891660 -0.098064
C159  C     C_R   0.386132 0.652386 0.107479 -0.110128
C160  C     C_R   0.384469 0.350086 0.107039 -0.100960
C161  C     C_R   0.204666 0.771820 0.669516 0.818895
C162  C     C_R   0.614285 0.651023 0.892119 -0.106433
C163  C     C_R   0.131128 0.823268 0.808897 0.084999
C164  C     C_R   0.875154 0.184051 0.190704 0.130375
C165  C     C_R   0.869121 0.823920 0.192004 0.087406
C166  C     C_R   0.126792 0.180398 0.808326 0.130951
C167  C     C_R   0.632326 0.326603 0.806028 0.083100
C168  C     C_R   0.374571 0.683381 0.190949 0.129999
C169  C     C_R   0.367806 0.327647 0.194872 0.085100
C170  C     C_R   0.626102 0.681702 0.808561 0.127587
C171  C     C_R   0.181662 0.790403 0.763296 -0.103519
C172  C     C_R   0.202958 0.231368 0.670541 0.814000
C173  C     C_R   0.827055 0.223674 0.232196 -0.094679
C174  C     C_R   0.818025 0.792147 0.237195 -0.104755
C175  C     C_R   0.174855 0.220068 0.767415 -0.100685
C176  C     C_R   0.683797 0.295570 0.761082 -0.101480
C177  C     C_R   0.326255 0.722829 0.232569 -0.089295
C178  C     C_R   0.315893 0.297445 0.239681 -0.103936
C179  C     C_R   0.674218 0.721422 0.767503 -0.098281
C180  C     C_R   0.214457 0.780112 0.803894 -0.260720
C181  C     C_R   0.804662 0.251281 0.180967 -0.234894
C182  C     C_R   0.785472 0.783343 0.195597 -0.255123
C183  C     C_R   0.794841 0.772889 0.330753 0.817590
C184  C     C_R   0.198508 0.245645 0.818270 -0.246941
C185  C     C_R   0.717717 0.290487 0.801112 -0.257234
C186  C     C_R   0.302582 0.749192 0.182190 -0.243320
C187  C     C_R   0.282562 0.293220 0.198689 -0.243438
C188  C     C_R   0.697747 0.747221 0.818330 -0.239779
C189  C     C_R   0.199768 0.631426 0.516564 0.822828
C190  C     C_R   0.800124 0.368618 0.484095 0.801326
C191  C     C_R   0.800152 0.631425 0.483946 0.822971
C192  C     C_R   0.199721 0.368567 0.516644 0.802644
C193  C     C_R   0.698888 0.131490 0.519426 0.825721
C194  C     C_R   0.402404 0.000112 0.487360 0.068219
C195  C     C_R   0.301244 0.868555 0.480130 0.808697
C196  C     C_R   0.301221 0.131469 0.480261 0.822560
C197  C     C_R   0.698898 0.868585 0.519440 0.809845
C198  C     C_R   0.199212 0.797516 0.891788 0.097508
C199  C     C_R   0.814667 0.221798 0.099744 0.094789
C200  C     C_R   0.803882 0.794414 0.105200 0.098556
C201  C     C_R   0.188692 0.215929 0.899530 0.096981
C202  C     C_R   0.699700 0.302387 0.891585 0.103232
C203  C     C_R   0.312945 0.719856 0.100917 0.097725
C204  C     C_R   0.303336 0.298487 0.106794 0.100587
Cu1   Cu    Cu3+1 0.209920 0.785290 0.495070 0.884879
Cu2   Cu    Cu3+1 0.504760 0.500000 0.075850 0.896411
Cu3   Cu    Cu3+1 0.995240 0.000000 0.924150 0.896456
Cu4   Cu    Cu3+1 0.004760 1.000000 0.075850 0.896590
Cu5   Cu    Cu3+1 0.790080 0.214710 0.504930 0.886485
Cu6   Cu    Cu3+1 0.790080 0.785290 0.504930 0.885959
Cu7   Cu    Cu3+1 0.209920 0.214710 0.495070 0.886902
Cu8   Cu    Cu3+1 0.709920 0.285290 0.495070 0.885304
Cu9   Cu    Cu3+1 0.290080 0.714710 0.504930 0.891978
Cu10  Cu    Cu3+1 0.290080 0.285290 0.504930 0.890090
Cu11  Cu    Cu3+1 0.709920 0.714710 0.495070 0.888169
Cu12  Cu    Cu3+1 0.495240 0.500000 0.924150 0.896860
H1    H     H_    0.630431 0.835489 0.446721 0.192004
H2    H     H_    0.851307 0.216727 0.925103 0.132985
H3    H     H_    0.830275 0.259003 0.759218 0.174384
H4    H     H_    0.856278 0.194554 0.797428 0.190780
H5    H     H_    0.158312 0.659110 0.208674 0.244602
H6    H     H_    0.216818 0.671683 0.228272 0.256101
H7    H     H_    0.150810 0.703976 0.308523 0.230487
H8    H     H_    0.200297 0.806244 0.221634 0.181862
H9    H     H_    0.147768 0.784180 0.201392 0.188106
H10   H     H_    0.243119 0.094337 0.153542 0.238543
H11   H     H_    0.279184 0.163680 0.172238 0.259572
H12   H     H_    0.221216 0.126899 0.264230 0.239337
H13   H     H_    0.840301 0.792957 0.927292 0.129581
H14   H     H_    0.179944 0.228793 0.237721 0.178116
H15   H     H_    0.165363 0.160032 0.188953 0.189412
H16   H     H_    0.845127 0.659371 0.780898 0.246199
H17   H     H_    0.783373 0.668642 0.772282 0.257776
H18   H     H_    0.845366 0.703948 0.687449 0.230547
H19   H     H_    0.799759 0.805261 0.777145 0.181752
H20   H     H_    0.853102 0.781856 0.794249 0.188917
H21   H     H_    0.077307 0.935809 0.733870 0.235410
H22   H     H_    0.146591 0.911254 0.683660 0.239405
H23   H     H_    0.101898 0.876987 0.643652 0.209573
H24   H     H_    0.158458 0.196298 0.073809 0.129810
H25   H     H_    0.094620 0.779763 0.730327 0.183099
H26   H     H_    0.049678 0.827132 0.816249 0.186591
H27   H     H_    0.961162 0.267387 0.205932 0.233394
H28   H     H_    0.893901 0.282047 0.292614 0.257310
H29   H     H_    0.941222 0.232777 0.315034 0.231868
H30   H     H_    0.892351 0.138820 0.294604 0.211680
H31   H     H_    0.951350 0.152729 0.198870 0.226502
H32   H     H_    0.916704 0.941767 0.265212 0.240832
H33   H     H_    0.849892 0.910149 0.323502 0.242168
H34   H     H_    0.900976 0.883612 0.354115 0.205638
H35   H     H_    0.673380 0.325960 0.066788 0.124458
H36   H     H_    0.905177 0.782889 0.272591 0.184264
H37   H     H_    0.949853 0.829883 0.187298 0.186810
H38   H     H_    0.035917 0.255380 0.789218 0.228580
H39   H     H_    0.104200 0.279254 0.716511 0.255057
H40   H     H_    0.066863 0.226648 0.675849 0.235786
H41   H     H_    0.112548 0.133401 0.702476 0.205076
H42   H     H_    0.052450 0.144759 0.792494 0.225971
H43   H     H_    0.583066 0.444496 0.730222 0.232463
H44   H     H_    0.652061 0.418666 0.683868 0.222582
H45   H     H_    0.610369 0.388258 0.636428 0.213450
H46   H     H_    0.352588 0.723717 0.927308 0.135661
H47   H     H_    0.595744 0.287842 0.724136 0.180725
H48   H     H_    0.552049 0.334533 0.807690 0.182250
H49   H     H_    0.459853 0.767155 0.202168 0.235440
H50   H     H_    0.394324 0.780865 0.294083 0.259485
H51   H     H_    0.444440 0.732461 0.309186 0.231551
H52   H     H_    0.391712 0.638950 0.295540 0.209388
H53   H     H_    0.450503 0.651318 0.200249 0.226966
H54   H     H_    0.408860 0.451157 0.267299 0.239236
H55   H     H_    0.343241 0.415425 0.326908 0.225694
H56   H     H_    0.394612 0.395881 0.359600 0.207334
H57   H     H_    0.319571 0.340117 0.943549 0.128905
H58   H     H_    0.404030 0.291336 0.278388 0.182907
H59   H     H_    0.447355 0.337934 0.196081 0.183613
H60   H     H_    0.534416 0.755554 0.783501 0.225355
H61   H     H_    0.603391 0.781318 0.719501 0.249954
H62   H     H_    0.571215 0.728427 0.669922 0.238441
H63   H     H_    0.611465 0.634215 0.703485 0.203132
H64   H     H_    0.551451 0.646891 0.794596 0.225197
H65   H     H_    0.652657 0.710840 0.073385 0.132905
H66   H     H_    0.142361 0.865181 0.994850 0.150994
H67   H     H_    0.860212 0.140350 0.008275 0.158027
H68   H     H_    0.864666 0.858256 0.999602 0.151956
H69   H     H_    0.372697 0.165682 0.547152 0.193805
H70   H     H_    0.141455 0.134760 0.990008 0.154321
H71   H     H_    0.631422 0.353739 0.002124 0.151111
H72   H     H_    0.360054 0.640417 0.007489 0.159645
H73   H     H_    0.376299 0.334717 0.990622 0.148053
H74   H     H_    0.640838 0.636816 0.990836 0.157976
H75   H     H_    0.253085 0.760510 0.762467 0.192023
H76   H     H_    0.778439 0.294440 0.207823 0.162447
H77   H     H_    0.745140 0.769204 0.237204 0.183982
H78   H     H_    0.225749 0.287432 0.790624 0.167769
H79   H     H_    0.758346 0.278097 0.758015 0.182504
H80   H     H_    0.372601 0.834848 0.547410 0.194708
H81   H     H_    0.275318 0.791400 0.209413 0.157459
H82   H     H_    0.240654 0.284974 0.240380 0.166220
H83   H     H_    0.724671 0.789755 0.791896 0.157966
H84   H     H_    0.522963 0.703464 0.538880 0.236111
H85   H     H_    0.579554 0.723221 0.432170 0.225419
H86   H     H_    0.577656 0.750044 0.535292 0.237344
H87   H     H_    0.482942 0.294399 0.443663 0.235403
H88   H     H_    0.426956 0.248926 0.449862 0.242363
H89   H     H_    0.425473 0.280717 0.551366 0.223009
H90   H     H_    0.479591 0.702021 0.456390 0.236120
H91   H     H_    0.628601 0.166107 0.450642 0.192418
H92   H     H_    0.420814 0.725618 0.558481 0.225890
H93   H     H_    0.427910 0.750442 0.451338 0.239747
H94   H     H_    0.521865 0.300233 0.532977 0.235583
H95   H     H_    0.566423 0.250198 0.556584 0.238792
H96   H     H_    0.584937 0.272398 0.442683 0.221494
H97   H     H_    0.020057 0.204945 0.551699 0.234161
H98   H     H_    0.074493 0.219662 0.440129 0.224041
H99   H     H_    0.078052 0.249924 0.538287 0.239369
H100  H     H_    0.978908 0.800566 0.465237 0.235497
H101  H     H_    0.936620 0.750080 0.436798 0.238931
H102  H     H_    0.128448 0.335000 0.450159 0.189375
H103  H     H_    0.915381 0.770975 0.552083 0.220318
H104  H     H_    0.976851 0.199452 0.468807 0.235569
H105  H     H_    0.916467 0.228027 0.566454 0.222892
H106  H     H_    0.927984 0.248785 0.454967 0.237145
H107  H     H_    0.018136 0.794077 0.553304 0.235279
H108  H     H_    0.074744 0.749361 0.545434 0.242624
H109  H     H_    0.075063 0.780294 0.444484 0.224588
H110  H     H_    0.207060 0.026023 0.584747 0.233404
H111  H     H_    0.176462 0.040182 0.513456 0.214795
H112  H     H_    0.184108 0.954443 0.543494 0.234347
H113  H     H_    0.873871 0.666694 0.544104 0.192522
H114  H     H_    0.265267 0.041295 0.393832 0.178595
H115  H     H_    0.261129 0.958861 0.397901 0.181458
H116  H     H_    0.792777 0.015451 0.413284 0.230110
H117  H     H_    0.821461 0.045032 0.482306 0.223523
H118  H     H_    0.818356 0.954892 0.465269 0.229954
H119  H     H_    0.734707 0.041474 0.606231 0.179136
H120  H     H_    0.737806 0.958931 0.603112 0.180567
H121  H     H_    0.752124 0.546497 0.376308 0.241627
H122  H     H_    0.770019 0.457808 0.367110 0.237445
H123  H     H_    0.699960 0.482052 0.421324 0.204473
H124  H     H_    0.871889 0.334183 0.549108 0.192248
H125  H     H_    0.715738 0.460474 0.549725 0.173717
H126  H     H_    0.714236 0.539811 0.547459 0.179480
H127  H     H_    0.238044 0.544384 0.638258 0.239644
H128  H     H_    0.224852 0.453761 0.641873 0.237284
H129  H     H_    0.293424 0.483523 0.596610 0.206508
H130  H     H_    0.284531 0.461689 0.460498 0.168350
H131  H     H_    0.286348 0.537955 0.464323 0.175803
H132  H     H_    0.311166 0.608769 0.813066 0.238584
H133  H     H_    0.254869 0.654899 0.811821 0.249509
H134  H     H_    0.319087 0.648241 0.711202 0.236558
H135  H     H_    0.127462 0.665440 0.452844 0.191533
H136  H     H_    0.329014 0.766998 0.758867 0.175173
H137  H     H_    0.364157 0.710062 0.792568 0.189064
H138  H     H_    0.648597 0.181725 0.235993 0.240194
H139  H     H_    0.717373 0.177188 0.217380 0.256673
H140  H     H_    0.667717 0.223910 0.311982 0.236130
H141  H     H_    0.705266 0.322064 0.217541 0.176507
H142  H     H_    0.651733 0.298057 0.200962 0.187794
H143  H     H_    0.720496 0.594764 0.167777 0.240018
H144  H     H_    0.765823 0.655954 0.177484 0.257038
H145  H     H_    0.704094 0.632513 0.274537 0.238909
H146  H     H_    0.160734 0.789427 0.066027 0.134468
H147  H     H_    0.674393 0.741630 0.238361 0.175663
H148  H     H_    0.652532 0.676156 0.194799 0.191888
H149  H     H_    0.350801 0.183628 0.782880 0.244813
H150  H     H_    0.290090 0.184040 0.770628 0.256986
H151  H     H_    0.349531 0.227692 0.690038 0.233017
H152  H     H_    0.295226 0.323840 0.784477 0.179208
H153  H     H_    0.348102 0.305638 0.805904 0.191934
H154  H     H_    0.793750 0.107148 0.818468 0.238603
H155  H     H_    0.743703 0.164356 0.816184 0.257786
H156  H     H_    0.805917 0.148555 0.715841 0.240553
O1    O     O_R   0.255040 0.869590 0.478480 -0.591950
O2    O     O_R   0.817950 0.203450 0.375560 -0.582370
O3    O     O_R   0.817950 0.796550 0.375560 -0.583564
O4    O     O_R   0.182050 0.203450 0.624440 -0.580563
O5    O     O_R   0.682050 0.296550 0.624440 -0.587227
O6    O     O_R   0.317950 0.703450 0.375560 -0.588183
O7    O     O_R   0.317950 0.296550 0.375560 -0.588748
O8    O     O_R   0.682050 0.703450 0.624440 -0.585660
O9    O     O_R   0.250530 0.763330 0.367210 -0.595302
O10   O     O_R   0.749470 0.236670 0.632790 -0.600939
O11   O     O_R   0.749470 0.763330 0.632790 -0.595905
O12   O     O_R   0.744960 0.130410 0.521520 -0.580533
O13   O     O_R   0.250530 0.236670 0.367210 -0.596488
O14   O     O_R   0.750530 0.263330 0.367210 -0.593686
O15   O     O_R   0.249470 0.736670 0.632790 -0.599068
O16   O     O_R   0.249470 0.263330 0.632790 -0.591109
O17   O     O_R   0.750530 0.736670 0.367210 -0.597302
O18   O     O_R   0.177260 0.690030 0.513710 -0.605407
O19   O     O_R   0.822740 0.309970 0.486290 -0.606960
O20   O     O_R   0.822740 0.690030 0.486290 -0.603032
O21   O     O_R   0.177260 0.309970 0.513710 -0.607341
O22   O     O_R   0.677260 0.190030 0.513710 -0.605204
O23   O     O_R   0.744960 0.869590 0.521520 -0.590224
O24   O     O_R   0.322740 0.809970 0.486290 -0.606879
O25   O     O_R   0.322740 0.190030 0.486290 -0.604810
O26   O     O_R   0.677260 0.809970 0.513710 -0.607025
O27   O     O_R   0.051640 0.926880 0.885090 -0.586633
O28   O     O_R   0.948360 0.073120 0.114910 -0.614792
O29   O     O_R   0.948360 0.926880 0.114910 -0.588278
O30   O     O_R   0.051640 0.073120 0.885090 -0.615845
O31   O     O_R   0.551640 0.426880 0.885090 -0.589116
O32   O     O_R   0.448360 0.573120 0.114910 -0.616029
O33   O     O_R   0.448360 0.426880 0.114910 -0.590962
O34   O     O_R   0.255040 0.130410 0.478480 -0.579888
O35   O     O_R   0.551640 0.573120 0.885090 -0.616388
O36   O     O_R   0.940620 0.926560 0.986760 -0.597643
O37   O     O_R   0.059380 0.073440 0.013240 -0.593399
O38   O     O_R   0.059380 0.926560 0.013240 -0.597848
O39   O     O_R   0.940620 0.073440 0.986760 -0.590004
O40   O     O_R   0.440620 0.426560 0.986760 -0.595135
O41   O     O_R   0.559380 0.573440 0.013240 -0.591361
O42   O     O_R   0.559380 0.426560 0.013240 -0.599164
O43   O     O_R   0.440620 0.573440 0.986760 -0.589266
O44   O     O_R   0.755040 0.369590 0.478480 -0.586567
O45   O     O_R   0.244960 0.630410 0.521520 -0.589799
O46   O     O_R   0.244960 0.369590 0.521520 -0.588427
O47   O     O_R   0.755040 0.630410 0.478480 -0.589969
O48   O     O_R   0.182050 0.796550 0.624440 -0.583749

loop_
_geom_bond_atom_site_label_1
_geom_bond_atom_site_label_2
_ccdc_geom_bond_type
C49   C113  A    
C31   C42   A    
C75   H111  S    
C68   H91   S    
C174  C182  A    
C105  H37   S    
C69   H94   S    
Cu7   O34   S    
C50   C79   A    
C14   C33   A    
C19   C46   A    
C11   C159  S    
C84   H134  S    
C16   C31   A    
C124  C133  A    
C107  H42   S    
C50   C59   A    
C87   C130  S    
C189  O18   A    
C52   C61   A    
C99   H17   S    
Cu6   O11   S    
C35   H1    S    
C24   C42   A    
C131  C140  A    
C74   H114  S    
C85   C129  S    
C134  C143  A    
C13   C51   A    
C188  H83   S    
C117  C170  S    
C9    O41   A    
C187  H82   S    
C172  C175  S    
C20   C29   A    
C97   H10   S    
C112  O5    A    
C125  C140  A    
C148  H70   S    
C58   C64   A    
C88   H145  S    
C149  H71   S    
C147  C200  A    
C70   H99   S    
C82   H128  S    
C4    O29   A    
C158  C167  A    
C73   H107  S    
C86   H138  S    
C66   H87   S    
C95   H6    S    
C144  H13   S    
C127  C136  A    
C74   C75   S    
C118  H62   S    
C113  H135  S    
C179  C188  A    
C67   H93   S    
C187  C204  A    
C103  H31   S    
C177  C186  A    
C120  C129  A    
C185  C202  A    
Cu7   O4    S    
C28   C66   S    
C110  H44   S    
C141  H2    S    
C153  H74   S    
C103  C164  S    
C164  C173  A    
C89   H152  S    
C91   H150  S    
C1    O9    A    
C43   C194  A    
C108  H39   S    
C182  H77   S    
C35   C45   A    
C100  H26   S    
C15   C30   A    
C93   H155  S    
C16   C25   A    
C61   C74   S    
Cu3   O30   S    
C112  O10   A    
C89   C131  S    
C10   O31   A    
C78   H126  S    
C18   C38   A    
C191  O47   A    
C147  H68   S    
C106  H34   S    
Cu10  O7    S    
C189  O45   A    
C48   C101  A    
C138  H65   S    
C151  H72   S    
C100  C163  S    
C180  C198  A    
C49   C58   A    
C2    C40   A    
C128  O11   A    
C129  C137  A    
C98   C99   S    
C150  O2    A    
C26   C69   S    
C70   H97   S    
C114  H51   S    
Cu5   Cu8   S    
C73   H109  S    
C125  C204  S    
Cu10  O46   S    
C123  C132  A    
C27   C29   A    
C119  C198  S    
C121  C130  A    
C90   H113  S    
C161  O15   A    
C118  H60   S    
Cu8   O22   S    
C85   C86   S    
C133  C142  A    
C6    O38   A    
C122  C201  S    
C92   C132  S    
C37   C40   A    
C192  O21   A    
C114  H50   S    
C51   C90   A    
C38   C39   A    
C78   C80   S    
C43   C52   A    
Cu6   Cu11  S    
C21   C73   S    
C120  C199  S    
C85   H141  S    
C94   H9    S    
C71   H103  S    
C183  O17   A    
C20   C35   A    
C72   H104  S    
C2    C44   A    
C22   C25   A    
C107  C108  S    
C181  H76   S    
Cu6   O23   S    
C77   H117  S    
C89   C91   S    
C116  H55   S    
C149  C158  A    
C10   C158  S    
Cu2   O41   S    
C55   C196  S    
C196  O25   A    
C94   H8    S    
C195  O24   A    
C121  C144  A    
C122  C143  A    
C193  O22   A    
C44   C53   A    
C22   C72   S    
C2    C45   A    
C24   C50   A    
C8    O40   A    
C56   C190  S    
C172  O4    A    
C124  C203  S    
C34   C39   A    
C81   H131  S    
C77   H116  S    
Cu7   O21   S    
C7    O39   A    
C83   H137  S    
C96   C134  S    
C65   H85   S    
C165  C174  A    
C98   C135  S    
C95   H7    S    
C151  C159  A    
C140  H57   S    
C92   H3    S    
C83   C84   S    
C76   H119  S    
C97   H12   S    
C11   O43   A    
C109  H48   S    
C19   C28   A    
C29   C65   S    
C145  C154  A    
C112  C176  S    
Cu3   O39   S    
C181  C199  A    
C122  C131  A    
C91   H151  S    
C132  C141  A    
C1    O6    A    
C102  H21   S    
C184  C201  A    
C108  H38   S    
Cu8   O5    S    
Cu5   O2    S    
C87   H148  S    
C105  H36   S    
C83   C127  S    
C197  O23   A    
C81   H130  S    
C25   C70   S    
C104  H27   S    
C123  C137  A    
C170  C179  A    
C107  H41   S    
C14   C22   A    
Cu4   O37   S    
C117  C118  S    
C71   H101  S    
C120  C141  A    
C55   C61   A    
C7    O28   A    
C186  C203  A    
C8    O33   A    
C148  C157  A    
C64   C81   S    
C27   C67   S    
C74   H115  S    
C43   C57   A    
Cu1   Cu9   S    
C161  C171  S    
C150  C173  S    
C51   C60   A    
C149  C202  A    
C139  O7    A    
Cu4   O28   S    
C98   H20   S    
C119  C127  A    
C125  C134  A    
C87   C88   S    
C34   C37   A    
C53   C193  S    
Cu2   O32   S    
C13   C41   A    
C3    C126  S    
C176  C185  A    
C86   H139  S    
C66   H88   S    
C166  C175  A    
C95   H5    S    
C54   C197  S    
C139  O13   A    
C117  H64   S    
C5    O37   A    
C83   H136  S    
C168  C177  A    
C72   H105  S    
C88   H143  S    
C192  O46   A    
C96   H15   S    
C9    O35   A    
C110  H45   S    
C5    O30   A    
C197  O26   A    
C146  C155  A    
C80   H121  S    
C190  O19   A    
C160  C169  A    
C185  H79   S    
C163  C171  A    
C71   H100  S    
C84   H133  S    
Cu9   O6    S    
C91   H149  S    
C173  C181  A    
C75   H112  S    
C108  H40   S    
C62   C76   S    
C59   C192  S    
C52   C195  S    
C69   H95   S    
C116  H54   S    
C99   H16   S    
Cu1   O1    S    
C93   H154  S    
Cu12  O35   S    
C190  O44   A    
C124  C136  A    
C136  H46   S    
Cu3   Cu4   S    
C23   C71   S    
C186  H81   S    
C182  C200  A    
C184  H78   S    
C99   H18   S    
C14   C101  A    
C54   C62   A    
C6    O27   A    
C79   H102  S    
C121  C200  S    
C172  O16   A    
C18   C57   A    
C162  C170  A    
C191  O20   A    
C102  H23   S    
C128  C179  S    
Cu9   O15   S    
C147  C156  A    
Cu10  O16   S    
C6    C154  S    
Cu6   O3    S    
C178  C187  A    
Cu8   O14   S    
C4    C156  S    
C126  C135  A    
C5    C157  S    
C21   C23   A    
C101  H124  S    
Cu6   O20   S    
C65   H86   S    
C11   O32   A    
C70   H98   S    
C82   H127  S    
C8    C160  S    
C193  O12   A    
Cu9   O45   S    
C78   H125  S    
C73   H108  S    
C46   C47   A    
C17   C68   A    
C46   H69   S    
C143  H24   S    
Cu10  O25   S    
Cu3   O36   S    
C174  C183  S    
C118  H61   S    
C105  C106  S    
C10   O42   A    
C153  C162  A    
C16   C79   A    
C33   C41   A    
C36   C38   A    
C110  H43   S    
C57   H80   S    
C109  C110  S    
C195  O1    A    
C115  H58   S    
C156  C165  A    
C80   H123  S    
Cu12  O40   S    
C92   C93   S    
C105  C165  S    
C111  C114  S    
C94   C95   S    
C89   H153  S    
C20   C36   A    
C145  C198  A    
C7    C155  S    
C75   H110  S    
C103  C104  S    
C119  C142  A    
C32   C42   A    
C152  C204  A    
C111  C168  S    
C106  H32   S    
C116  H56   S    
Cu2   O42   S    
C100  H25   S    
C115  C116  S    
C175  C184  A    
C93   H156  S    
C152  C160  A    
C47   C194  A    
C152  H73   S    
C142  H146  S    
C115  C169  S    
C3    C188  A    
C161  O48   A    
Cu1   O48   S    
C81   C82   S    
C150  O14   A    
C59   C64   A    
C60   C63   A    
C17   C26   A    
C106  H33   S    
C111  H52   S    
Cu5   O19   S    
C66   H89   S    
C65   H84   S    
C3    C153  A    
C159  C168  A    
C146  C199  A    
C92   H4    S    
C109  C167  S    
C1    C177  S    
C98   H19   S    
C76   H120  S    
C31   C33   A    
C96   H14   S    
Cu5   O10   S    
C109  H47   S    
C15   C23   A    
C107  C166  S    
C183  O3    A    
C12   C32   A    
Cu9   O24   S    
C145  H66   S    
Cu4   O29   S    
C137  H35   S    
C148  C201  A    
C67   H92   S    
C72   H106  S    
Cu11  O8    S    
C39   C194  A    
C102  H22   S    
C103  H30   S    
Cu1   O18   S    
C180  H75   S    
C154  C163  A    
C36   C40   A    
C87   H147  S    
C76   C77   S    
C114  H49   S    
C84   H132  S    
C104  H28   S    
C12   C21   A    
C85   H142  S    
Cu4   O38   S    
C53   C62   A    
C96   C97   S    
Cu7   Cu10  S    
C58   C189  S    
C100  C102  S    
C56   C63   A    
C30   C41   A    
C17   C37   A    
C77   H118  S    
C82   H129  S    
C135  C144  A    
Cu12  O31   S    
C45   C54   A    
Cu11  O26   S    
C171  C180  A    
C44   C68   A    
C196  O34   A    
C169  C178  A    
C47   C55   A    
C12   C113  A    
Cu2   Cu12  S    
C24   C49   A    
C48   C56   A    
C126  C138  A    
C123  C202  S    
C97   H11   S    
C18   C27   A    
Cu2   O33   S    
C151  C203  A    
C19   C34   A    
C157  C166  A    
C13   C48   A    
Cu11  O47   S    
C155  C164  A    
C86   H140  S    
Cu11  O17   S    
C26   C28   A    
Cu8   O44   S    
C117  H63   S    
C139  C178  S    
C15   C90   A    
C30   C32   A    
C128  O8    A    
C94   C133  S    
C60   C191  S    
C88   H144  S    
Cu7   O13   S    
Cu5   O12   S    
C9    C162  S    
C4    O36   A    
Cu3   O27   S    
C115  H59   S    
Cu1   O9    S    
C80   H122  S    
C104  H29   S    
Cu12  O43   S    
C111  H53   S    
C69   H96   S    
C63   C78   S    
C146  H67   S    
C167  C176  A    
C67   H90   S    
C130  C138  A    
