data_mof_unit_46957.cif
_audit_creation_date              2012-12-10T17:38:15-0500
_audit_creation_method            fapswitch 2.2
_symmetry_space_group_name_H-M    P1
_symmetry_Int_Tables_number       1
_space_group_crystal_system       triclinic
_cell_length_a                    12.474911
_cell_length_b                    13.227497
_cell_length_c                    19.290745
_cell_angle_alpha                 73.164659
_cell_angle_beta                  101.174227
_cell_angle_gamma                 117.07977
_cell_volume                      2705.5894231

loop_
_atom_site_label
_atom_site_type_symbol
_atom_type_description
_atom_site_fract_x
_atom_site_fract_y
_atom_site_fract_z
_atom_type_partial_charge
C1    C     C_R   0.855465 0.285679 0.508088 0.845688
C2    C     C_R   0.994173 0.486972 0.710200 -0.128518
C3    C     C_R   0.968301 0.435795 0.078778 0.436155
C4    C     C_R   0.971021 0.440300 0.937624 0.424756
C5    C     C_R   0.028504 0.396967 0.211411 -0.252031
C6    C     C_R   0.034924 0.413947 0.280375 -0.209469
C7    C     C_R   0.990571 0.488212 0.291662 -0.129137
C8    C     C_R   0.936175 0.544479 0.231018 -0.062384
C9    C     C_R   0.926980 0.523401 0.162340 0.606322
C10   C     C_R   0.973502 0.450622 0.152173 -0.066468
C11   C     C_R   0.287623 0.054376 0.435236 0.125645
C12   C     C_R   0.999203 0.497560 0.632715 0.867099
C13   C     C_R   0.229821 0.843101 0.474674 -0.115618
C14   C     C_R   0.810606 0.076192 0.561147 -0.230016
C15   C     C_R   0.727085 0.960498 0.583943 0.112073
C16   C     C_R   0.602175 0.933979 0.573278 0.074957
C17   C     C_R   0.564085 0.010612 0.515719 0.049008
C18   C     C_R   0.653023 0.123438 0.486453 -0.023417
C19   C     C_R   0.441649 0.983617 0.487972 -0.032745
C20   C     C_R   0.409655 0.073988 0.446086 -0.027270
C21   C     C_R   0.500022 0.177835 0.410849 0.542606
C22   C     C_R   0.619628 0.198786 0.428337 -0.230679
C23   C     C_R   0.145271 0.715906 0.486623 0.775913
C24   C     C_R   0.352357 0.869335 0.495835 -0.249481
C25   C     C_R   0.196430 0.938009 0.443176 0.034645
C26   C     C_R   0.773376 0.159997 0.516377 -0.106744
C27   C     C_R   0.342787 0.327373 0.623180 -0.276508
C28   C     C_R   0.769619 0.660965 0.408995 0.762757
C29   C     C_R   0.704039 0.721861 0.409233 -0.342284
C30   C     C_R   0.611716 0.671748 0.455526 -0.238672
C31   C     C_R   0.571080 0.553968 0.492855 -0.081131
C32   C     C_R   0.656114 0.505594 0.503115 0.064802
C33   C     C_R   0.457120 0.487746 0.526538 -0.010641
C34   C     C_R   0.998867 0.499675 0.367187 0.774470
C35   C     C_R   0.446418 0.390273 0.584353 0.037969
C36   C     C_R   0.538583 0.354071 0.602666 -0.308221
C37   C     C_R   0.639063 0.406872 0.562365 0.599805
C38   C     C_R   0.349501 0.506360 0.502122 0.247591
C39   C     C_R   0.244474 0.354241 0.601323 0.045769
C40   C     C_R   0.085141 0.470969 0.761342 -0.206153
C41   C     C_R   0.076693 0.454755 0.835136 -0.224855
C42   C     C_R   0.976964 0.453891 0.859392 -0.064539
C43   C     C_R   0.885930 0.470538 0.807725 0.625676
C44   C     C_R   0.895015 0.487057 0.734083 -0.228681
Cu1   Cu    Cu3+1 0.098280 0.475420 0.516260 0.911040
Cu2   Cu    Cu3+1 0.901720 0.524580 0.483740 1.008664
H1    H     H_    0.162767 0.470464 0.744464 0.172402
H2    H     H_    0.380488 0.799812 0.512611 0.170029
H3    H     H_    0.904136 0.101143 0.581123 0.147115
H4    H     H_    0.686189 0.276160 0.396619 0.172404
H5    H     H_    0.164527 0.305667 0.631452 0.129710
H6    H     H_    0.531093 0.280272 0.647870 0.185215
H7    H     H_    0.336663 0.255424 0.669386 0.149491
H8    H     H_    0.148573 0.442937 0.873133 0.186925
H9    H     H_    0.581176 0.729126 0.466566 0.163843
H10   H     H_    0.729007 0.810123 0.377023 0.151839
H11   H     H_    0.823087 0.498368 0.695889 0.192024
H12   H     H_    0.064482 0.340039 0.204607 0.176539
H13   H     H_    0.073188 0.366806 0.325392 0.165135
N1    N     N_R   0.875655 0.440262 0.961405 -0.120559
N2    N     N_R   0.874366 0.438230 0.030452 -0.137007
N3    N     N_R   0.062243 0.431784 0.055922 -0.237697
N4    N     N_R   0.063504 0.433996 0.986582 -0.245776
N5    N     N_R   0.246290 0.438200 0.540910 -0.199107
N6    N     N_R   0.754310 0.561190 0.459520 -0.226151
O1    O     O_R   0.972510 0.318130 0.520450 -0.603901
O2    O     O_R   0.806530 0.359650 0.492990 -0.507226
O3    O     O_R   0.083010 0.479220 0.613590 -0.589855
O4    O     O_R   0.917030 0.520740 0.586130 -0.528740
O5    O     O_R   0.193470 0.640350 0.507010 -0.607101
O6    O     O_R   0.027490 0.681870 0.479550 -0.560648
O7    O     O_R   0.082970 0.479260 0.413870 -0.603626
O8    O     O_R   0.916990 0.520780 0.386410 -0.549425
F1    F     F_    0.473588 0.253354 0.353630 -0.700319
C45   C     C_3   0.253947 0.155704 0.423690 -0.349979
C46   C     C_3   0.192324 0.141557 0.489781 -0.445745
C47   C     C_3   0.110338 0.203807 0.469237 -0.805497
H14   H     H_    0.162120 0.297544 0.445312 0.268354
H15   H     H_    0.034966 0.164338 0.430084 0.235358
H16   H     H_    0.072565 0.194700 0.519029 0.256314
H17   H     H_    0.137505 0.048648 0.515001 0.222197
H18   H     H_    0.262691 0.177593 0.532092 0.235515
H19   H     H_    0.333052 0.241528 0.418718 0.239061
H20   H     H_    0.196888 0.162029 0.372128 0.210874
C48   C     C_3   0.520951 0.842518 0.633365 -0.421629
C49   C     C_3   0.455983 0.890898 0.666167 -0.326225
C50   C     C_3   0.374191 0.796097 0.724216 -0.820886
H21   H     H_    0.427682 0.760511 0.768719 0.262557
H22   H     H_    0.303374 0.724173 0.700054 0.254877
H23   H     H_    0.329439 0.833487 0.747412 0.245601
H24   H     H_    0.524268 0.963191 0.691049 0.228879
H25   H     H_    0.399423 0.926179 0.624530 0.232701
H26   H     H_    0.457541 0.761409 0.616065 0.194194
H27   H     H_    0.576236 0.813573 0.679954 0.203106
C51   C     C_3   0.773486 0.868472 0.621407 -0.414668
C52   C     C_3   0.858441 0.866508 0.574166 -0.371380
C53   C     C_3   0.887258 0.760823 0.604746 -0.795764
H28   H     H_    0.928362 0.760067 0.661278 0.256305
H29   H     H_    0.803768 0.678931 0.604089 0.257504
H30   H     H_    0.952145 0.764744 0.570865 0.243875
H31   H     H_    0.816059 0.863979 0.518073 0.229023
H32   H     H_    0.944407 0.946719 0.571382 0.213776
H33   H     H_    0.821961 0.886491 0.674334 0.206095
H34   H     H_    0.697537 0.780116 0.631675 0.208017
C54   C     C_3   0.344281 0.590923 0.429443 -0.357306
C55   C     C_3   0.351043 0.549469 0.364301 -0.354268
C56   C     C_3   0.345431 0.635370 0.292704 -0.811023
H35   H     H_    0.260704 0.646624 0.285651 0.252868
H36   H     H_    0.424017 0.721373 0.291534 0.253095
H37   H     H_    0.347705 0.601652 0.246821 0.255470
H38   H     H_    0.435430 0.538931 0.368606 0.240690
H39   H     H_    0.275035 0.463250 0.362991 0.218339
H40   H     H_    0.265850 0.608376 0.419954 0.248831
H41   H     H_    0.409593 0.681021 0.427973 0.149808
F2    F     F_    0.860307 0.709124 0.365376 -0.729046
F3    F     F_    0.719151 0.361217 0.588389 -0.659106
F4    F     F_    0.787775 0.471251 0.827658 -0.647424
C57   C     C_3   0.890515 0.630643 0.234870 -0.336845
C58   C     C_3   0.752972 0.571159 0.240879 -0.218430
C59   C     C_3   0.697978 0.659231 0.216574 -0.787878
H42   H     H_    0.706199 0.698610 0.157489 0.262832
H43   H     H_    0.600804 0.614373 0.227052 0.241329
H44   H     H_    0.743789 0.729881 0.246323 0.274085
H45   H     H_    0.708457 0.506783 0.206175 0.239544
H46   H     H_    0.732222 0.522944 0.297790 0.240222
H47   H     H_    0.939306 0.674031 0.279592 0.234463
H48   H     H_    0.913663 0.703172 0.185443 0.231045
F5    F     F_    0.876397 0.578456 0.104370 -0.659007
C60   C     C_3   0.073355 0.922686 0.404417 -0.383383
C61   C     C_3   0.075700 0.930828 0.323420 -0.268224
C62   C     C_3   0.978954 0.965614 0.276221 -0.802622
H49   H     H_    0.977837 0.961127 0.219483 0.243386
H50   H     H_    0.888380 0.906948 0.296121 0.276035
H51   H     H_    0.999165 0.056428 0.276498 0.233089
H52   H     H_    0.164505 0.997690 0.303189 0.214218
H53   H     H_    0.064479 0.846214 0.316438 0.234359
H54   H     H_    0.999196 0.843876 0.430348 0.250340
H55   H     H_    0.047136 0.989498 0.409203 0.194823

loop_
_geom_bond_atom_site_label_1
_geom_bond_atom_site_label_2
_ccdc_geom_bond_type
C40   H1    S    
C39   H5    S    
C12   O4    A    
C52   H32   S    
C41   C42   A    
C51   C52   S    
C18   C26   A    
C50   H21   S    
C62   H51   S    
C2    C12   S    
C53   H28   S    
C8    C57   S    
C7    C8    A    
C37   F3    S    
C55   H39   S    
C47   H14   S    
C59   H42   S    
C39   N5    A    
C12   O3    A    
C4    N4    A    
C29   C30   A    
C5    H12   S    
C54   H40   S    
C36   C37   A    
C49   H24   S    
C15   C51   S    
C5    C6    A    
C45   H20   S    
C3    N3    A    
C14   H3    S    
C55   C56   S    
C11   C25   A    
C15   C16   A    
C13   C23   S    
C57   C58   S    
Cu2   O4    S    
C17   C19   A    
C48   H26   S    
C2    C44   A    
C60   H55   S    
C19   C20   A    
C27   C39   A    
C8    C9    A    
C56   H35   S    
C31   C33   A    
C9    C10   A    
C36   H6    S    
C59   H44   S    
C22   H4    S    
C47   H15   S    
C25   C60   S    
C58   H45   S    
C52   H31   S    
Cu1   O7    S    
C56   H36   S    
C23   O5    A    
C13   C25   A    
C53   H29   S    
C51   H33   S    
C1    O1    A    
C38   N5    A    
C55   H38   S    
C3    N2    A    
C11   C20   A    
C1    C26   S    
C9    F5    S    
C24   H2    S    
C23   O6    A    
C54   H41   S    
C46   C47   S    
Cu2   N6    S    
C46   H18   S    
C49   C50   S    
C16   C17   A    
C27   C35   A    
C48   C49   S    
C21   F1    S    
C13   C24   A    
N1    N2    A    
C35   C36   A    
C45   C46   S    
N3    N4    A    
C28   F2    S    
C2    C40   A    
C48   H27   S    
C31   C32   A    
C44   H11   S    
C52   C53   S    
C4    N1    A    
Cu1   O3    S    
C17   C18   A    
C32   C37   A    
C14   C26   A    
Cu2   O6    S    
C43   F4    S    
C58   H46   S    
C40   C41   A    
C61   H52   S    
C50   H22   S    
C43   C44   A    
C16   C48   S    
C7    C34   S    
C57   H48   S    
C62   H49   S    
C34   O7    A    
C53   H30   S    
C51   H34   S    
C59   H43   S    
C60   C61   S    
C30   H9    S    
C47   H16   S    
C28   C29   A    
Cu1   O5    S    
C18   C22   A    
C19   C24   A    
C6    H13   S    
C61   H53   S    
C62   H50   S    
C46   H17   S    
C58   C59   S    
C27   H7    S    
C6    C7    A    
C1    O2    A    
C29   H10   S    
C54   C55   S    
Cu1   N5    S    
C33   C38   A    
C56   H37   S    
C38   C54   S    
C28   N6    A    
C5    C10   A    
C3    C10   S    
C49   H25   S    
C45   H19   S    
C30   C31   A    
C4    C42   S    
C33   C35   A    
C61   C62   S    
C41   H8    S    
C34   O8    A    
Cu1   Cu2   S    
Cu2   O2    S    
C60   H54   S    
C20   C21   A    
C42   C43   A    
C50   H23   S    
Cu1   O1    S    
C14   C15   A    
C11   C45   S    
C57   H47   S    
C21   C22   A    
Cu2   O8    S    
C32   N6    A    
