data_mof_unit_13284.cif
_audit_creation_date              2012-12-11T18:37:42-0500
_audit_creation_method            fapswitch 2.2
_symmetry_space_group_name_H-M    P1
_symmetry_Int_Tables_number       1
_space_group_crystal_system       triclinic
_cell_length_a                    8.223987
_cell_length_b                    14.292148
_cell_length_c                    27.020508
_cell_angle_alpha                 93.147352
_cell_angle_beta                  92.787655
_cell_angle_gamma                 88.41085
_cell_volume                      3166.40496169

loop_
_atom_site_label
_atom_site_type_symbol
_atom_type_description
_atom_site_fract_x
_atom_site_fract_y
_atom_site_fract_z
_atom_type_partial_charge
Ba1   Ba    Ba6+2 0.849670 0.455410 0.524690 1.641021
Ba2   Ba    Ba6+2 0.340150 0.544510 0.475310 1.648370
C1    C     C_3   0.668899 0.107286 0.664361 -0.364177
C2    C     C_R   0.977148 0.600996 0.180871 0.593587
C3    C     C_2   0.783406 0.576465 0.271620 -0.095323
C4    C     C_3   0.100617 0.252875 0.665926 0.335396
C5    C     C_3   0.759258 0.600292 0.326039 -0.069830
C6    C     C_1   0.981534 0.486441 0.344076 0.030290
C7    C     C_2   0.019571 0.478083 0.296599 -0.088238
C8    C     C_2   0.915137 0.524624 0.257316 0.212387
C9    C     C_R   0.031872 0.510766 0.103782 -0.080381
C10   C     C_R   0.019089 0.427971 0.129287 -0.035840
C11   C     C_R   0.042431 0.341516 0.103314 -0.056510
C12   C     C_3   0.636482 0.203462 0.643955 0.354214
C13   C     C_R   0.010207 0.597763 0.129897 -0.030021
C14   C     C_2   0.859244 0.539643 0.360388 -0.267894
C15   C     C_2   0.344337 0.471959 0.641236 -0.282260
C16   C     C_3   0.078340 0.225829 0.718788 -0.302534
C17   C     C_R   0.138192 0.414772 0.976039 0.020152
C18   C     C_R   0.099957 0.586258 0.974503 0.020242
C19   C     C_R   0.136462 0.498470 0.949766 0.050141
C20   C     C_R   0.184407 0.329961 0.950424 -0.101505
C21   C     C_R   0.222942 0.327115 0.900762 -0.060168
C22   C     C_R   0.216504 0.408489 0.873986 -0.024491
C23   C     C_3   0.534041 0.674034 0.622658 0.290805
C24   C     C_R   0.172363 0.494305 0.898246 -0.079872
C25   C     C_R   0.165283 0.575917 0.871089 -0.036252
C26   C     C_R   0.201049 0.570454 0.820054 0.597483
C27   C     C_R   0.254844 0.405255 0.823473 0.574500
C28   C     C_3   0.163487 0.257983 0.423883 0.312022
C29   C     C_2   0.421258 0.434183 0.729040 -0.085402
C30   C     C_3   0.437335 0.406963 0.674802 -0.046460
C31   C     C_1   0.212145 0.517110 0.656733 0.031613
C32   C     C_2   0.171375 0.520874 0.704218 -0.102230
C33   C     C_2   0.284259 0.480143 0.743907 0.198325
C34   C     C_3   0.531251 0.695700 0.678341 -0.355355
C35   C     C_R   0.095677 0.418466 0.026857 0.020182
C36   C     C_R   0.066792 0.506638 0.052197 0.050844
C37   C     C_R   0.072643 0.590755 0.026535 0.019230
C38   C     C_R   0.080041 0.336704 0.053451 -0.098453
C39   C     C_R   0.022777 0.680128 0.104638 -0.056149
C40   C     C_3   0.167170 0.152251 0.413506 -0.384070
C41   C     C_R   0.091355 0.666679 0.945967 -0.098771
C42   C     C_R   0.122901 0.661435 0.895580 -0.059606
C43   C     C_R   0.052536 0.676881 0.054236 -0.099618
C44   C     C_R   0.691331 0.065069 0.474443 -0.035560
C45   C     C_3   0.014418 0.771618 0.337057 0.317265
C46   C     C_R   0.511385 0.198638 0.502265 0.045505
C47   C     C_R   0.375785 0.230265 0.528111 -0.298165
C48   C     C_R   0.276955 0.167341 0.549215 0.016139
C49   C     C_R   0.322145 0.072768 0.549389 -0.144774
C50   C     C_R   0.463111 0.039884 0.525985 -0.007291
C51   C     C_R   0.556644 0.101925 0.500506 -0.028074
C52   C     C_3   0.032064 0.743131 0.576492 0.309637
C53   C     C_R   0.643315 0.908745 0.501398 -0.018575
C54   C     C_R   0.737623 0.969927 0.475739 0.002414
C55   C     C_R   0.687256 0.812644 0.500682 0.029967
C56   C     C_3   0.961060 0.831463 0.294067 -0.314059
C57   C     C_R   0.821524 0.778835 0.475057 -0.282060
C58   C     C_R   0.922892 0.839784 0.453731 0.010801
C59   C     C_R   0.879405 0.935198 0.452755 -0.144834
C60   C     C_R   0.507750 0.944988 0.526633 -0.042495
C61   C     C_3   0.035966 0.848771 0.587181 -0.379392
C62   C     C_3   0.661127 0.340330 0.380303 0.294636
C63   C     C_3   0.666442 0.317137 0.324784 -0.345575
C64   C     C_3   0.507028 0.787251 0.338129 0.360947
C65   C     C_3   0.457243 0.868476 0.305775 0.206883
C66   C     C_R   0.980974 0.433241 0.180061 0.596213
H1    H     H_    0.679137 0.201555 0.605491 0.074931
H2    H     H_    0.783922 0.359824 0.394911 0.006957
H3    H     H_    0.574926 0.400329 0.386507 0.091425
H4    H     H_    0.799856 0.087277 0.662728 0.149031
H5    H     H_    0.757863 0.260013 0.317468 0.133397
H6    H     H_    0.700147 0.379773 0.305497 0.079066
H7    H     H_    0.544865 0.294466 0.309750 0.136583
H8    H     H_    0.502542 0.216946 0.643164 -0.061141
H9    H     H_    0.597192 0.054217 0.641789 0.073589
H10   H     H_    0.409726 0.655529 0.608547 0.017228
H11   H     H_    0.619156 0.613494 0.615935 0.073259
H12   H     H_    0.254525 0.132595 0.384388 0.127403
H13   H     H_    0.442198 0.753721 0.686415 0.136250
H14   H     H_    0.495582 0.632807 0.697117 0.074422
H15   H     H_    0.654103 0.716436 0.693191 0.131838
H16   H     H_    0.632431 0.107742 0.703411 0.123238
H17   H     H_    0.071276 0.290127 0.743470 0.123485
H18   H     H_    0.066548 0.703760 0.322304 0.083291
H19   H     H_    0.903882 0.757991 0.357150 -0.073576
H20   H     H_    0.062853 0.838225 0.269127 0.136144
H21   H     H_    0.857549 0.798400 0.272492 0.160786
H22   H     H_    0.920653 0.902216 0.308397 0.108060
H23   H     H_    0.205072 0.116159 0.447596 0.064343
H24   H     H_    0.641664 0.782074 0.339077 -0.075304
H25   H     H_    0.467707 0.803845 0.376457 0.029752
H26   H     H_    0.512295 0.933566 0.322605 0.038284
H27   H     H_    0.323105 0.879940 0.304231 0.078187
H28   H     H_    0.026284 0.317609 0.659521 0.093600
H29   H     H_    0.129014 0.439294 0.286046 0.116437
H30   H     H_    0.031675 0.276483 0.121564 0.124840
H31   H     H_    0.508610 0.405463 0.755932 0.114856
H32   H     H_    0.258010 0.260005 0.883286 0.121968
H33   H     H_    0.195843 0.264138 0.967985 0.070125
H34   H     H_    0.043973 0.128667 0.400621 0.117766
H35   H     H_    0.092728 0.267088 0.036530 0.070372
H36   H     H_    0.705411 0.611098 0.244276 0.108178
H37   H     H_    0.008651 0.748245 0.123826 0.125077
H38   H     H_    0.057268 0.735177 0.961252 0.069840
H39   H     H_    0.231074 0.266787 0.661854 -0.052059
H40   H     H_    0.114377 0.725432 0.875790 0.121896
H41   H     H_    0.056284 0.553453 0.714554 0.124480
H42   H     H_    0.062492 0.743776 0.038296 0.071136
H43   H     H_    0.844480 0.553079 0.399851 0.081870
H44   H     H_    0.373032 0.468848 0.602394 0.080192
H45   H     H_    0.906240 0.722547 0.566459 -0.002617
H46   H     H_    0.340201 0.303766 0.528710 0.070719
H47   H     H_    0.245505 0.024847 0.566725 0.074432
H48   H     H_    0.956646 0.981884 0.434860 0.069515
H49   H     H_    0.853912 0.704883 0.474687 0.059627
H50   H     H_    0.762580 0.109204 0.453175 0.099966
H51   H     H_    0.963529 0.187902 0.721365 0.143641
H52   H     H_    0.434242 0.900068 0.546837 0.091873
H53   H     H_    0.181807 0.180120 0.731462 0.122695
H54   H     H_    0.288158 0.281286 0.433825 0.002762
H55   H     H_    0.083380 0.275168 0.455169 0.067319
H56   H     H_    0.111675 0.724123 0.545339 0.065987
H57   H     H_    0.437089 0.808646 0.239747 0.327471
H58   H     H_    0.950099 0.870259 0.616442 0.131539
H59   H     H_    0.000630 0.886127 0.553323 0.063389
H60   H     H_    0.160934 0.869388 0.599981 0.117494
N1    N     N_R   0.958980 0.519281 0.205341 -0.423419
N2    N     N_R   0.245270 0.485543 0.796488 -0.422080
O1    O     O_2   0.918080 0.549800 0.616640 -0.459734
O2    O     O_2   0.264041 0.834014 0.456560 -0.487255
O3    O     O_3   0.133651 0.818600 0.367186 -0.606082
O4    O     O_3   0.150070 0.549720 0.556460 -0.495779
O5    O     O_3   0.546340 0.387390 0.478340 -0.487994
O6    O     O_2   0.398940 0.728800 0.517420 -0.463792
O7    O     O_3   0.585056 0.753295 0.599893 -0.646894
O8    O     O_2   0.449531 0.521335 0.324237 -0.486416
O9    O     O_3   0.434356 0.704062 0.318677 -0.586396
O10   O     O_2   0.965431 0.361162 0.201503 -0.593069
O11   O     O_2   0.296601 0.330258 0.803525 -0.622723
O12   O     O_3   0.610595 0.261450 0.403323 -0.640177
O13   O     O_2   0.965759 0.676949 0.203604 -0.616689
O14   O     O_2   0.195601 0.641710 0.796964 -0.596074
O15   O     O_3   0.658250 0.379560 0.591530 -0.480949
O16   O     O_2   0.773544 0.453514 0.678641 -0.496217
O17   O     O_3   0.085550 0.699452 0.619440 -0.625620
O18   O     O_3   0.720342 0.271981 0.673965 -0.597895
O19   O     O_2   0.790750 0.271170 0.482550 -0.469205
O20   O     O_3   0.062300 0.331660 0.568480 -0.494120
O21   O     O_2   0.940252 0.165050 0.540826 -0.486904
O22   O     O_3   0.514145 0.852086 0.257906 -0.713756
O23   O     O_3   0.049605 0.179372 0.632788 -0.603109
O24   O     O_2   0.271610 0.450170 0.383330 -0.452197
O25   O     O_3   0.039630 0.450200 0.443530 -0.499855
O26   O     O_3   0.531440 0.620360 0.408460 -0.470041
O27   O     O_3   0.104948 0.300386 0.380942 -0.626815
O28   O     O_3   0.643350 0.612530 0.521650 -0.477052
O29   O     O_3   0.127390 0.668260 0.431510 -0.474723
P1    P     P_3+3 0.090020 0.577590 0.608380 0.990938
P2    P     P_3+3 0.614340 0.285150 0.467650 0.971196
P3    P     P_3+3 0.081761 0.210223 0.572395 0.941963
P4    P     P_3+3 0.099670 0.422330 0.391610 0.991121
P5    P     P_3+3 0.113259 0.790816 0.428685 0.959705
P6    P     P_3+3 0.649418 0.381955 0.655801 0.945389
P7    P     P_3+3 0.582437 0.728584 0.535712 0.937665
P8    P     P_3+3 0.542739 0.609322 0.343784 0.968793

loop_
_geom_bond_atom_site_label_1
_geom_bond_atom_site_label_2
_ccdc_geom_bond_type
C28   O27   S    
O4    P1    S    
C53   C54   A    
O3    P5    S    
C40   H12   S    
Ba2   O25   S    
C48   P3    S    
Ba1   O15   S    
C19   C24   A    
C2    O13   D    
O15   P6    S    
C10   C66   A    
C24   C25   A    
Ba2   O4    S    
C20   H33   S    
C39   H37   S    
C62   O12   S    
Ba1   O28   S    
C17   C19   A    
C22   C24   A    
Ba1   Ba2   S    
C35   C38   A    
C36   C37   A    
C55   C57   A    
C52   C61   S    
C34   H15   S    
C52   H45   S    
C12   O18   S    
C63   H5    S    
C44   H50   S    
C32   C33   S    
C62   H3    S    
C11   H30   S    
Ba1   O25   S    
C22   C27   A    
C11   C38   A    
C52   H56   S    
C17   C35   A    
C9    C13   A    
C25   C42   A    
C64   O9    S    
C28   H54   S    
C34   H14   S    
Ba2   O29   S    
C65   H26   S    
C7    H29   S    
C4    H39   S    
Ba1   O19   S    
C26   O14   D    
C62   H2    S    
C7    C8    S    
O27   P4    S    
C60   H52   S    
C61   H60   S    
C31   P1    S    
C37   C43   A    
C21   H32   S    
C3    H36   S    
Ba1   P2    S    
C57   C58   A    
C6    C14   D    
C30   P6    S    
C45   O3    S    
C65   H27   S    
O18   P6    S    
O5    P2    S    
O1    P1    D    
C15   C31   D    
O12   P2    S    
O20   P3    S    
O17   P1    S    
C40   H34   S    
O7    P7    S    
C31   C32   D    
C42   H40   S    
C46   C51   A    
C4    C16   S    
C16   H17   S    
C49   C50   A    
C4    O23   S    
C45   H18   S    
O24   P4    D    
C17   C20   A    
C13   C39   A    
C3    C5    S    
C18   C37   A    
C43   H42   S    
C6    C7    D    
C64   H24   S    
C55   P7    S    
C23   C34   S    
O26   P8    S    
O25   P4    S    
C49   H47   S    
C63   H6    S    
C23   H10   S    
C58   C59   A    
C41   H38   S    
C12   H8    S    
C9    C36   A    
C23   O7    S    
C41   C42   A    
O2    P5    D    
C35   C36   A    
H57   O22   S    
C27   N2    Am   
O29   P5    S    
C34   H13   S    
Ba2   O28   S    
O21   P3    D    
C27   O11   D    
C59   H48   S    
C48   C49   A    
Ba1   O20   S    
C54   C59   A    
C18   C19   A    
O9    P8    S    
C28   H55   S    
C56   H22   S    
C33   N2    S    
C1    C12   S    
C64   H25   S    
C53   C60   A    
C46   C47   A    
O16   P6    D    
C29   H31   S    
C53   C55   A    
C12   H1    S    
C29   C33   D    
C66   O10   D    
O19   P2    D    
C57   H49   S    
Ba1   O4    S    
C1    H9    S    
C15   H44   S    
C25   C26   A    
C18   C41   A    
C50   C51   A    
O28   P7    S    
C15   C30   S    
C5    P8    S    
C5    C14   S    
Ba2   O26   S    
C21   C22   A    
C65   O22   S    
C23   H11   S    
C29   C30   S    
C28   C40   S    
Ba1   O1    S    
C6    P4    S    
C56   H20   S    
Ba2   P4    S    
C9    C10   A    
C2    N1    Am   
C46   P2    S    
C4    H28   S    
Ba2   O5    S    
C63   H7    S    
O23   P3    S    
C62   C63   S    
C2    C13   A    
C1    H4    S    
C8    N1    S    
C3    C8    D    
C50   C60   A    
C45   C56   S    
C47   H46   S    
Ba1   P1    S    
O6    P7    D    
C44   C51   A    
C58   P5    S    
C64   C65   S    
C26   N2    Am   
C66   N1    Am   
C56   H21   S    
Ba2   O6    S    
C61   H58   S    
C16   H53   S    
C10   C11   A    
Ba2   O24   S    
C47   C48   A    
C44   C54   A    
C1    H16   S    
C32   H41   S    
C39   C43   A    
C20   C21   A    
O8    P8    D    
Ba1   O5    S    
C16   H51   S    
C61   H59   S    
C40   H23   S    
C14   H43   S    
C45   H19   S    
C52   O17   S    
C38   H35   S    
