data_mof_unit_42929.cif
_audit_creation_date              2012-12-10T20:36:41-0500
_audit_creation_method            fapswitch 2.2
_symmetry_space_group_name_H-M    P1
_symmetry_Int_Tables_number       1
_space_group_crystal_system       triclinic
_cell_length_a                    10.512378
_cell_length_b                    10.689811
_cell_length_c                    9.888419
_cell_angle_alpha                 89.243351
_cell_angle_beta                  90.607135
_cell_angle_gamma                 90.719026
_cell_volume                      1110.96953966

loop_
_atom_site_label
_atom_site_type_symbol
_atom_type_description
_atom_site_fract_x
_atom_site_fract_y
_atom_site_fract_z
_atom_type_partial_charge
C1    C     C_R   0.506886 0.259722 0.500408 0.920388
C2    C     C_R   0.547679 0.933527 0.619614 0.027005
C3    C     C_3   0.474830 0.921170 0.747690 -0.467415
C4    C     C_R   0.257236 0.500464 0.499816 0.866462
C5    C     C_3   0.475508 0.062596 0.749458 0.497621
C6    C     C_R   0.395103 0.459110 0.070595 0.165336
C7    C     C_R   0.599100 0.549643 0.072237 -0.095461
C8    C     C_R   0.599280 0.549287 0.928517 -0.095108
C9    C     C_R   0.394368 0.462163 0.927577 0.210862
C10   C     C_3   0.334941 0.336685 0.916887 -0.554494
C11   C     C_3   0.342562 0.327995 0.069828 -0.234933
C12   C     C_3   0.956842 0.497555 0.373268 -0.112034
C13   C     C_R   0.506434 0.739886 0.499248 0.917248
C14   C     C_R   0.742607 0.501885 0.500559 0.861051
C15   C     C_3   0.042641 0.508691 0.629706 -0.134309
C16   C     C_3   0.956851 0.403453 0.572586 -0.175280
C17   C     C_3   0.877566 0.503679 0.501537 0.017803
C18   C     C_3   0.960383 0.609139 0.558738 -0.192465
C19   C     C_3   0.042583 0.602843 0.430442 -0.158984
C20   C     C_2   0.214361 0.311913 0.132958 0.967789
C21   C     C_3   0.038594 0.396960 0.444389 -0.176731
C22   C     C_3   0.121994 0.502128 0.500945 0.016906
C23   C     C_R   0.548371 0.061398 0.620628 0.033547
C24   C     C_R   0.534157 0.128480 0.499538 -0.326731
C25   C     C_R   0.551830 0.065707 0.376331 0.662396
C26   C     C_R   0.550452 0.936098 0.376060 -0.286688
C27   C     C_R   0.533544 0.870660 0.498220 -0.199238
F1    F     F_    0.549619 0.108427 0.854781 -0.628858
F2    F     F_    0.560040 0.127253 0.255778 -0.639233
H1    H     H_    0.917245 0.322501 0.630489 0.159757
H2    H     H_    0.923448 0.695184 0.605298 0.144575
H3    H     H_    0.082238 0.683673 0.372407 0.150600
H4    H     H_    0.915774 0.495358 0.269521 0.155061
H5    H     H_    0.073217 0.308975 0.401120 0.191235
H6    H     H_    0.552709 0.888361 0.280154 0.202226
H7    H     H_    0.378167 0.879870 0.732465 0.159724
H8    H     H_    0.031156 0.363397 0.135401 0.334095
H9    H     H_    0.532092 0.877712 0.830590 0.233815
H10   H     H_    0.379231 0.103470 0.738612 0.043350
H11   H     H_    0.680116 0.588104 0.126495 0.144691
H12   H     H_    0.680544 0.587179 0.874944 0.148392
H13   H     H_    0.237456 0.341257 0.872344 0.209443
H14   H     H_    0.398592 0.271994 0.866517 0.262191
H15   H     H_    0.413087 0.258339 0.106392 0.247917
H16   H     H_    0.081373 0.513094 0.734482 0.163988
N1    N     N_R   0.499140 0.499140 0.142800 -0.115401
N2    N     N_R   0.499140 0.499180 0.857150 -0.101194
O1    O     O_R   0.500020 0.316790 0.614690 -0.613049
O2    O     O_R   0.115864 0.393340 0.098558 -0.820058
O3    O     O_R   0.500000 0.316760 0.385350 -0.550123
O4    O     O_R   0.313960 0.499990 0.614650 -0.632603
O5    O     O_R   0.313940 0.499950 0.385310 -0.614699
O6    O     O_R   0.500000 0.683240 0.614650 -0.618997
O7    O     O_R   0.499980 0.683210 0.385310 -0.628745
O8    O     O_R   0.686060 0.500050 0.614690 -0.622123
O9    O     O_R   0.686040 0.500010 0.385350 -0.631703
O10   O     O_2   0.195211 0.223181 0.209514 -0.642859
Zn1   Zn    Zn3+2 0.500010 0.500020 0.653130 0.964308
Zn2   Zn    Zn3+2 0.499990 0.499980 0.346870 0.989738

loop_
_geom_bond_atom_site_label_1
_geom_bond_atom_site_label_2
_ccdc_geom_bond_type
C12   C17   S    
C15   C18   S    
C14   O9    A    
C23   C24   A    
C1    O1    A    
O1    Zn1   S    
C16   C21   S    
C21   H5    S    
O5    Zn2   S    
N1    Zn2   S    
C10   H13   S    
C5    F1    S    
H8    O2    S    
C9    C10   S    
C13   O7    A    
C6    C11   S    
C5    C23   S    
O9    Zn2   S    
O6    Zn1   S    
C6    C9    A    
C14   O8    A    
C12   H4    S    
C8    N2    A    
C7    C8    A    
O4    Zn1   S    
C21   C22   S    
C24   C25   A    
N2    Zn1   S    
C14   C17   S    
C26   C27   A    
C2    C27   A    
C3    H7    S    
C4    O5    A    
C20   O2    S    
C19   H3    S    
C12   C19   S    
C25   C26   A    
C2    C3    S    
C13   O6    A    
O7    Zn2   S    
C5    H10   S    
C25   F2    S    
C11   C20   S    
C9    N2    A    
C10   C11   S    
O3    Zn2   S    
C4    O4    A    
C16   H1    S    
C15   C16   S    
C7    N1    A    
C26   H6    S    
C11   H15   S    
C19   C22   S    
C4    C22   S    
C8    H12   S    
C1    C24   S    
C17   C18   S    
C18   C19   S    
C1    O3    A    
O8    Zn1   S    
C2    C23   A    
C20   O10   D    
C15   H16   S    
C13   C27   S    
C18   H2    S    
C6    N1    A    
C10   H14   S    
C7    H11   S    
C12   C21   S    
C15   C22   S    
C3    H9    S    
C16   C17   S    
C3    C5    S    
