data_mof_unit_57335.cif
_audit_creation_date              2012-12-10T17:11:00-0500
_audit_creation_method            fapswitch 2.2
_symmetry_space_group_name_H-M    P1
_symmetry_Int_Tables_number       1
_space_group_crystal_system       triclinic
_cell_length_a                    11.64016
_cell_length_b                    13.080273
_cell_length_c                    13.390689
_cell_angle_alpha                 91.969175
_cell_angle_beta                  76.312442
_cell_angle_gamma                 100.035443
_cell_volume                      1950.5595881

loop_
_atom_site_label
_atom_site_type_symbol
_atom_type_description
_atom_site_fract_x
_atom_site_fract_y
_atom_site_fract_z
_atom_type_partial_charge
C1    C     C_R   0.523828 0.700960 0.496020 0.798849
C2    C     C_R   0.444781 0.482691 0.976894 0.072087
C3    C     C_R   0.470378 0.459068 0.870797 0.061611
C4    C     C_R   0.532240 0.476866 0.033818 0.049127
C5    C     C_R   0.626147 0.420297 0.991445 0.124299
C6    C     C_R   0.640634 0.383829 0.890965 -0.217572
C7    C     C_R   0.565968 0.405254 0.830545 -0.181056
C8    C     C_R   0.533039 0.526999 0.129769 0.027749
C9    C     C_R   0.687392 0.431162 0.151915 -0.228490
C10   C     C_R   0.395774 0.485528 0.809380 -0.108322
C11   C     C_R   0.469525 0.185305 0.503094 -0.090610
C12   C     C_R   0.435514 0.491409 0.696356 0.794704
C13   C     C_R   0.543110 0.814786 0.488139 -0.104599
C14   C     C_R   0.664292 0.984883 0.489360 -0.209260
C15   C     C_R   0.658406 0.877593 0.480815 0.085022
C16   C     C_R   0.443318 0.861596 0.488528 -0.283106
C17   C     C_R   0.452889 0.969058 0.490630 0.166279
C18   C     C_R   0.562695 0.031298 0.496650 0.067594
C19   C     C_R   0.569128 0.138875 0.510209 -0.061229
C20   C     C_R   0.362363 0.122171 0.492988 -0.217599
C21   C     C_R   0.353192 0.014787 0.489407 -0.202890
C22   C     C_R   0.942935 0.588459 0.601053 -0.332783
C23   C     C_R   0.478730 0.298928 0.501420 0.809110
C24   C     C_R   0.824570 0.581126 0.591438 0.095594
C25   C     C_R   0.858424 0.462827 0.453928 0.039871
C26   C     C_R   0.979424 0.467040 0.460167 0.017412
C27   C     C_R   0.021081 0.531223 0.535697 0.049800
C28   C     C_R   0.140357 0.537078 0.544298 0.006603
C29   C     C_R   0.177891 0.418345 0.407797 0.062407
C30   C     C_R   0.059507 0.409620 0.393968 -0.027402
C31   C     C_R   0.563894 0.503212 0.304042 0.780759
C32   C     C_R   0.704229 0.399783 0.050257 -0.200332
C33   C     C_R   0.599920 0.491949 0.192695 -0.073622
C34   C     C_R   0.285099 0.514042 0.857425 -0.185242
C35   C     C_R   0.250123 0.518239 0.964025 -0.150014
C36   C     C_R   0.329086 0.502938 0.023404 -0.175408
Cu1   Cu    Cu3+1 0.386470 0.492430 0.492410 0.930901
Cu2   Cu    Cu3+1 0.613530 0.507570 0.507590 0.939730
H1    H     H_    0.740627 0.405690 0.199507 0.146707
H2    H     H_    0.285009 0.155767 0.488423 0.162388
H3    H     H_    0.749148 0.033021 0.489549 0.122529
H4    H     H_    0.268626 0.967550 0.483975 0.135612
H5    H     H_    0.356821 0.814273 0.489078 0.159572
H6    H     H_    0.173356 0.586580 0.601527 0.123154
H7    H     H_    0.241623 0.375796 0.360109 0.130292
H8    H     H_    0.973035 0.638403 0.659359 0.134333
H9    H     H_    0.764716 0.625149 0.642341 0.121205
H10   H     H_    0.711254 0.339842 0.858298 0.168045
H11   H     H_    0.821999 0.414603 0.397837 0.104955
H12   H     H_    0.774192 0.354626 0.019290 0.139008
H13   H     H_    0.225103 0.532483 0.812591 0.148742
H14   H     H_    0.295874 0.500647 0.105598 0.126466
H15   H     H_    0.162145 0.535047 0.000817 0.138635
H16   H     H_    0.579889 0.373365 0.754101 0.218550
N1    N     N_R   0.215880 0.481050 0.481000 -0.195213
N2    N     N_R   0.784100 0.518950 0.519000 -0.173696
O1    O     O_R   0.419710 0.645650 0.494620 -0.582759
O2    O     O_R   0.611450 0.658430 0.507430 -0.603525
O3    O     O_R   0.357340 0.490460 0.641450 -0.578211
O4    O     O_R   0.549080 0.503250 0.654260 -0.583597
O5    O     O_R   0.388550 0.341570 0.492570 -0.590284
O6    O     O_R   0.580290 0.354350 0.505380 -0.568319
O7    O     O_R   0.450920 0.496750 0.345740 -0.588652
O8    O     O_R   0.642660 0.509540 0.358550 -0.593263
C37   C     C_3   0.773701 0.831121 0.464363 -0.355701
C38   C     C_3   0.893735 0.906998 0.436217 -0.399225
C39   C     C_3   0.999791 0.848619 0.410934 -0.843579
H17   H     H_    0.000366 0.801162 0.478000 0.255827
H18   H     H_    0.994634 0.797053 0.343902 0.255091
H19   H     H_    0.085033 0.905089 0.391732 0.237705
H20   H     H_    0.896482 0.954601 0.368195 0.223979
H21   H     H_    0.904189 0.958900 0.502131 0.222149
H22   H     H_    0.772354 0.789780 0.535830 0.210908
H23   H     H_    0.774246 0.774957 0.400039 0.216130
C40   C     C_3   0.017787 0.341727 0.309986 -0.444391
C41   C     C_3   0.111419 0.283780 0.241874 -0.354627
C42   C     C_3   0.059892 0.220632 0.159715 -0.828447
H24   H     H_    0.981106 0.162063 0.196072 0.245654
H25   H     H_    0.032266 0.272517 0.109082 0.251780
H26   H     H_    0.129233 0.179582 0.111863 0.246286
H27   H     H_    0.190867 0.340239 0.202764 0.215883
H28   H     H_    0.140107 0.229886 0.289877 0.214361
H29   H     H_    0.939552 0.282980 0.347003 0.192786
H30   H     H_    0.987682 0.391946 0.259356 0.197637
C43   C     C_3   0.485577 0.629011 0.158698 -0.385844
C44   C     C_3   0.535532 0.711858 0.073609 -0.349411
C45   C     C_3   0.497257 0.815734 0.108463 -0.842274
H31   H     H_    0.397824 0.807222 0.128283 0.255798
H32   H     H_    0.531927 0.844614 0.176571 0.253705
H33   H     H_    0.534046 0.873786 0.045387 0.245761
H34   H     H_    0.635215 0.722646 0.053206 0.220715
H35   H     H_    0.502954 0.687608 0.003575 0.233264
H36   H     H_    0.386712 0.618024 0.181665 0.194255
H37   H     H_    0.514820 0.662699 0.227813 0.193182
C46   C     C_2   0.678044 0.199732 0.536802 0.397690
H38   H     H_    0.763123 0.211122 0.480412 0.022739
O9    O     O_2   0.672996 0.235187 0.622931 -0.552432

loop_
_geom_bond_atom_site_label_1
_geom_bond_atom_site_label_2
_ccdc_geom_bond_type
C45   H31   S    
C35   H15   S    
C14   C18   A    
C46   H38   S    
C25   N2    A    
C4    C8    A    
C42   H24   S    
C11   C19   A    
C26   C27   A    
Cu1   Cu2   S    
C6    H10   S    
C8    C43   S    
C3    C7    A    
C44   H34   S    
C5    C6    A    
C20   H2    S    
C40   H30   S    
C15   C37   S    
C9    H1    S    
C37   H22   S    
C34   C35   A    
C9    C32   A    
Cu2   O2    S    
C12   O3    A    
C43   H36   S    
C23   O6    A    
C38   H21   S    
C35   C36   A    
C16   C17   A    
C31   C33   S    
C36   H14   S    
C5    C32   A    
C38   C39   S    
C9    C33   A    
Cu1   O7    S    
C28   N1    A    
Cu2   O8    S    
C42   H25   S    
C11   C20   A    
C39   H17   S    
C31   O7    A    
C41   C42   S    
C41   H28   S    
C44   C45   S    
C18   C19   A    
C29   N1    A    
C25   C26   A    
C43   C44   S    
C28   H6    S    
C17   C21   A    
C37   H23   S    
C29   H7    S    
C39   H18   S    
C12   O4    A    
C2    C4    A    
C40   C41   S    
C29   C30   A    
C1    O1    A    
C43   H37   S    
C38   H20   S    
C17   C18   A    
C34   H13   S    
C10   C34   A    
C16   H5    S    
C32   H12   S    
Cu1   O3    S    
C10   C12   S    
C14   H3    S    
Cu2   O4    S    
C22   H8    S    
C26   C30   A    
C22   C27   A    
C13   C15   A    
C22   C24   A    
C13   C16   A    
C1    C13   S    
C19   C46   S    
C42   H26   S    
C2    C36   A    
C24   H9    S    
C31   O8    A    
C4    C5    A    
C41   H27   S    
Cu1   O5    S    
C46   O9    D    
C6    C7    A    
C24   N2    A    
C39   H19   S    
C45   H32   S    
C2    C3    A    
C3    C10   A    
C44   H35   S    
C1    O2    A    
C30   C40   S    
C40   H29   S    
C11   C23   S    
C8    C33   A    
C25   H11   S    
C21   H4    S    
Cu1   N1    S    
C23   O5    A    
Cu2   N2    S    
C20   C21   A    
C37   C38   S    
C45   H33   S    
C27   C28   A    
C14   C15   A    
C7    H16   S    
Cu1   O1    S    
Cu2   O6    S    
