data_mof_unit_68280.cif
_audit_creation_date              2012-12-11T14:37:44-0500
_audit_creation_method            fapswitch 2.2
_symmetry_space_group_name_H-M    P1
_symmetry_Int_Tables_number       1
_space_group_crystal_system       triclinic
_cell_length_a                    14.61411
_cell_length_b                    16.222498
_cell_length_c                    7.030694
_cell_angle_alpha                 90.311689
_cell_angle_beta                  78.685646
_cell_angle_gamma                 89.824291
_cell_volume                      1634.38601606

loop_
_atom_site_label
_atom_site_type_symbol
_atom_type_description
_atom_site_fract_x
_atom_site_fract_y
_atom_site_fract_z
_atom_type_partial_charge
O1    O     O_R   0.337080 0.165770 0.524980 -0.545190
O2    O     O_R   0.662920 0.834230 0.475020 -0.539552
O3    O     O_R   0.662920 0.665770 0.475020 -0.545356
O4    O     O_R   0.337080 0.334230 0.524980 -0.543240
O5    O     O_R   0.348340 0.341430 0.191390 -0.533340
O6    O     O_R   0.651660 0.658570 0.808610 -0.534460
O7    O     O_R   0.651660 0.841430 0.808610 -0.534552
O8    O     O_R   0.348340 0.158570 0.191390 -0.531788
O9    O     O_R   0.165780 0.339950 0.082750 -0.531023
O10   O     O_R   0.834220 0.660050 0.917250 -0.531061
O11   O     O_R   0.834220 0.839950 0.917250 -0.531310
O12   O     O_R   0.165780 0.160050 0.082750 -0.530562
C1    C     C_R   0.368493 0.364279 0.354636 0.725949
C2    C     C_R   0.631511 0.635707 0.645356 0.722525
C3    C     C_R   0.630548 0.864013 0.646302 0.738438
C4    C     C_R   0.369508 0.135828 0.353846 0.726430
O13   O     O_3   0.191540 0.250000 0.407620 -0.347141
O14   O     O_3   0.808460 0.750000 0.592380 -0.348170
V1    V     V_3+5 0.262540 0.250000 0.108780 1.666900
V2    V     V_3+5 0.737460 0.750000 0.891220 1.666447
O15   O     O_R   0.154530 0.164290 0.756910 -0.511903
O16   O     O_R   0.845470 0.835710 0.243090 -0.509373
O17   O     O_R   0.845470 0.664290 0.243090 -0.510544
O18   O     O_R   0.154530 0.335710 0.756910 -0.510301
C5    C     C_R   0.128942 0.136357 0.937143 0.801378
C6    C     C_R   0.870362 0.864332 0.062683 0.809842
C7    C     C_R   0.869572 0.635167 0.063313 0.807449
C8    C     C_R   0.130806 0.365168 0.936467 0.808401
V3    V     V_3+5 0.240320 0.250000 0.616280 1.660460
V4    V     V_3+5 0.759680 0.750000 0.383720 1.665216
O19   O     O_3   0.311330 0.250000 0.867310 -0.377184
O20   O     O_3   0.688670 0.750000 0.132690 -0.377600
C9    C     C_3   0.080265 0.523069 0.052330 0.102045
C10   C     C_3   0.920713 0.477769 0.947009 0.101536
C11   C     C_3   0.918564 0.021737 0.948287 0.099227
C12   C     C_3   0.079551 0.980033 0.048053 0.090543
C13   C     C_3   0.039459 0.562581 0.887501 0.107462
C14   C     C_3   0.961435 0.438274 0.111969 0.106792
C15   C     C_3   0.957840 0.062026 0.115008 0.115892
C16   C     C_3   0.040391 0.939735 0.881563 0.112752
C17   C     C_3   0.940906 0.564884 0.019958 -0.323446
C18   C     C_3   0.060004 0.435898 0.979526 -0.323406
C19   C     C_3   0.056343 0.067015 0.980554 -0.317992
C20   C     C_3   0.941888 0.934593 0.016692 -0.318727
C21   C     C_3   0.981770 0.525567 0.182618 0.379473
C22   C     C_3   0.019228 0.475295 0.816758 0.379399
C23   C     C_3   0.016570 0.027016 0.817019 0.376971
C24   C     C_3   0.981802 0.974780 0.179934 0.378896
C25   C     C_2   0.445513 0.603040 0.542758 0.210790
C26   C     C_2   0.555143 0.400494 0.447791 0.215133
C27   C     C_2   0.580764 0.104486 0.488282 0.265143
C28   C     C_2   0.421536 0.920065 0.552647 0.246420
C29   C     C_2   0.467580 0.524512 0.572611 0.004001
C30   C     C_2   0.531985 0.478744 0.418546 0.003249
C31   C     C_2   0.545930 0.029887 0.458504 -0.007717
C32   C     C_2   0.469032 0.986549 0.593817 -0.014321
I1    I     I_    0.634507 0.320827 0.237991 -0.200521
I2    I     I_    0.366755 0.684089 0.749477 -0.197139
I3    I     I_    0.422299 0.847582 0.300350 -0.202820
I4    I     I_    0.547215 0.195267 0.710527 -0.217291
I5    I     I_    0.584231 0.537636 0.152381 -0.280373
I6    I     I_    0.414217 0.465398 0.838581 -0.278902
I7    I     I_    0.434386 0.013622 0.890673 -0.292098
I8    I     I_    0.619958 0.976269 0.201362 -0.276319
I9    I     I_    0.111409 0.647456 0.688173 -0.088237
I10   I     I_    0.889122 0.354200 0.312787 -0.089592
I11   I     I_    0.867763 0.138339 0.312972 -0.103443
I12   I     I_    0.129689 0.864059 0.679550 -0.098299
I13   I     I_    0.200084 0.561174 0.160391 -0.124654
I14   I     I_    0.801050 0.440690 0.837355 -0.123817
I15   I     I_    0.801261 0.062134 0.833075 -0.130548
I16   I     I_    0.200988 0.943324 0.149890 -0.134614
Cl1   Cl    Cl    0.951601 0.567550 0.422065 -0.508115
Cl2   Cl    Cl    0.049890 0.433639 0.577072 -0.508316
Cl3   Cl    Cl    0.040437 0.072410 0.581305 -0.505268
Cl4   Cl    Cl    0.958723 0.929821 0.415738 -0.505535

loop_
_geom_bond_atom_site_label_1
_geom_bond_atom_site_label_2
_ccdc_geom_bond_type
O10   C7    A    
C16   C23   S    
C20   C24   S    
C31   C32   S    
O13   V3    S    
C24   Cl4   S    
V1    O19   S    
C5    C19   S    
C6    C20   S    
C29   C30   S    
C26   C30   D    
C9    C18   S    
C14   C18   S    
C9    C21   S    
O14   V2    S    
C21   Cl1   S    
C18   C22   S    
O4    C1    A    
O18   V3    S    
C14   C21   S    
O9    V1    S    
C14   I10   S    
O10   V2    S    
C13   I9    S    
C10   C22   S    
O17   C7    A    
C10   I14   S    
O5    C1    A    
O4    V3    S    
C9    I13   S    
O7    C3    A    
C11   C23   S    
O8    C4    A    
C10   C17   S    
O11   V2    S    
O8    V1    S    
O17   V4    S    
C12   C16   S    
C15   C19   S    
O11   C6    A    
O15   V3    S    
C9    C13   S    
C25   I2    S    
O3    V4    S    
C11   C15   S    
O2    C3    A    
C28   I3    S    
O6    C2    A    
C29   I6    S    
C7    C17   S    
C31   I8    S    
O1    V3    S    
C32   I7    S    
O1    C4    A    
C11   C20   S    
O3    C2    A    
O14   V4    S    
O16   C6    A    
C22   Cl2   S    
V2    O20   S    
O15   C5    A    
O16   V4    S    
C10   C14   S    
C26   I1    S    
C15   I11   S    
O18   C8    A    
O5    V1    S    
C30   I5    S    
O6    V2    S    
O12   C5    A    
O2    V4    S    
C23   Cl3   S    
V3    O19   S    
V4    O20   S    
C25   C29   D    
O12   V1    S    
C8    C18   S    
O13   V1    S    
C12   C24   S    
C27   C31   D    
C13   C17   S    
C11   I15   S    
C28   C32   D    
C16   C20   S    
O7    V2    S    
C16   I12   S    
C17   C21   S    
C12   C19   S    
C27   I4    S    
C13   C22   S    
C19   C23   S    
C12   I16   S    
O9    C8    A    
C15   C24   S    
