data_mof_unit_9528.cif
_audit_creation_date              2012-12-11T20:50:46-0500
_audit_creation_method            fapswitch 2.2
_symmetry_space_group_name_H-M    P1
_symmetry_Int_Tables_number       1
_space_group_crystal_system       triclinic
_cell_length_a                    30.625185
_cell_length_b                    33.731096
_cell_length_c                    8.436573
_cell_angle_alpha                 89.999988
_cell_angle_beta                  89.996631
_cell_angle_gamma                 90.070937
_cell_volume                      8715.15084859

loop_
_atom_site_label
_atom_site_type_symbol
_atom_type_description
_atom_site_fract_x
_atom_site_fract_y
_atom_site_fract_z
_atom_type_partial_charge
Ba1   Ba    Ba6+2 0.999930 0.472870 0.844940 1.661081
Ba2   Ba    Ba6+2 0.999930 0.527130 0.344940 1.653422
Ba3   Ba    Ba6+2 0.499930 0.972870 0.844940 1.661085
Ba4   Ba    Ba6+2 0.499930 0.027130 0.344940 1.653310
C1    C     C_3   0.014089 0.276507 0.545943 -0.066294
C2    C     C_3   0.019947 0.719849 0.087943 -0.117652
C3    C     C_3   0.514146 0.776511 0.546017 -0.066301
C4    C     C_3   0.520341 0.219628 0.087850 -0.119123
C5    C     C_R   0.246781 0.695514 0.047642 -0.013154
C6    C     C_R   0.248213 0.306421 0.551882 -0.012943
C7    C     C_R   0.746641 0.195418 0.050025 -0.013118
C8    C     C_R   0.748214 0.806424 0.551886 -0.012948
C9    C     C_R   0.214043 0.667439 0.003507 0.609873
C10   C     C_R   0.215204 0.334250 0.508639 0.610736
C11   C     C_R   0.713908 0.167355 0.005767 0.609927
C12   C     C_R   0.715205 0.834254 0.508651 0.610733
C13   C     C_R   0.160085 0.718812 0.993741 0.586608
C14   C     C_R   0.163624 0.281547 0.470654 0.596091
C15   C     C_R   0.660262 0.218939 0.990994 0.586633
C16   C     C_R   0.663628 0.781551 0.470620 0.596112
C17   C     C_R   0.191411 0.747407 0.038193 -0.030419
C18   C     C_R   0.195058 0.253253 0.516572 -0.033821
C19   C     C_R   0.691596 0.247532 0.035364 -0.030297
C20   C     C_R   0.695061 0.753256 0.516535 -0.033821
C21   C     C_R   0.234904 0.735886 0.065572 -0.089385
C22   C     C_R   0.237499 0.265547 0.557347 -0.089526
C23   C     C_R   0.734921 0.235897 0.065420 -0.089532
C24   C     C_R   0.737501 0.765550 0.557326 -0.089533
C25   C     C_R   0.290965 0.684693 0.074438 0.149905
C26   C     C_R   0.291560 0.317991 0.590008 0.150053
C27   C     C_R   0.790673 0.184484 0.079368 0.149991
C28   C     C_R   0.791560 0.817994 0.590029 0.150062
C29   C     C_R   0.821520 0.213321 0.122740 -0.102285
C30   C     C_R   0.822699 0.789372 0.632169 -0.100708
C31   C     C_R   0.321804 0.713531 0.117896 -0.102320
C32   C     C_R   0.322698 0.289370 0.632161 -0.100673
C33   C     C_R   0.810021 0.253425 0.139367 -0.038939
C34   C     C_R   0.812104 0.748868 0.639822 -0.039751
C35   C     C_R   0.310159 0.753527 0.137009 -0.039071
C36   C     C_R   0.312103 0.248867 0.639839 -0.039776
C37   C     C_R   0.766512 0.264918 0.110925 -0.087796
C38   C     C_R   0.769274 0.736770 0.603020 -0.087417
C39   C     C_R   0.266501 0.764912 0.111011 -0.087737
C40   C     C_R   0.269272 0.236768 0.603048 -0.087414
C41   C     C_R   0.179730 0.787396 0.056516 -0.098516
C42   C     C_R   0.184489 0.212751 0.523080 -0.098273
C43   C     C_R   0.680085 0.287641 0.050896 -0.098157
C44   C     C_R   0.684492 0.712753 0.523022 -0.098278
C45   C     C_3   0.011633 0.309582 0.084129 0.442442
C46   C     C_3   0.994417 0.680786 0.609365 0.451766
C47   C     C_3   0.511639 0.809586 0.084119 0.442460
C48   C     C_3   0.494505 0.180825 0.609350 0.451496
C49   C     C_R   0.710657 0.316339 0.096633 0.147217
C50   C     C_R   0.715083 0.684334 0.570680 0.147762
C51   C     C_R   0.210315 0.816098 0.102124 0.147233
C52   C     C_R   0.215080 0.184332 0.570740 0.147757
C53   C     C_R   0.754523 0.305302 0.127935 -0.009128
C54   C     C_R   0.758136 0.696024 0.611953 -0.008633
C55   C     C_R   0.254366 0.805189 0.130478 -0.009174
C56   C     C_R   0.258135 0.196023 0.611997 -0.008635
C57   C     C_R   0.786756 0.333229 0.176225 0.599307
C58   C     C_R   0.790340 0.668377 0.662465 0.600155
C59   C     C_R   0.286638 0.833128 0.178350 0.599407
C60   C     C_R   0.290339 0.168376 0.662508 0.600160
C61   C     C_R   0.841326 0.282222 0.183640 0.596546
C62   C     C_R   0.843698 0.720293 0.683044 0.600617
C63   C     C_R   0.341454 0.782322 0.181428 0.596591
C64   C     C_R   0.343697 0.220292 0.683070 0.600647
C65   C     C_2   0.110496 0.655124 0.803755 -0.097601
C66   C     C_2   0.112011 0.346254 0.299916 -0.087858
C67   C     C_2   0.610630 0.154994 0.803274 -0.097819
C68   C     C_2   0.612017 0.846261 0.299901 -0.087808
C69   C     C_3   0.071409 0.631973 0.784060 -0.079740
C70   C     C_3   0.072019 0.368194 0.284381 -0.089027
C71   C     C_3   0.571488 0.131920 0.783800 -0.079545
C72   C     C_3   0.572023 0.868197 0.284373 -0.088999
C73   C     C_1   0.096710 0.588473 0.001535 0.026711
C74   C     C_1   0.097111 0.411439 0.502718 0.030064
C75   C     C_1   0.596675 0.088492 0.001622 0.026772
C76   C     C_1   0.597110 0.911439 0.502723 0.030121
C77   C     C_2   0.129007 0.615266 0.042069 -0.109941
C78   C     C_2   0.129757 0.384845 0.541725 -0.107736
C79   C     C_2   0.628840 0.115385 0.042527 -0.110088
C80   C     C_2   0.629754 0.884844 0.541734 -0.107758
C81   C     C_2   0.137708 0.650073 0.937554 0.223255
C82   C     C_2   0.139243 0.350777 0.433792 0.208333
C83   C     C_2   0.637686 0.150092 0.937582 0.222187
C84   C     C_2   0.639246 0.850781 0.433786 0.208295
C85   C     C_R   0.882781 0.346877 0.391634 -0.098089
C86   C     C_R   0.887938 0.656152 0.879467 -0.085141
C87   C     C_R   0.382833 0.846816 0.391421 -0.097960
C88   C     C_R   0.387932 0.156149 0.879519 -0.085128
C89   C     C_3   0.007301 0.267637 0.018773 -0.292154
C90   C     C_3   0.007071 0.721254 0.676062 -0.332509
C91   C     C_3   0.507297 0.767643 0.018760 -0.291740
C92   C     C_3   0.507242 0.221277 0.675998 -0.332559
C93   C     C_R   0.916265 0.376207 0.438735 -0.066322
C94   C     C_R   0.921225 0.626722 0.926068 -0.038819
C95   C     C_R   0.416292 0.876167 0.438607 -0.066298
C96   C     C_R   0.421214 0.126715 0.926137 -0.038802
C97   C     C_R   0.902908 0.412475 0.194317 0.039283
C98   C     C_R   0.904835 0.588594 0.689184 0.035466
C99   C     C_R   0.402889 0.912472 0.194297 0.039354
C100  C     C_R   0.404834 0.088593 0.689213 0.035482
C101  C     C_R   0.871198 0.383900 0.152897 -0.082327
C102  C     C_R   0.873188 0.617217 0.648047 -0.097396
C103  C     C_R   0.371148 0.883916 0.152934 -0.082295
C104  C     C_R   0.373191 0.117219 0.648072 -0.097399
C105  C     C_R   0.861968 0.350762 0.251071 0.238024
C106  C     C_R   0.865463 0.651397 0.742556 0.226802
C107  C     C_R   0.361974 0.850745 0.250976 0.238739
C108  C     C_R   0.365463 0.151397 0.742592 0.226707
C109  C     C_2   0.069312 0.595909 0.874320 -0.272606
C110  C     C_2   0.069252 0.403746 0.377237 -0.260083
C111  C     C_2   0.569378 0.095856 0.874050 -0.272854
C112  C     C_2   0.569253 0.903748 0.377234 -0.260127
C113  C     C_3   0.124183 0.473797 0.174012 0.278399
C114  C     C_3   0.123166 0.527116 0.667644 0.275623
C115  C     C_3   0.624198 0.973805 0.174009 0.278424
C116  C     C_3   0.623193 0.027106 0.667623 0.275870
C117  C     C_3   0.163988 0.446398 0.166268 -0.107086
C118  C     C_3   0.162620 0.554986 0.658558 -0.112494
C119  C     C_3   0.664004 0.946409 0.166250 -0.107080
C120  C     C_3   0.662662 0.054958 0.658525 -0.112970
C121  C     C_3   0.875887 0.526784 0.017723 0.295231
C122  C     C_3   0.872932 0.474515 0.517076 0.296575
C123  C     C_3   0.375886 0.026786 0.017729 0.295221
C124  C     C_3   0.372953 0.974502 0.517117 0.296305
C125  C     C_3   0.835539 0.553053 0.018244 -0.342437
C126  C     C_3   0.831784 0.449223 0.522321 -0.348057
C127  C     C_3   0.335537 0.053052 0.018246 -0.342591
C128  C     C_3   0.331817 0.949194 0.522417 -0.347786
C129  C     C_3   0.984992 0.312766 0.520220 0.274348
C130  C     C_3   0.008465 0.675637 0.093873 0.373354
C131  C     C_3   0.485036 0.812760 0.520253 0.274758
C132  C     C_3   0.508647 0.175466 0.094003 0.373230
C133  C     C_R   0.926050 0.408489 0.328064 -0.297231
C134  C     C_R   0.929758 0.593703 0.817917 -0.285876
C135  C     C_R   0.426057 0.908465 0.327977 -0.297281
C136  C     C_R   0.429752 0.093699 0.817968 -0.285911
H1    H     H_    0.002905 0.334570 0.445831 -0.044814
H2    H     H_    0.035486 0.658420 0.148622 0.064443
H3    H     H_    0.502946 0.834567 0.445868 -0.044821
H4    H     H_    0.535550 0.158174 0.149153 0.064429
H5    H     H_    0.154168 0.415880 0.199385 0.076539
H6    H     H_    0.152073 0.585745 0.684479 0.075147
H7    H     H_    0.654188 0.915892 0.199390 0.076537
H8    H     H_    0.652126 0.085728 0.684269 0.075002
H9    H     H_    0.176536 0.445371 0.042686 0.133858
H10   H     H_    0.176124 0.554678 0.536244 0.128977
H11   H     H_    0.676546 0.945379 0.042660 0.133851
H12   H     H_    0.676194 0.054610 0.536254 0.129194
H13   H     H_    0.887378 0.523299 0.894385 0.012694
H14   H     H_    0.882846 0.478390 0.392001 0.017681
H15   H     H_    0.387379 0.023302 0.894392 0.012724
H16   H     H_    0.382863 0.978369 0.392033 0.017624
H17   H     H_    0.809545 0.539528 0.943983 0.143251
H18   H     H_    0.805056 0.464158 0.456459 0.145584
H19   H     H_    0.309545 0.039525 0.943978 0.143252
H20   H     H_    0.305086 0.964104 0.456486 0.145641
H21   H     H_    0.843434 0.582730 0.970035 0.068079
H22   H     H_    0.837794 0.419955 0.467196 0.074448
H23   H     H_    0.343429 0.082730 0.970043 0.068081
H24   H     H_    0.337846 0.919917 0.467400 0.074809
H25   H     H_    0.823280 0.556608 0.141339 0.132073
H26   H     H_    0.821500 0.444616 0.647241 0.127997
H27   H     H_    0.323275 0.056604 0.141339 0.132055
H28   H     H_    0.321529 0.944609 0.647346 0.127940
H29   H     H_    0.955469 0.302482 0.455784 0.026759
H30   H     H_    0.004688 0.665725 0.969448 -0.124664
H31   H     H_    0.455524 0.802462 0.455787 0.025887
H32   H     H_    0.504918 0.165513 0.969599 -0.124431
H33   H     H_    0.021578 0.262845 0.429328 0.092622
H34   H     H_    0.043342 0.725077 0.990799 0.139593
H35   H     H_    0.521647 0.762849 0.429412 0.092625
H36   H     H_    0.543822 0.224703 0.990854 0.139806
H37   H     H_    0.989850 0.248578 0.105603 0.099542
H38   H     H_    0.984176 0.729626 0.772304 0.108132
H39   H     H_    0.489836 0.748588 0.105580 0.099641
H40   H     H_    0.484380 0.229687 0.772288 0.108065
H41   H     H_    0.147568 0.611397 0.150565 0.107032
H42   H     H_    0.147655 0.388136 0.651982 0.112808
H43   H     H_    0.647195 0.111657 0.151565 0.108106
H44   H     H_    0.647648 0.888132 0.652002 0.112831
H45   H     H_    0.116090 0.680088 0.725088 0.099301
H46   H     H_    0.118379 0.322382 0.216798 0.107955
H47   H     H_    0.616382 0.179796 0.723938 0.100412
H48   H     H_    0.618389 0.822392 0.216772 0.107957
H49   H     H_    0.853247 0.387560 0.043330 0.103953
H50   H     H_    0.854243 0.612795 0.541166 0.116347
H51   H     H_    0.353134 0.887605 0.043515 0.103047
H52   H     H_    0.354249 0.112800 0.541182 0.116328
H53   H     H_    0.950254 0.430363 0.361098 0.075362
H54   H     H_    0.953807 0.571769 0.851180 0.073183
H55   H     H_    0.450274 0.930329 0.360985 0.075321
H56   H     H_    0.453800 0.071764 0.851228 0.073239
H57   H     H_    0.996406 0.253999 0.617752 0.092056
H58   H     H_    0.990182 0.737485 0.061466 0.114502
H59   H     H_    0.496466 0.753998 0.617818 0.091888
H60   H     H_    0.490679 0.237373 0.061016 0.114998
H61   H     H_    0.040789 0.577257 0.857681 0.076182
H62   H     H_    0.039881 0.421432 0.364502 0.072794
H63   H     H_    0.540872 0.077189 0.857287 0.076228
H64   H     H_    0.539881 0.921432 0.364500 0.072793
H65   H     H_    0.028533 0.306434 0.199734 -0.019939
H66   H     H_    0.990086 0.660352 0.711440 -0.020270
H67   H     H_    0.528537 0.806435 0.199725 -0.020077
H68   H     H_    0.490157 0.160397 0.711440 -0.020243
H69   H     H_    0.988534 0.267804 0.906237 0.131342
H70   H     H_    0.005702 0.744583 0.583774 0.116168
H71   H     H_    0.488533 0.767815 0.906216 0.131459
H72   H     H_    0.505900 0.244600 0.583673 0.116251
H73   H     H_    0.040161 0.254815 0.997282 0.092919
H74   H     H_    0.040883 0.720101 0.722697 0.094783
H75   H     H_    0.540154 0.754812 0.997287 0.092702
H76   H     H_    0.541060 0.220078 0.722570 0.095852
N1    N     N_R   0.171288 0.679256 0.977880 -0.432485
N2    N     N_R   0.173325 0.321738 0.470746 -0.432763
N3    N     N_R   0.671294 0.179272 0.977739 -0.432431
N4    N     N_R   0.673328 0.821742 0.470738 -0.432763
N5    N     N_R   0.829497 0.321567 0.202595 -0.435241
N6    N     N_R   0.832680 0.680508 0.695029 -0.433029
N7    N     N_R   0.329501 0.821561 0.202506 -0.435358
N8    N     N_R   0.332679 0.180508 0.695064 -0.433044
O1    O     O_2   0.914200 0.445720 0.903420 -0.457733
O2    O     O_2   0.914200 0.554280 0.403420 -0.459543
O3    O     O_2   0.414200 0.945720 0.903420 -0.457744
O4    O     O_2   0.414200 0.054280 0.403420 -0.459564
O5    O     O_3   0.135364 0.489516 0.613012 -0.646234
O6    O     O_3   0.135511 0.510824 0.111453 -0.645819
O7    O     O_3   0.635374 0.989502 0.613000 -0.646248
O8    O     O_3   0.635519 0.010833 0.111436 -0.645643
O9    O     O_3   0.036010 0.333062 0.976836 -0.577250
O10   O     O_3   0.026634 0.668265 0.499317 -0.591248
O11   O     O_3   0.536022 0.833063 0.976834 -0.577348
O12   O     O_3   0.526679 0.168263 0.499222 -0.591437
O13   O     O_3   0.049930 0.518940 0.045960 -0.489407
O14   O     O_3   0.049930 0.481060 0.545960 -0.493637
O15   O     O_3   0.549930 0.018940 0.045960 -0.489426
O16   O     O_3   0.549930 0.981060 0.545960 -0.493650
O17   O     O_2   0.223611 0.632572 0.986237 -0.550974
O18   O     O_2   0.223841 0.369570 0.502715 -0.552237
O19   O     O_2   0.723367 0.132402 0.990483 -0.551382
O20   O     O_2   0.723841 0.869574 0.502750 -0.552236
O21   O     O_2   0.122488 0.729202 0.970671 -0.622217
O22   O     O_2   0.127308 0.270218 0.431640 -0.597077
O23   O     O_2   0.622806 0.229441 0.965671 -0.622147
O24   O     O_2   0.627313 0.770222 0.431586 -0.597079
O25   O     O_2   0.776775 0.367900 0.196788 -0.561733
O26   O     O_2   0.780592 0.633525 0.679825 -0.562711
O27   O     O_2   0.276593 0.867723 0.200456 -0.561594
O28   O     O_2   0.280592 0.133524 0.679871 -0.562708
O29   O     O_2   0.879284 0.272302 0.204348 -0.594332
O30   O     O_2   0.881206 0.730865 0.709076 -0.593138
O31   O     O_2   0.379509 0.772497 0.200399 -0.593961
O32   O     O_2   0.381204 0.230865 0.709104 -0.592953
O33   O     O_3   0.950020 0.480960 0.143730 -0.493616
O34   O     O_3   0.950020 0.519040 0.643730 -0.492829
O35   O     O_3   0.450020 0.980960 0.143730 -0.493576
O36   O     O_3   0.450020 0.019040 0.643730 -0.492820
O37   O     O_3   0.985090 0.412220 0.642040 -0.458421
O38   O     O_3   0.985090 0.587780 0.142040 -0.477044
O39   O     O_3   0.485090 0.912220 0.642040 -0.458458
O40   O     O_3   0.485090 0.087780 0.142040 -0.477193
O41   O     O_2   0.914335 0.379025 0.770409 -0.484469
O42   O     O_2   0.910035 0.617820 0.250272 -0.490869
O43   O     O_2   0.414328 0.879013 0.770294 -0.484318
O44   O     O_2   0.410088 0.117883 0.250492 -0.490875
O45   O     O_3   0.864488 0.489793 0.079799 -0.625661
O46   O     O_3   0.863496 0.511396 0.583603 -0.624015
O47   O     O_3   0.364488 0.989793 0.079792 -0.625775
O48   O     O_3   0.363502 0.011387 0.583585 -0.623997
O49   O     O_3   0.973091 0.329513 0.666598 -0.575981
O50   O     O_3   0.969793 0.670294 0.181072 -0.599041
O51   O     O_3   0.473114 0.829509 0.666608 -0.575941
O52   O     O_3   0.469880 0.170301 0.180820 -0.598886
O53   O     O_2   0.085560 0.445380 0.786390 -0.445702
O54   O     O_2   0.085560 0.554620 0.286390 -0.458747
O55   O     O_2   0.585560 0.945380 0.786390 -0.445700
O56   O     O_2   0.585560 0.054620 0.286390 -0.458783
O57   O     O_3   0.014550 0.412170 0.047860 -0.462094
O58   O     O_3   0.014550 0.587830 0.547860 -0.466231
O59   O     O_3   0.514550 0.912170 0.047860 -0.462107
O60   O     O_3   0.514550 0.087830 0.547860 -0.466179
O61   O     O_2   0.094885 0.388687 0.972022 -0.488335
O62   O     O_2   0.090840 0.618017 0.455233 -0.491751
O63   O     O_2   0.594891 0.888694 0.972028 -0.488330
O64   O     O_2   0.590835 0.117980 0.454998 -0.492067
P1    P     P_3+3 0.909970 0.458430 0.077330 0.998653
P2    P     P_3+3 0.909970 0.541570 0.577330 0.996740
P3    P     P_3+3 0.409970 0.958430 0.077330 0.998541
P4    P     P_3+3 0.409970 0.041570 0.577330 0.996792
P5    P     P_3+3 0.089830 0.458070 0.612460 0.989402
P6    P     P_3+3 0.089830 0.541930 0.112460 0.984276
P7    P     P_3+3 0.589830 0.958070 0.612460 0.989396
P8    P     P_3+3 0.589830 0.041930 0.112460 0.984385
P9    P     P_3+3 0.055031 0.375934 0.072294 0.955010
P10   P     P_3+3 0.052812 0.625794 0.572034 0.944767
P11   P     P_3+3 0.555036 0.875938 0.072291 0.954985
P12   P     P_3+3 0.552831 0.125775 0.571879 0.944592
P13   P     P_3+3 0.945880 0.625361 0.124793 0.955346
P14   P     P_3+3 0.946006 0.374256 0.628960 0.976188
P15   P     P_3+3 0.445898 0.125376 0.124829 0.955437
P16   P     P_3+3 0.446018 0.874243 0.628894 0.976202
N9    N     N_3   0.198878 0.459462 0.272407 -0.454898
H77   H     H_    0.207527 0.488637 0.244464 0.216093
H78   H     H_    0.187200 0.459156 0.388828 0.209376
N10   N     N_3   0.196835 0.543768 0.770653 -0.450225
H79   H     H_    0.206067 0.514404 0.749497 0.217483
H80   H     H_    0.184248 0.545356 0.885642 0.207638
N11   N     N_3   0.698899 0.959479 0.272358 -0.454898
H81   H     H_    0.707545 0.988653 0.244391 0.216224
H82   H     H_    0.687226 0.959177 0.388787 0.209406
N12   N     N_3   0.696846 0.043759 0.770776 -0.450773
H83   H     H_    0.706047 0.014376 0.749865 0.217549
H84   H     H_    0.684242 0.045415 0.885725 0.207912
H85   H     H_    0.901535 0.541149 0.091016 0.066180
H86   H     H_    0.898994 0.459251 0.585344 0.051166
H87   H     H_    0.401532 0.041151 0.091031 0.066131
H88   H     H_    0.399024 0.959253 0.585394 0.051293
N13   N     N_3   0.055109 0.286955 0.623693 -0.437693
H89   H     H_    0.067236 0.313247 0.575287 0.206140
H90   H     H_    0.049004 0.292427 0.742867 0.233896
N14   N     N_3   0.039480 0.733966 0.235121 -0.467692
H91   H     H_    0.065865 0.715801 0.265258 0.217723
H92   H     H_    0.016063 0.731825 0.324104 0.213647
N15   N     N_3   0.555159 0.786972 0.623791 -0.437679
H93   H     H_    0.567267 0.813278 0.575452 0.206100
H94   H     H_    0.549050 0.792420 0.742979 0.233862
N16   N     N_3   0.539861 0.233738 0.235062 -0.467921
H95   H     H_    0.566164 0.215500 0.265458 0.216720
H96   H     H_    0.516394 0.231717 0.323927 0.214157
N17   N     N_3   0.696612 0.356749 0.109744 -0.428465
H97   H     H_    0.684558 0.365696 0.999519 0.178443
H98   H     H_    0.670946 0.357947 0.191252 0.180758
N18   N     N_3   0.701951 0.643531 0.574949 -0.428713
H99   H     H_    0.691426 0.635457 0.461528 0.177044
H100  H     H_    0.675378 0.640957 0.652121 0.179839
N19   N     N_3   0.196061 0.856361 0.118581 -0.428326
H101  H     H_    0.183101 0.865577 0.010009 0.178417
H102  H     H_    0.170995 0.857104 0.202700 0.180689
N20   N     N_3   0.201948 0.143530 0.575031 -0.428713
H103  H     H_    0.191419 0.135453 0.461617 0.177050
H104  H     H_    0.175376 0.140958 0.652213 0.179845
H105  H     H_    0.146369 0.796782 0.035870 0.126097
H106  H     H_    0.151946 0.202737 0.492056 0.123701
H107  H     H_    0.646869 0.297127 0.027915 0.126003
H108  H     H_    0.651950 0.702740 0.491984 0.123685
H109  H     H_    0.854841 0.203924 0.144108 0.117833
H110  H     H_    0.855497 0.799261 0.660097 0.120087
H111  H     H_    0.355242 0.704222 0.137305 0.117758
H112  H     H_    0.355497 0.299259 0.660073 0.120122
H113  H     H_    0.875207 0.322386 0.469934 0.084436
H114  H     H_    0.881353 0.681053 0.956774 0.098124
H115  H     H_    0.375302 0.822281 0.469556 0.083609
H116  H     H_    0.381345 0.181049 0.956826 0.098179
N21   N     N_3   0.305129 0.644413 0.057955 -0.426630
H117  H     H_    0.318527 0.635330 0.165992 0.178786
H118  H     H_    0.329854 0.643582 0.972553 0.179209
N22   N     N_3   0.304593 0.358814 0.586182 -0.426381
H119  H     H_    0.316107 0.366543 0.698709 0.179587
H120  H     H_    0.330474 0.361652 0.506121 0.180712
N23   N     N_3   0.804673 0.144085 0.065619 -0.426647
H121  H     H_    0.817603 0.135278 0.174791 0.178750
H122  H     H_    0.829724 0.142863 0.981527 0.179286
N24   N     N_3   0.804590 0.858818 0.586257 -0.426376
H123  H     H_    0.816089 0.866543 0.698814 0.179581
H124  H     H_    0.830482 0.861663 0.506240 0.180689
N25   N     N_3   0.967940 0.325939 0.107891 -0.474576
H125  H     H_    0.970715 0.351118 0.178672 0.119688
H126  H     H_    0.955381 0.334980 0.998522 0.235743
N26   N     N_3   0.951917 0.683456 0.532056 -0.456524
H127  H     H_    0.944713 0.655698 0.483997 0.212472
H128  H     H_    0.953381 0.703834 0.439054 0.215207
N27   N     N_3   0.467950 0.825951 0.107875 -0.473896
H129  H     H_    0.470731 0.851125 0.178674 0.119578
H130  H     H_    0.455396 0.834999 0.998509 0.235997
N28   N     N_3   0.452001 0.183562 0.532104 -0.456330
H131  H     H_    0.444717 0.155801 0.484221 0.212315
H132  H     H_    0.453520 0.203893 0.438948 0.215224
H133  H     H_    0.113476 0.477080 0.298398 -0.001401
H134  H     H_    0.111564 0.525025 0.791430 0.000112
H135  H     H_    0.613496 0.977088 0.298403 -0.001416
H136  H     H_    0.611592 0.025021 0.791412 0.000207
H137  H     H_    0.097558 0.460053 0.103638 0.067694
H138  H     H_    0.096984 0.539904 0.592441 0.067136
H139  H     H_    0.597570 0.960057 0.103656 0.067627
H140  H     H_    0.597017 0.039901 0.592413 0.067114

loop_
_geom_bond_atom_site_label_1
_geom_bond_atom_site_label_2
_ccdc_geom_bond_type
C100  P4    S    
C49   N17   S    
C1    N13   S    
N21   H117  S    
C114  H138  S    
C51   C55   A    
O10   P10   S    
C59   O27   D    
C62   N6    Am   
C38   C54   A    
N17   H97   S    
Ba2   O2    S    
O9    P9    S    
C94   C134  S    
C70   C110  A    
C113  O6    S    
N26   H127  S    
C47   O11   S    
C90   H38   S    
C71   P12   S    
C5    C9    A    
O2    P2    D    
C73   P6    S    
C7    C11   A    
C76   C112  A    
N14   H91   S    
C111  H63   S    
C66   C70   A    
C116  H136  S    
C109  H61   S    
C17   C41   A    
C43   C49   A    
C103  C107  A    
C108  N8    S    
C73   C109  A    
C61   N5    Am   
C112  H64   S    
C135  H55   S    
C19   C23   A    
C90   H74   S    
N16   H95   S    
C101  H49   S    
C19   C43   A    
C44   H108  S    
C97   C133  D    
N20   H103  S    
C2    H34   S    
C87   H115  S    
N12   H83   S    
C13   C17   A    
C100  C136  D    
C28   C30   A    
C15   C19   A    
Ba1   O53   S    
C59   N7    Am   
C74   C78   A    
C47   N27   S    
C7    C23   A    
O64   P12   D    
Ba1   P1    S    
C92   H40   S    
C63   N7    Am   
C28   N24   S    
C122  H14   S    
C123  H15   S    
Ba4   O56   S    
C71   C111  A    
C65   H45   S    
C105  N5    S    
C48   O12   S    
C2    H58   S    
Ba1   O34   S    
C117  N9    S    
C122  O46   S    
C80   C84   S    
C67   H47   S    
N18   H99   S    
N27   H129  S    
C53   C57   A    
C115  C119  S    
C25   C31   A    
C55   C59   A    
C92   H76   S    
C26   C32   A    
C56   C60   A    
Ba1   O57   S    
Ba2   O38   S    
O55   P7    D    
C60   O28   D    
Ba4   O15   S    
C117  H9    S    
C50   N18   S    
C118  H6    S    
C62   O30   D    
C124  H16   S    
C18   C22   A    
C121  C125  S    
C58   O26   D    
N13   H89   S    
C121  O45   S    
C10   N2    Am   
C99   C103  A    
C45   C89   S    
N28   H131  S    
C47   C91   S    
O36   P4    S    
C75   C111  A    
C32   H112  S    
C21   C39   A    
C22   C40   A    
C1    C129  S    
C17   C21   A    
O3    P3    D    
O12   P12   S    
C47   H67   S    
O54   P6    D    
C88   H116  S    
C82   N2    S    
C14   O22   D    
C10   O18   D    
C43   H107  S    
N9    H78   S    
C33   C61   A    
C42   H106  S    
C131  O51   S    
C39   C55   A    
Ba3   O16   S    
C84   N4    S    
C126  H22   S    
C131  H3    S    
C127  H27   S    
C123  O47   S    
C118  N10   S    
C124  O48   S    
C95   C135  S    
C64   N8    Am   
O44   P15   D    
C93   C133  S    
N22   H119  S    
N10   H80   S    
C16   N4    Am   
C46   N26   S    
C11   O19   D    
C129  O49   S    
C20   C44   A    
C8    C12   A    
C80   H44   S    
O49   P14   S    
C6    C10   A    
N15   H94   S    
C89   H37   S    
O51   P16   S    
C46   C90   S    
C74   P5    S    
C1    H57   S    
O15   P8    S    
C114  H134  S    
Ba1   O13   S    
O16   P7    S    
C29   H109  S    
O45   P1    S    
O59   P11   S    
C31   H111  S    
C13   O21   D    
Ba4   O40   S    
C125  H21   S    
C127  H19   S    
C46   H66   S    
C90   H70   S    
O1    P1    D    
N11   H82   S    
C3    N15   S    
C4    H60   S    
C102  H50   S    
C11   N3    Am   
Ba3   Ba4   S    
C14   N2    Am   
C12   O20   D    
C65   C81   A    
C91   H39   S    
C101  C105  A    
C14   C18   A    
C48   N28   S    
C20   C24   A    
Ba2   O54   S    
C72   P11   S    
C4    H36   S    
Ba2   O13   S    
C113  C117  S    
O37   P14   S    
C78   H42   S    
Ba1   P5    S    
C91   H71   S    
O39   P16   S    
Ba2   P2    S    
C2    N14   S    
Ba3   P7    S    
Ba4   O60   S    
N26   H128  S    
C12   N4    Am   
C58   N6    Am   
C33   C37   A    
O52   P15   S    
O13   P6    S    
C66   H46   S    
C36   C40   A    
Ba2   O33   S    
C132  H32   S    
C41   C51   A    
C57   O25   D    
C130  H30   S    
C42   C52   A    
C104  H52   S    
C119  N11   S    
C93   P14   S    
C87   C95   S    
C77   C81   S    
C95   P16   S    
C85   H113  S    
N25   H126  S    
C54   C58   A    
C79   C83   S    
C92   H72   S    
C4    C132  S    
C76   C80   A    
C97   P1    S    
C5    C21   A    
Ba2   O58   S    
C120  H8    S    
O58   P10   S    
O63   P11   D    
C8    C24   A    
C118  H10   S    
C102  C106  A    
N20   H104  S    
C122  C126  S    
C114  O5    S    
N12   H84   S    
C123  C127  S    
C69   C109  A    
C60   N8    Am   
O47   P3    S    
C46   O10   S    
C129  H29   S    
N24   H123  S    
C121  H85   S    
C52   N20   S    
C123  H87   S    
C30   H110  S    
C124  H88   S    
N23   H121  S    
C110  H62   S    
C65   C69   A    
C131  H31   S    
O34   P2    S    
C134  H54   S    
O41   P14   D    
N21   H118  S    
C48   H68   S    
O43   P16   D    
C74   C110  A    
C1    H33   S    
N22   H120  S    
C64   O32   D    
N17   H98   S    
C119  H11   S    
O33   P1    S    
C128  H28   S    
N18   H100  S    
O57   P9    S    
C49   C53   A    
C88   C108  D    
C78   C82   S    
C89   H73   S    
C86   H114  S    
C29   C33   A    
C52   C56   A    
C45   N25   S    
C128  H24   S    
C75   P8    S    
C130  H2    S    
C126  H26   S    
C76   P7    S    
N19   H101  S    
C73   C77   A    
Ba4   O16   S    
C107  N7    S    
C120  N12   S    
C115  O8    S    
C67   C83   A    
C18   C42   A    
C45   H65   S    
Ba4   O35   S    
C26   N22   S    
C106  N6    S    
O50   P13   S    
Ba3   O3    S    
C3    C131  S    
C100  C104  A    
Ba1   O1    S    
O61   P9    D    
C69   P10   S    
O46   P2    S    
C115  H139  S    
C99   P3    S    
C63   O31   D    
C113  H137  S    
C129  H1    S    
C125  H25   S    
C125  H17   S    
C126  H18   S    
C96   P15   S    
O40   P15   S    
C37   C53   A    
N15   H93   S    
C132  H4    S    
C75   C79   A    
C40   C56   A    
O60   P12   S    
Ba4   O4    S    
C57   N5    Am   
C104  C108  A    
O6    P6    S    
N9    H77   S    
C36   C64   A    
C9    N1    Am   
C25   N21   S    
Ba3   O15   S    
N11   H81   S    
O38   P13   S    
C91   H75   S    
Ba2   P6    S    
C31   C35   A    
Ba3   P3    S    
C61   O29   D    
C68   C72   A    
Ba4   P4    S    
C15   O23   D    
C44   C50   A    
C128  H20   S    
C34   C38   A    
C114  C118  S    
O14   P5    S    
C51   N19   S    
Ba3   O36   S    
C85   C105  D    
Ba1   Ba2   S    
C98   C134  D    
C87   C107  D    
C94   P13   S    
C6    C26   A    
C68   H48   S    
C81   N1    S    
C96   C136  S    
O56   P8    D    
Ba3   O55   S    
C9    O17   D    
C16   C20   A    
N13   H90   S    
C3    H35   S    
C45   O9    S    
C27   C29   A    
C98   C102  A    
C83   N3    S    
C5    C25   A    
C98   P2    S    
C6    C22   A    
Ba3   O59   S    
C120  H12   S    
C7    C27   A    
C116  H140  S    
C8    C28   A    
N23   H122  S    
C132  O52   S    
C27   N23   S    
C124  C128  S    
C116  O7    S    
C68   C84   A    
C121  H13   S    
N27   H130  S    
C97   C101  A    
C133  H53   S    
C79   H43   S    
C34   C62   A    
C32   C36   A    
C122  H86   S    
Ba2   O14   S    
C35   C39   A    
C113  H133  S    
C85   C93   S    
C115  H135  S    
O7    P7    S    
C99   C135  D    
O8    P8    S    
C23   C37   A    
O35   P3    S    
O42   P13   D    
N16   H96   S    
O4    P4    D    
O11   P11   S    
O5    P5    S    
C136  H56   S    
Ba1   O37   S    
N14   H92   S    
N19   H102  S    
C119  H7    S    
Ba3   O39   S    
C89   H69   S    
C4    N16   S    
C130  O50   S    
C117  H5    S    
C15   N3    Am   
C86   C106  D    
C103  H51   S    
C66   C82   A    
C13   N1    Am   
N10   H79   S    
C88   C96   S    
N25   H125  S    
C50   C54   A    
C77   H41   S    
C30   C34   A    
C35   C63   A    
Ba4   P8    S    
Ba1   O14   S    
C41   H105  S    
C2    C130  S    
O48   P4    S    
C67   C71   A    
C24   C38   A    
C72   C112  A    
C48   C92   S    
C3    H59   S    
N24   H124  S    
C16   O24   D    
O53   P5    D    
C127  H23   S    
O62   P10   D    
C70   P9    S    
N28   H132  S    
C86   C94   S    
C116  C120  S    
