data_mof_unit_33354.cif
_audit_creation_date              2012-12-10T20:27:52-0500
_audit_creation_method            fapswitch 2.2
_symmetry_space_group_name_H-M    P1
_symmetry_Int_Tables_number       1
_space_group_crystal_system       triclinic
_cell_length_a                    12.898257
_cell_length_b                    10.683233
_cell_length_c                    9.8604
_cell_angle_alpha                 89.743453
_cell_angle_beta                  97.556142
_cell_angle_gamma                 90.302517
_cell_volume                      1346.88765552

loop_
_atom_site_label
_atom_site_type_symbol
_atom_type_description
_atom_site_fract_x
_atom_site_fract_y
_atom_site_fract_z
_atom_type_partial_charge
C1    C     C_R   0.503411 0.259913 0.500788 0.872624
C2    C     C_R   0.030047 0.523529 0.561412 0.125072
C3    C     C_R   0.970735 0.492993 0.435494 0.187802
C4    C     C_R   0.863820 0.483677 0.427940 -0.351630
C5    C     C_R   0.874801 0.522850 0.673642 0.484156
C6    C     C_R   0.982515 0.539586 0.679092 -0.333472
C7    C     C_R   0.529831 0.063469 0.626963 -0.072971
C8    C     C_R   0.520856 0.128686 0.503511 -0.126838
C9    C     C_R   0.532645 0.065450 0.382122 -0.187607
C10   C     C_R   0.533180 0.936120 0.381750 -0.218354
C11   C     C_R   0.520654 0.871418 0.502583 -0.069686
C12   C     C_R   0.298115 0.501993 0.472681 0.882404
C13   C     C_R   0.528108 0.935393 0.626107 0.084571
C14   C     C_3   0.462189 0.925375 0.739768 -0.513657
C15   C     C_3   0.463175 0.067493 0.741682 0.372438
C16   C     C_R   0.445912 0.410322 0.062704 0.116657
C17   C     C_R   0.559614 0.582571 0.081919 -0.259256
C18   C     C_R   0.559402 0.582915 0.937927 0.621246
C19   C     C_R   0.445615 0.410460 0.919826 0.112408
C20   C     C_3   0.330000 0.390815 0.896993 0.482583
C21   C     C_3   0.331075 0.388828 0.050639 -0.542370
C22   C     C_R   0.503404 0.740061 0.500238 0.884558
C23   C     C_R   0.702225 0.499354 0.527502 0.911517
C24   C     C_R   0.815169 0.501315 0.545057 -0.166224
C25   C     C_R   0.185891 0.505854 0.455247 -0.048807
C26   C     C_R   0.019367 0.472083 0.319058 -0.192608
C27   C     C_R   0.127384 0.477029 0.329350 -0.205366
C28   C     C_R   0.136886 0.533840 0.569091 -0.219095
H1    H     H_    0.818626 0.462477 0.329943 0.185716
H2    H     H_    0.504717 0.881320 0.833057 0.251873
H3    H     H_    0.384676 0.107574 0.707861 0.176634
H4    H     H_    0.606643 0.650329 0.144184 0.180615
H5    H     H_    0.286338 0.470757 0.845752 0.055038
H6    H     H_    0.289261 0.469604 0.088176 0.159198
H7    H     H_    0.311455 0.296044 0.092240 0.236025
H8    H     H_    0.974438 0.448985 0.221743 0.137420
H9    H     H_    0.029120 0.563460 0.775167 0.144690
H10   H     H_    0.164761 0.455643 0.240422 0.154730
H11   H     H_    0.181926 0.560440 0.665186 0.144728
H12   H     H_    0.533305 0.114794 0.286164 0.184068
H13   H     H_    0.535127 0.888020 0.285617 0.173776
H14   H     H_    0.383441 0.884994 0.705822 0.167471
N1    N     N_R   0.499290 0.499140 0.142710 -0.130870
N2    N     N_R   0.499290 0.499180 0.857070 -0.204890
O1    O     O_R   0.500010 0.316790 0.614690 -0.604198
O2    O     O_R   0.500000 0.316760 0.385350 -0.616176
O3    O     O_R   0.346360 0.499990 0.595720 -0.628655
O4    O     O_R   0.346350 0.499960 0.366370 -0.620761
O5    O     O_R   0.500000 0.683240 0.614650 -0.570464
O6    O     O_R   0.499990 0.683210 0.385310 -0.632982
O7    O     O_R   0.653650 0.500040 0.633630 -0.536271
O8    O     O_R   0.653640 0.500010 0.404280 -0.634662
Zn1   Zn    Zn3+2 0.500010 0.500020 0.653130 1.027523
Zn2   Zn    Zn3+2 0.499990 0.499980 0.346870 0.947161
O9    O     O_3   0.508126 0.117589 0.870258 -0.556920
C29   C     C_3   0.618890 0.117819 0.891224 0.145906
H15   H     H_    0.649201 0.194685 0.830693 0.150383
H16   H     H_    0.651815 0.026938 0.863036 0.159352
C30   C     C_3   0.656428 0.139352 0.041955 -0.853665
H17   H     H_    0.630791 0.060273 0.103125 0.255429
H18   H     H_    0.743147 0.144430 0.058739 0.212938
H19   H     H_    0.624126 0.228119 0.076461 0.257765
F1    F     F_    0.619064 0.667411 0.880117 -0.636129
F2    F     F_    0.302994 0.276054 0.838161 -0.646787
O10   O     O_3   0.826911 0.535219 0.790836 -0.549764
C31   C     C_3   0.864636 0.442050 0.887126 0.125655
H20   H     H_    0.943706 0.467649 0.938800 0.129654
H21   H     H_    0.867747 0.348267 0.838382 0.119733
C32   C     C_3   0.791985 0.431540 0.996026 -0.794930
H22   H     H_    0.713075 0.401945 0.948308 0.252504
H23   H     H_    0.822229 0.360539 0.073541 0.183426
H24   H     H_    0.786851 0.523032 0.047676 0.268619

loop_
_geom_bond_atom_site_label_1
_geom_bond_atom_site_label_2
_ccdc_geom_bond_type
C20   F2    S    
C32   H24   S    
C31   H21   S    
C23   C24   S    
C17   N1    A    
C15   H3    S    
C16   C21   S    
C21   H7    S    
C18   N2    A    
C25   C27   A    
C1    C8    S    
C9    C10   A    
C11   C22   S    
C23   O7    A    
C19   C20   S    
C21   H6    S    
C29   C30   S    
O3    Zn1   S    
C12   C25   S    
C22   O6    A    
O2    Zn2   S    
O9    C29   S    
C7    C15   S    
C17   C18   A    
C23   O8    A    
C6    H9    S    
O1    Zn1   S    
C30   H17   S    
C2    C6    A    
C14   H14   S    
C19   N2    A    
C25   C28   A    
O4    Zn2   S    
C11   C13   A    
C16   N1    A    
C1    O1    A    
C26   C27   A    
O6    Zn2   S    
C5    C24   A    
C14   H2    S    
C12   O3    A    
C5    C6    A    
C20   H5    S    
C26   H8    S    
C12   O4    A    
C29   H16   S    
C2    C3    A    
C18   F1    S    
C22   O5    A    
C16   C19   A    
C32   H22   S    
C4    C24   A    
O5    Zn1   S    
C1    O2    A    
C30   H18   S    
C31   C32   S    
C10   C11   A    
C27   H10   S    
C3    C4    A    
C7    C8    A    
C31   H20   S    
C20   C21   S    
C5    O10   S    
O10   C31   S    
C32   H23   S    
C17   H4    S    
C14   C15   S    
C30   H19   S    
C2    C28   A    
C7    C13   A    
N1    Zn2   S    
C28   H11   S    
O7    Zn1   S    
C13   C14   S    
C9    H12   S    
N2    Zn1   S    
C29   H15   S    
C3    C26   A    
C4    H1    S    
O8    Zn2   S    
C8    C9    A    
C10   H13   S    
C15   O9    S    
