data_mof_unit_41523.cif
_audit_creation_date              2012-12-11T15:55:52-0500
_audit_creation_method            fapswitch 2.2
_symmetry_space_group_name_H-M    P1
_symmetry_Int_Tables_number       1
_space_group_crystal_system       triclinic
_cell_length_a                    11.242849
_cell_length_b                    11.123804
_cell_length_c                    18.662272
_cell_angle_alpha                 91.130154
_cell_angle_beta                  90.520193
_cell_angle_gamma                 58.960306
_cell_volume                      1999.37402764

loop_
_atom_site_label
_atom_site_type_symbol
_atom_type_description
_atom_site_fract_x
_atom_site_fract_y
_atom_site_fract_z
_atom_type_partial_charge
Br1   Br    Br    0.702062 0.247668 0.162900 -0.455274
Br2   Br    Br    0.243648 0.645932 0.140676 -0.522989
Br3   Br    Br    0.667768 0.813968 0.359997 -0.622361
C1    C     C_R   0.360061 0.764793 0.395064 0.554299
C2    C     C_R   0.213175 0.369586 0.218375 -0.131457
C3    C     C_R   0.218847 0.382150 0.292975 -0.022695
C4    C     C_R   0.382796 0.345593 0.391715 0.555127
C5    C     C_R   0.962306 0.679748 0.450882 -0.034601
C6    C     C_R   0.005606 0.538883 0.460199 -0.061250
C7    C     C_R   0.077647 0.441327 0.405185 -0.080791
C8    C     C_R   0.103785 0.485045 0.339358 0.026084
C9    C     C_R   0.343207 0.297592 0.326023 0.006350
C10   C     C_R   0.948368 0.303403 0.194244 0.037733
C11   C     C_R   0.954006 0.194279 0.231978 0.016392
C12   C     C_R   0.591130 0.027519 0.187909 0.094709
C13   C     C_R   0.919667 0.207329 0.304402 -0.018692
C14   C     C_R   0.875716 0.440771 0.302859 -0.153317
C15   C     C_R   0.912309 0.426943 0.231412 -0.162992
C16   C     C_R   0.781136 0.376962 0.404084 0.529493
C17   C     C_3   0.874791 0.125035 0.215106 0.041375
C18   C     C_3   0.847911 0.129371 0.294809 -0.249042
C19   C     C_R   0.867370 0.335691 0.339199 0.013507
C20   C     C_R   0.368684 0.812895 0.168944 0.039008
C21   C     C_R   0.456907 0.834986 0.213400 -0.044992
C22   C     C_R   0.444964 0.829515 0.288702 0.052189
C23   C     C_R   0.325564 0.258935 0.179152 0.033385
C24   C     C_R   0.280626 0.757792 0.272870 -0.148946
C25   C     C_R   0.299035 0.751873 0.199039 0.141012
C26   C     C_3   0.608742 0.724756 0.220697 -0.269302
C27   C     C_3   0.591991 0.727040 0.299575 0.028963
C28   C     C_R   0.348175 0.760498 0.606692 0.546091
C29   C     C_R   0.347098 0.805615 0.319364 -0.032711
C30   C     C_R   0.301669 0.307904 0.809446 0.024668
C31   C     C_R   0.374729 0.188542 0.765397 0.039272
C32   C     C_R   0.382291 0.198316 0.692657 0.018433
C33   C     C_R   0.226131 0.448976 0.703471 -0.161570
C34   C     C_R   0.439832 0.171505 0.292440 -0.135611
C35   C     C_R   0.219594 0.438206 0.777601 -0.165892
C36   C     C_3   0.521914 0.070524 0.770325 -0.265815
C37   C     C_3   0.529523 0.077792 0.689938 -0.271632
C38   C     C_R   0.317791 0.330009 0.661393 0.017778
C39   C     C_R   0.855408 0.316542 0.827889 0.020498
C40   C     C_R   0.369400 0.350668 0.595016 0.547689
C41   C     C_R   0.899809 0.389871 0.786498 0.047950
C42   C     C_R   0.890037 0.393709 0.713493 0.017221
C43   C     C_R   0.802350 0.236304 0.717827 -0.164357
C44   C     C_R   0.814515 0.231682 0.792652 -0.179983
C45   C     C_R   0.447322 0.150747 0.217197 0.018903
C46   C     C_3   0.864811 0.538638 0.793176 -0.258383
C47   C     C_3   0.858990 0.542047 0.712345 -0.275507
C48   C     C_R   0.829029 0.327490 0.678462 0.017737
C49   C     C_R   0.318609 0.809959 0.832886 0.026576
C50   C     C_R   0.223434 0.789609 0.793676 0.021433
C51   C     C_R   0.231729 0.779197 0.720083 0.030139
C52   C     C_R   0.764775 0.375501 0.609253 0.544450
C53   C     C_R   0.444666 0.780398 0.723268 -0.157789
C54   C     C_R   0.438903 0.786512 0.797973 -0.156385
C55   C     C_3   0.068200 0.872956 0.791639 -0.268306
C56   C     C_R   0.051782 0.626324 0.329294 -0.082256
C57   C     C_3   0.078120 0.862356 0.710708 -0.278654
C58   C     C_R   0.334519 0.787990 0.683333 0.021042
C59   C     C_R   0.973365 0.290148 0.117449 0.546786
C60   C     C_R   0.304138 0.254111 0.101446 0.567184
C61   C     C_R   0.310011 0.894869 0.103627 0.555898
C62   C     C_R   0.887204 0.307773 0.903642 0.566430
C63   C     C_R   0.294644 0.286592 0.884949 0.572920
C64   C     C_R   0.867305 0.808237 0.146097 -0.107272
C65   C     C_R   0.277764 0.889614 0.899827 0.555904
C66   C     C_R   0.841416 0.872026 0.212850 -0.111402
C67   C     C_R   0.985278 0.723474 0.385414 -0.044594
C68   C     C_R   0.708446 0.977431 0.233145 -0.047040
C69   C     C_R   0.624718 0.952905 0.120381 -0.049802
C70   C     C_R   0.758558 0.849525 0.099457 -0.135637
Cr1   Cr    Cr6+3 0.601740 0.606840 0.505840 1.041075
Cr2   Cr    Cr6+3 0.291500 0.601560 0.495070 1.005908
Cr3   Cr    Cr6+3 0.606780 0.291630 0.499130 1.016686
Cr4   Cr    Cr6+3 0.062440 0.063060 0.008240 1.058813
Cr5   Cr    Cr6+3 0.062950 0.375000 0.998920 1.018919
Cr6   Cr    Cr6+3 0.374550 0.061770 0.992470 0.984060
H1    H     H_    0.513183 0.093012 0.327529 0.179016
H2    H     H_    0.683200 0.754884 0.206350 0.177854
H3    H     H_    0.633807 0.622914 0.195248 0.163607
H4    H     H_    0.609674 0.625181 0.318406 0.168998
H5    H     H_    0.171598 0.552418 0.680707 0.135551
H6    H     H_    0.158573 0.531972 0.810082 0.119203
H7    H     H_    0.531095 0.972178 0.788230 0.140243
H8    H     H_    0.589339 0.101034 0.799558 0.140802
H9    H     H_    0.606607 0.105788 0.673909 0.157606
H10   H     H_    0.951888 0.832391 0.378669 0.105818
H11   H     H_    0.538895 0.984930 0.661109 0.135086
H12   H     H_    0.910108 0.755174 0.494046 0.097747
H13   H     H_    0.760745 0.178282 0.691873 0.130969
H14   H     H_    0.787793 0.166492 0.822633 0.122367
H15   H     H_    0.950103 0.548672 0.816353 0.149300
H16   H     H_    0.762187 0.607706 0.818942 0.132541
H17   H     H_    0.754574 0.619106 0.692497 0.156424
H18   H     H_    0.944202 0.549714 0.687684 0.129750
H19   H     H_    0.531753 0.775952 0.696906 0.119326
H20   H     H_    0.520522 0.789159 0.827684 0.116799
H21   H     H_    0.025811 0.981212 0.812402 0.170058
H22   H     H_    0.969861 0.725961 0.130707 0.175013
H23   H     H_    0.988041 0.504487 0.510776 0.110424
H24   H     H_    0.021440 0.815335 0.814759 0.130068
H25   H     H_    0.036043 0.799582 0.686934 0.128218
H26   H     H_    0.042322 0.964513 0.684683 0.145819
H27   H     H_    0.925658 0.849991 0.247648 0.102925
H28   H     H_    0.702900 0.019566 0.285547 0.133241
H29   H     H_    0.075991 0.654955 0.279529 0.109369
H30   H     H_    0.556860 0.958679 0.081036 0.196544
H31   H     H_    0.123233 0.448569 0.190374 0.139086
H32   H     H_    0.903694 0.516700 0.204906 0.133985
H33   H     H_    0.736435 0.193767 0.309831 0.191324
H34   H     H_    0.119832 0.330872 0.414886 0.099488
H35   H     H_    0.845835 0.539364 0.328308 0.202959
H36   H     H_    0.945795 0.020666 0.190559 0.160247
H37   H     H_    0.907452 0.026602 0.321085 0.094754
H38   H     H_    0.228014 0.709452 0.294298 0.159328
H39   H     H_    0.776685 0.797382 0.047569 0.109469
O1    O     O_R   0.748670 0.497520 0.427970 -0.510241
O2    O     O_R   0.417470 0.174910 0.067830 -0.508114
O3    O     O_R   0.375160 0.946380 0.070880 -0.570431
O4    O     O_R   0.476470 0.723930 0.429450 -0.456852
O5    O     O_R   0.160500 0.919670 0.926690 -0.508803
O6    O     O_R   0.933140 0.190380 0.936050 -0.491015
O7    O     O_R   0.909010 0.403210 0.925030 -0.519855
O8    O     O_R   0.179590 0.361290 0.918480 -0.500755
O9    O     O_R   0.391360 0.170840 0.907510 -0.513732
O10   O     O_R   0.350950 0.942600 0.922260 -0.512331
O11   O     O_3   0.166650 0.166610 0.999880 -0.316976
O12   O     O_R   0.300170 0.471020 0.567120 -0.517219
O13   O     O_R   0.264730 0.744140 0.416740 -0.533115
O14   O     O_R   0.309440 0.472410 0.418220 -0.487575
O15   O     O_R   0.501630 0.260530 0.414310 -0.523881
O16   O     O_R   0.727920 0.305730 0.428950 -0.504614
O17   O     O_R   0.738670 0.496020 0.588600 -0.530583
O18   O     O_R   0.467190 0.722540 0.578350 -0.502899
O19   O     O_R   0.254720 0.742640 0.577370 -0.521468
O20   O     O_R   0.491630 0.259030 0.574940 -0.522438
O21   O     O_R   0.718640 0.304340 0.577850 -0.513961
O22   O     O_3   0.500010 0.500010 0.500020 -0.260935
O23   O     O_R   0.186620 0.923750 0.087000 -0.483960
O24   O     O_R   0.957350 0.194160 0.084660 -0.448170
O25   O     O_R   0.935120 0.407280 0.085350 -0.524261
O26   O     O_R   0.203800 0.365060 0.067090 -0.477928

loop_
_geom_bond_atom_site_label_1
_geom_bond_atom_site_label_2
_ccdc_geom_bond_type
C41   C46   S    
Cr6   O10   S    
C13   C18   S    
C68   H28   S    
C28   C58   S    
C53   H19   S    
C59   O25   A    
C51   C57   S    
C50   C51   A    
C63   O9    A    
C16   O16   A    
C12   C69   A    
Cr6   O3    S    
C10   C15   A    
Cr5   O11   S    
C4    O15   A    
Cr2   O22   S    
C3    C9    A    
C2    C3    A    
C43   H13   S    
C61   O23   A    
C42   C48   A    
C55   C57   S    
C61   O3    A    
Cr6   O11   S    
C27   H4    S    
C52   O21   A    
C53   C54   A    
C40   O20   A    
Cr1   O1    S    
C31   C32   A    
C62   O6    A    
C9    C34   A    
C66   C68   A    
Cr4   O24   S    
C69   H30   S    
C10   C59   S    
C5    C6    A    
Br1   C17   S    
Cr1   O18   S    
C30   C63   S    
C39   C62   S    
C60   O26   A    
C64   C70   A    
C14   C19   A    
C36   H8    S    
C46   H15   S    
C28   O19   A    
C6    C7    A    
C65   O10   A    
C49   C65   S    
Cr2   O12   S    
C23   C45   A    
C69   C70   A    
C22   C29   A    
Cr3   O22   S    
C16   O1    A    
C10   C11   A    
Cr1   O17   S    
C38   C40   S    
C33   C38   A    
C39   C41   A    
C12   C45   S    
C59   O24   A    
C18   H37   S    
C8    C56   A    
C65   O5    A    
Cr2   O13   S    
C14   H35   S    
C14   C15   A    
C1    O13   A    
C24   H38   S    
C4    C9    S    
C34   H1    S    
C35   H6    S    
C49   C54   A    
C31   C36   S    
C11   C17   S    
C16   C19   S    
C55   H21   S    
C21   C22   A    
Cr2   O19   S    
C3    C8    S    
Cr3   O16   S    
C6    H23   S    
C56   C67   A    
C66   H27   S    
Cr1   O22   S    
C43   C48   A    
C63   O8    A    
C64   C66   A    
C62   O7    A    
Br3   C27   S    
C23   C60   S    
C26   H2    S    
C26   C27   S    
Cr4   O5    S    
Cr5   O26   S    
Cr3   O15   S    
Cr6   O2    S    
C30   C31   A    
C44   H14   S    
C1    O4    A    
C5    H12   S    
Cr4   O11   S    
C20   C25   A    
C46   H16   S    
C34   C45   A    
C4    O14   A    
C1    C29   S    
C7    H34   S    
C20   C61   S    
Cr1   O4    S    
C11   C13   A    
C67   H10   S    
C15   H32   S    
Cr5   O8    S    
C36   C37   S    
C18   H33   S    
Cr2   O14   S    
C64   H22   S    
Cr3   O21   S    
C22   C27   S    
Cr6   O9    S    
C43   C44   A    
C47   H18   S    
C13   C19   A    
C70   H39   S    
C24   C29   A    
C40   O12   A    
C41   C42   A    
C30   C35   A    
C28   O18   A    
C17   H36   S    
C50   C55   S    
C51   C58   A    
Cr3   O20   S    
C12   C68   A    
C5    C67   A    
C56   H29   S    
C37   H9    S    
C33   C35   A    
C32   C37   S    
C26   H3    S    
Cr4   O6    S    
Cr5   O25   S    
C60   O2    A    
C47   H17   S    
C42   C47   S    
C33   H5    S    
C52   O17   A    
C48   C52   S    
C39   C44   A    
C32   C38   A    
Cr4   O23   S    
C7    C8    A    
C20   C21   A    
C2    C23   A    
C21   C26   S    
C17   C18   S    
C46   C47   S    
C2    H31   S    
C24   C25   A    
C53   C58   A    
Br2   C25   S    
C55   H24   S    
C36   H7    S    
C37   H11   S    
C57   H25   S    
Cr5   O7    S    
C57   H26   S    
C49   C50   A    
C54   H20   S    
