data_mof_unit_8973.cif
_audit_creation_date              2013-03-05T15:52:26-0500
_audit_creation_method            fapswitch 2.2
_symmetry_space_group_name_H-M    P1
_symmetry_Int_Tables_number       1
_space_group_crystal_system       triclinic
_cell_length_a                    27.783483
_cell_length_b                    10.849579
_cell_length_c                    9.561953
_cell_angle_alpha                 91.040435
_cell_angle_beta                  89.997004
_cell_angle_gamma                 93.414151
_cell_volume                      2876.75481412

loop_
_atom_site_label
_atom_site_type_symbol
_atom_site_description
_atom_site_fract_x
_atom_site_fract_y
_atom_site_fract_z
_atom_type_partial_charge
O1    O     O_R   0.500000 0.319640 0.618810 -0.586773
O2    O     O_R   0.500000 0.319660 0.381240 -0.580814
C1    C     C_R   0.504169 0.263548 0.499198 0.805508
O3    O     O_R   0.430260 0.500010 0.618770 -0.518082
O4    O     O_R   0.430270 0.500030 0.381200 -0.593022
C2    C     C_R   0.407375 0.497986 0.500024 0.849495
Cu1   Cu    Cu3+1 0.500000 0.499990 0.640660 0.948469
Cu2   Cu    Cu3+1 0.500000 0.500010 0.359340 0.934236
O5    O     O_R   0.500000 0.680340 0.618760 -0.613710
O6    O     O_R   0.500000 0.680360 0.381190 -0.598295
O7    O     O_R   0.569730 0.499970 0.618800 -0.611169
O8    O     O_R   0.569740 0.499990 0.381230 -0.600237
C3    C     C_R   0.498349 0.738078 0.502374 0.786342
C4    C     C_R   0.592551 0.501408 0.500020 0.793157
C5    C     C_R   0.173983 0.386102 0.474851 0.556614
O9    O     O_2   0.195498 0.278323 0.460379 -0.533232
N1    N     N_R   0.201507 0.494398 0.488569 -0.459563
C6    C     C_R   0.180943 0.605308 0.502633 0.557100
C7    C     C_R   0.280009 0.528176 0.374091 -0.104852
C8    C     C_R   0.330134 0.529200 0.377938 -0.297906
C9    C     C_R   0.326865 0.457089 0.617883 0.391936
C10   C     C_R   0.276243 0.456044 0.612115 -0.205631
C11   C     C_R   0.253001 0.491838 0.491065 0.319208
C12   C     C_R   0.101502 0.499923 0.490436 -0.056897
C13   C     C_R   0.123421 0.386792 0.475488 -0.047647
C14   C     C_R   0.094639 0.277494 0.457586 -0.216792
C15   C     C_R   0.130572 0.610166 0.503880 -0.051067
C16   C     C_R   0.354132 0.494797 0.499446 -0.080230
H1    H     H_    0.254726 0.428159 0.701886 0.133445
H2    H     H_    0.111183 0.190936 0.437615 0.182418
C17   C     C_R   0.645598 0.505137 0.499755 -0.059817
C18   C     C_R   0.971428 0.395359 0.513254 0.057674
C19   C     C_R   0.978264 0.618841 0.478376 0.005442
C20   C     C_R   0.949519 0.508767 0.497023 0.049960
C21   C     C_R   0.942476 0.292114 0.557117 -0.178726
C22   C     C_R   0.892721 0.296535 0.566572 -0.176918
C23   C     C_R   0.870285 0.404382 0.533345 0.004167
C24   C     C_R   0.898589 0.511780 0.499378 -0.098390
C25   C     C_R   0.876077 0.621527 0.467768 -0.072021
C26   C     C_R   0.825094 0.618939 0.468441 0.595571
N2    N     N_R   0.798537 0.512892 0.500721 -0.462576
C27   C     C_R   0.820023 0.407343 0.534444 0.511360
C28   C     C_R   0.721519 0.516691 0.371548 0.304609
C29   C     C_R   0.671069 0.514342 0.373052 -0.291648
C30   C     C_R   0.671207 0.500386 0.625913 -0.199133
C31   C     C_R   0.721396 0.503709 0.625281 -0.152568
C32   C     C_R   0.746811 0.511598 0.498890 0.331869
O10   O     O_2   0.792647 0.304759 0.566507 -0.544706
C33   C     C_R   0.021715 0.390316 0.488843 0.016136
C34   C     C_R   0.050639 0.502811 0.492370 -0.023783
C35   C     C_R   0.028944 0.618178 0.498246 0.034174
C36   C     C_R   0.044288 0.278117 0.459332 0.232734
H3    H     H_    0.651907 0.518495 0.274711 0.163119
H4    H     H_    0.871866 0.214596 0.599290 0.180421
H5    H     H_    0.957865 0.208123 0.589496 0.174775
O11   O     O_2   0.209209 0.710386 0.516592 -0.530689
C37   C     C_R   0.109003 0.722213 0.523648 -0.214551
H6    H     H_    0.350184 0.558454 0.285981 0.182433
H7    H     H_    0.262078 0.556182 0.280307 0.150384
H8    H     H_    0.131161 0.806475 0.542590 0.189721
C38   C     C_R   0.955546 0.724777 0.436888 -0.237310
C39   C     C_R   0.905309 0.728081 0.433157 0.249879
O12   O     O_2   0.801985 0.720889 0.437725 -0.493448
C40   C     C_R   0.058834 0.727364 0.525987 0.236714
H9    H     H_    0.976415 0.805909 0.402767 0.181086
H10   H     H_    0.652512 0.493823 0.725162 0.165008
H11   H     H_    0.740709 0.499910 0.723344 0.151313
H12   H     H_    0.488881 0.106226 0.281163 0.160025
C41   C     C_R   0.545806 0.131874 0.736696 -0.164862
H13   H     H_    0.563987 0.221269 0.721025 0.158593
C42   C     C_R   0.547525 0.077423 0.868942 0.336043
C43   C     C_R   0.523560 0.961965 0.886052 -0.197855
H14   H     H_    0.521409 0.920816 0.988434 0.135367
C44   C     C_R   0.503923 0.895802 0.771206 -0.200649
H15   H     H_    0.484414 0.809893 0.794215 0.184188
C45   C     C_R   0.507577 0.943806 0.634587 0.109067
C46   C     C_R   0.521363 0.070021 0.623185 0.042429
C47   C     C_R   0.509693 0.130619 0.498905 -0.097204
C48   C     C_R   0.496702 0.061722 0.378423 -0.206311
H16   H     H_    0.484947 0.883636 0.285373 0.165910
C49   C     C_R   0.493001 0.934338 0.382055 -0.207296
C50   C     C_R   0.497844 0.873334 0.508836 -0.090881
H17   H     H_    0.443842 0.362399 0.126763 0.141897
C51   C     C_R   0.565978 0.661761 0.147401 -0.212586
H18   H     H_    0.568286 0.671792 0.257801 0.222209
C52   C     C_R   0.599080 0.738454 0.076636 -0.342716
H19   H     H_    0.624160 0.799286 0.135893 0.165274
C53   C     C_R   0.599424 0.738361 0.931326 0.416167
C54   C     C_R   0.566084 0.661018 0.858490 -0.168791
H20   H     H_    0.567387 0.671270 0.748425 0.223555
C55   C     C_R   0.532527 0.579291 0.926677 0.093479
C56   C     C_R   0.532496 0.579398 0.076379 0.211375
N3    N     N_R   0.500460 0.501210 0.147910 -0.190602
C57   C     C_R   0.469061 0.424444 0.072472 -0.067477
H21   H     H_    0.443798 0.362604 0.867448 0.173957
C58   C     C_R   0.469014 0.424629 0.924300 -0.029273
N4    N     N_R   0.500480 0.501290 0.852040 -0.199835
O13   O     O_3   0.350000 0.420184 0.736591 -0.730196
H22   H     H_    0.325618 0.396854 0.808650 0.319600
N5    N     N_2   0.884943 0.839333 0.392866 -0.371161
H23   H     H_    0.900859 0.877380 0.304870 0.239511
C59   C     C_3   0.882139 0.929641 0.505290 -0.594185
H24   H     H_    0.918924 0.962973 0.539943 0.200478
H25   H     H_    0.861911 0.889082 0.595335 0.245408
H26   H     H_    0.862856 0.009517 0.467950 0.233854
N6    N     N_2   0.039422 0.840485 0.569750 -0.452867
H27   H     H_    0.061882 0.917722 0.551996 0.241443
C60   C     C_3   0.020215 0.840511 0.710442 -0.675017
H28   H     H_    0.003793 0.929663 0.732463 0.220757
H29   H     H_    0.049543 0.829170 0.787360 0.230583
H30   H     H_    0.991839 0.765034 0.722835 0.242986
N7    N     N_2   0.572559 0.135213 0.985906 -0.431817
H31   H     H_    0.561143 0.106444 0.083344 0.246616
C61   C     C_3   0.590448 0.263047 0.979551 -0.669629
H32   H     H_    0.607407 0.292180 0.080998 0.228326
H33   H     H_    0.560395 0.322853 0.959085 0.231276
H34   H     H_    0.618371 0.274535 0.896973 0.230162
O14   O     O_3   0.631055 0.814984 0.856846 -0.716446
H35   H     H_    0.651765 0.865129 0.923531 0.335849
N8    N     N_2   0.746696 0.525528 0.242215 -0.415943
H36   H     H_    0.729636 0.575930 0.168540 0.256516
C62   C     C_3   0.760666 0.408517 0.185395 -0.664088
H37   H     H_    0.781618 0.424348 0.087804 0.228822
H38   H     H_    0.728137 0.347367 0.160583 0.225038
H39   H     H_    0.783724 0.362169 0.260538 0.251024
N9    N     N_2   0.017205 0.167671 0.418224 -0.452192
H40   H     H_    0.034170 0.087741 0.437104 0.247510
C63   C     C_3   0.997461 0.168546 0.278247 -0.672538
H41   H     H_    0.974935 0.081953 0.258496 0.220712
H42   H     H_    0.027068 0.174541 0.200050 0.227601
H43   H     H_    0.974336 0.247637 0.265601 0.244533

loop_
_geom_bond_atom_site_label_1
_geom_bond_atom_site_label_2
_geom_bond_distance
_ccdc_geom_bond_type
N3    C57   1.366298 A    
C10   H1    1.083314 S    
N2    C27   1.366227 A    
C41   C46   1.417378 A    
H21   C58   1.081568 S    
C12   C15   1.406710 A    
C4    C17   1.471981 S    
C63   H41   1.110650 S    
N7    C61   1.447521 S    
C49   C50   1.401977 A    
Cu1   Cu2   2.689973 S    
C46   C47   1.415416 A    
Cu1   O7    1.948587 S    
N1    C11   1.432833 S    
C26   O12   1.348473 S    
C44   C45   1.416507 A    
C22   C23   1.399645 A    
C51   C52   1.387552 A    
C24   C25   1.414977 A    
O7    C4    1.300625 A    
C52   C53   1.389465 A    
C5    C13   1.405253 A    
N6    H27   1.031159 S    
C5    O9    1.349547 S    
O13   H22   0.991755 S    
C60   H28   1.110528 S    
C59   H26   1.110003 S    
C5    N1    1.367460 A    
C23   C27   1.398788 A    
C41   C42   1.407410 A    
O5    C3    1.289095 A    
O14   H35   0.991874 S    
N5    H23   1.031868 S    
C29   H3    1.083577 S    
C2    C16   1.477628 S    
C7    C8    1.392529 A    
C60   H29   1.111453 S    
C54   C55   1.415301 A    
C38   C39   1.398825 A    
C6    O11   1.349860 S    
C28   N8    1.422702 S    
C53   C54   1.390499 A    
H12   C48   1.083545 S    
O1    Cu1   1.964068 S    
C9    C10   1.406911 A    
C42   N7    1.431921 S    
C41   H13   1.079460 S    
O3    Cu1   1.948919 S    
N7    H31   1.031899 S    
N8    C62   1.446079 S    
C34   C35   1.421440 A    
C12   C34   1.415472 A    
C17   C29   1.405163 A    
C35   C40   1.426464 A    
C21   H5    1.079681 S    
C18   C21   1.409755 A    
C51   H18   1.060821 S    
C12   C13   1.407314 A    
C43   C44   1.394165 A    
C15   C37   1.396821 A    
C61   H32   1.110882 S    
C45   C50   1.430230 A    
C55   C56   1.431418 A    
C48   C49   1.380832 A    
C36   N9    1.425537 S    
C47   C48   1.397447 A    
H16   C49   1.083613 S    
C37   H8    1.083763 S    
C8    C16   1.406851 A    
C7    H7    1.082886 S    
C13   C14   1.398095 A    
C30   C31   1.392762 A    
H17   C57   1.081682 S    
C3    C50   1.468560 S    
C55   N4    1.380828 A    
O1    C1    1.294214 A    
C21   C22   1.388949 A    
C18   C20   1.415875 A    
C57   C58   1.416855 A    
C28   C29   1.400468 A    
C23   C24   1.409315 A    
C14   C36   1.399451 A    
Cu2   O8    1.948914 S    
C33   C36   1.425918 A    
C58   N4    1.366634 A    
N5    C59   1.446553 S    
N1    C6    1.366930 A    
N2    C32   1.436460 S    
C27   O10   1.350114 S    
C45   C46   1.405964 A    
C59   H25   1.111341 S    
C39   N5    1.422604 S    
O3    C2    1.300576 A    
C26   N2    1.369400 A    
C9    C16   1.415501 A    
O8    C4    1.300145 A    
C14   H2    1.083789 S    
C17   C30   1.403845 A    
C8    H6    1.083157 S    
C63   H43   1.110497 S    
C25   C26   1.415110 A    
C62   H38   1.111820 S    
N8    H36   1.031930 S    
C52   H19   1.083446 S    
C37   C40   1.398453 A    
Cu1   O5    1.971672 S    
C25   C39   1.416927 A    
C31   C32   1.401063 A    
N9    C63   1.446934 S    
Cu1   N4    2.021039 S    
C20   C24   1.417517 A    
Cu2   O6    1.964068 S    
O2    Cu2   1.971672 S    
C6    C15   1.403662 A    
C43   H14   1.083492 S    
O6    C3    1.309203 A    
C63   H42   1.111433 S    
O4    Cu2   1.948590 S    
C61   H33   1.107116 S    
C40   N6    1.425642 S    
C19   C35   1.421287 A    
C60   H30   1.110312 S    
C53   O14   1.380229 S    
C62   H39   1.109541 S    
O2    C1    1.299832 A    
C62   H37   1.110421 S    
C31   H11   1.083027 S    
C9    O13   1.381709 S    
O4    C2    1.302002 A    
N6    C60   1.447238 S    
N9    H40   1.030153 S    
C56   N3    1.382298 A    
C19   C20   1.410670 A    
C59   H24   1.112095 S    
C18   C33   1.420595 A    
C61   H34   1.110345 S    
C22   H4    1.082899 S    
C38   H9    1.080312 S    
C7    C11   1.396494 A    
C42   C43   1.395484 A    
C44   H15   1.076203 S    
C19   C38   1.407046 A    
C33   C34   1.420665 A    
Cu2   N3    2.021997 S    
C30   H10   1.083278 S    
C10   C11   1.397778 A    
C51   C56   1.415659 A    
C54   H20   1.060701 S    
C1    C47   1.459379 S    
C28   C32   1.409474 A    
