data_mof_unit_26504.cif
_audit_creation_date              2012-12-10T17:27:48-0500
_audit_creation_method            fapswitch 2.2
_symmetry_space_group_name_H-M    P1
_symmetry_Int_Tables_number       1
_space_group_crystal_system       triclinic
_cell_length_a                    10.623129
_cell_length_b                    12.02516
_cell_length_c                    12.837935
_cell_angle_alpha                 92.363342
_cell_angle_beta                  92.093279
_cell_angle_gamma                 83.495342
_cell_volume                      1627.19828846

loop_
_atom_site_label
_atom_site_type_symbol
_atom_type_description
_atom_site_fract_x
_atom_site_fract_y
_atom_site_fract_z
_atom_type_partial_charge
C1    C     C_R   0.487688 0.520234 0.701231 0.910155
C2    C     C_R   0.386690 0.629311 0.855355 0.118735
C3    C     C_R   0.458690 0.426332 0.870407 0.061105
C4    C     C_R   0.739150 0.494779 0.486716 0.906959
C5    C     C_R   0.426200 0.436217 0.975921 0.030282
C6    C     C_R   0.406160 0.543843 0.023939 0.008408
C7    C     C_R   0.434372 0.554957 0.130578 -0.315665
C8    C     C_R   0.494971 0.354462 0.138927 0.176435
C9    C     C_R   0.439849 0.342463 0.040165 0.201939
C10   C     C_R   0.340857 0.962097 0.452611 0.090475
C11   C     C_R   0.376925 0.848220 0.428328 0.353108
C12   C     C_R   0.952186 0.397828 0.514888 0.073454
C13   C     C_R   0.558405 0.852338 0.538879 -0.126082
C14   C     C_R   0.545572 0.972261 0.539527 -0.008275
C15   C     C_R   0.436616 0.028255 0.490593 -0.056605
C16   C     C_R   0.503064 0.478079 0.298836 0.861744
C17   C     C_R   0.430847 0.146241 0.475367 0.280008
C18   C     C_R   0.620952 0.155487 0.577017 -0.134568
C19   C     C_R   0.635934 0.037865 0.588056 0.106898
C20   C     C_R   0.258917 0.502214 0.499252 0.889438
C21   C     C_R   0.928524 0.285384 0.529586 0.232617
C22   C     C_R   0.993228 0.228629 0.612762 -0.227309
C23   C     C_R   0.871544 0.479485 0.461687 -0.240817
C24   C     C_R   0.087098 0.277461 0.671163 -0.178839
C25   C     C_R   0.128507 0.375782 0.638118 -0.153109
C26   C     C_R   0.067376 0.430011 0.551491 -0.000618
C27   C     C_3   0.841918 0.629629 0.323983 -0.372600
C28   C     C_3   0.832753 0.752472 0.361457 -0.822437
C29   C     C_3   0.370281 0.240971 0.016442 -0.924280
C30   C     C_3   0.344352 0.727831 0.786551 -0.848290
C31   C     C_3   0.525567 0.312385 0.830808 -0.299381
C32   C     C_3   0.434415 0.238765 0.772057 -0.811917
C33   C     C_3   0.331607 0.200017 0.399987 -0.872590
C34   C     C_R   0.923726 0.555162 0.399242 0.132818
C35   C     C_3   0.199945 0.003321 0.457644 -0.418020
C36   C     C_3   0.126111 0.923977 0.515673 -0.872583
C37   C     C_3   0.748082 0.985993 0.652301 -0.433742
C38   C     C_3   0.707963 0.951850 0.758439 -0.864004
C39   C     C_3   0.319607 0.794978 0.333966 -0.917812
C40   C     C_3   0.868563 0.215494 0.443379 -0.415196
C41   C     C_3   0.936150 0.218444 0.340653 -0.898192
C42   C     C_3   0.121289 0.580381 0.305721 -0.931989
C43   C     C_3   0.569354 0.252824 0.186337 -0.885992
C44   C     C_3   0.302885 0.745022 0.016802 -0.398892
C45   C     C_R   0.056166 0.552062 0.402475 0.183710
C46   C     C_3   0.393543 0.834822 0.032332 -0.879155
C47   C     C_R   0.123970 0.503767 0.490061 -0.159955
C48   C     C_R   0.484617 0.462496 0.187002 -0.114346
C49   C     C_R   0.447991 0.526751 0.811264 -0.193248
C50   C     C_R   0.366725 0.638007 0.964079 0.188300
H1    H     H_    0.688579 0.206044 0.614811 0.151095
H2    H     H_    0.880034 0.621079 0.244444 0.196940
H3    H     H_    0.745031 0.604154 0.313910 0.209716
H4    H     H_    0.339811 0.207415 0.089706 0.243672
H5    H     H_    0.281347 0.264970 0.970903 0.236796
H6    H     H_    0.431064 0.172419 0.976545 0.248451
H7    H     H_    0.281117 0.796206 0.823010 0.224527
H8    H     H_    0.428209 0.766559 0.762469 0.251569
H9    H     H_    0.289565 0.699022 0.717198 0.244110
H10   H     H_    0.343814 0.240828 0.811327 0.235221
H11   H     H_    0.408654 0.265553 0.692337 0.288589
H12   H     H_    0.635475 0.806088 0.581224 0.164517
H13   H     H_    0.478441 0.150692 0.766755 0.236064
H14   H     H_    0.610241 0.321397 0.785334 0.199872
H15   H     H_    0.573024 0.264075 0.895590 0.177378
H16   H     H_    0.244075 0.232382 0.440573 0.246316
H17   H     H_    0.363306 0.269776 0.360640 0.285900
H18   H     H_    0.309549 0.140545 0.335312 0.197245
H19   H     H_    0.125047 0.842014 0.472911 0.274299
H20   H     H_    0.168816 0.910230 0.595053 0.261378
H21   H     H_    0.026294 0.961343 0.523283 0.235153
H22   H     H_    0.185802 0.083738 0.502771 0.236832
H23   H     H_    0.977680 0.143881 0.628394 0.128472
H24   H     H_    0.157712 0.014922 0.377979 0.208805
H25   H     H_    0.670791 0.027216 0.805443 0.253161
H26   H     H_    0.633915 0.893743 0.750125 0.255111
H27   H     H_    0.791430 0.909337 0.801114 0.248847
H28   H     H_    0.797946 0.913097 0.609089 0.198653
H29   H     H_    0.818364 0.046574 0.666962 0.194350
H30   H     H_    0.389960 0.788339 0.271970 0.228857
H31   H     H_    0.297660 0.711934 0.351685 0.290698
H32   H     H_    0.232371 0.843999 0.303503 0.219019
H33   H     H_    0.039774 0.196892 0.352637 0.261982
H34   H     H_    0.135947 0.233378 0.735217 0.144224
H35   H     H_    0.900102 0.156988 0.283317 0.250279
H36   H     H_    0.917984 0.302917 0.307738 0.260725
H37   H     H_    0.874830 0.126560 0.465424 0.193828
H38   H     H_    0.766942 0.241120 0.428278 0.247308
H39   H     H_    0.224042 0.552039 0.307776 0.240269
H40   H     H_    0.083338 0.534313 0.236979 0.232479
H41   H     H_    0.103707 0.671296 0.292378 0.244916
H42   H     H_    0.509633 0.211048 0.237882 0.256028
H43   H     H_    0.603884 0.190732 0.124396 0.231023
H44   H     H_    0.654958 0.276739 0.230071 0.244489
H45   H     H_    0.210956 0.406060 0.676849 0.147717
H46   H     H_    0.425635 0.860208 0.956472 0.268760
H47   H     H_    0.344605 0.909841 0.073141 0.248579
H48   H     H_    0.477913 0.803108 0.080512 0.254954
H49   H     H_    0.215485 0.777549 0.973151 0.197656
H50   H     H_    0.265506 0.728382 0.093525 0.199501
H51   H     H_    0.427458 0.636415 0.168791 0.189965
H52   H     H_    0.798191 0.762597 0.442166 0.263518
H53   H     H_    0.926627 0.784424 0.360199 0.246271
H54   H     H_    0.765500 0.803659 0.309511 0.240141
N1    N     N_R   0.523130 0.207800 0.519340 -0.117668
N2    N     N_R   0.476870 0.792180 0.480660 -0.110802
O1    O     O_R   0.506170 0.421690 0.658830 -0.617754
O2    O     O_R   0.491330 0.609320 0.646410 -0.607794
O3    O     O_R   0.690660 0.406170 0.506210 -0.636783
O4    O     O_R   0.675810 0.593790 0.493790 -0.607294
O5    O     O_R   0.508670 0.390680 0.353590 -0.624930
O6    O     O_R   0.493830 0.578310 0.341170 -0.633100
O7    O     O_R   0.324190 0.406210 0.506210 -0.619879
O8    O     O_R   0.309340 0.593830 0.493790 -0.622040
Zn1   Zn    Zn3+2 0.509910 0.374720 0.508290 0.907118
Zn2   Zn    Zn3+2 0.490090 0.625280 0.491710 0.924622

loop_
_geom_bond_atom_site_label_1
_geom_bond_atom_site_label_2
_ccdc_geom_bond_type
C4    O3    A    
C35   H24   S    
C35   C36   S    
C8    C43   S    
C16   C48   S    
C3    C49   A    
C38   H26   S    
C27   H2    S    
C41   H36   S    
C37   H29   S    
C12   C23   A    
C16   O6    A    
C40   H37   S    
C32   H11   S    
C42   H41   S    
C10   C15   A    
C20   O7    A    
C44   H49   S    
C29   H4    S    
C41   H33   S    
C30   H7    S    
C43   H44   S    
C31   H15   S    
C18   C19   A    
C19   C37   S    
C13   H12   S    
C44   C46   S    
C8    C9    A    
C18   H1    S    
C10   C35   S    
C2    C50   A    
C36   H21   S    
C9    C29   S    
C46   H48   S    
C13   C14   A    
C17   C33   S    
C14   C19   A    
C36   H20   S    
C33   H16   S    
C38   H25   S    
C45   C47   A    
C27   C34   S    
C24   C25   A    
C39   H31   S    
C4    C23   S    
C29   H5    S    
C25   C26   A    
C12   C21   A    
N2    Zn2   S    
C42   H40   S    
C42   C45   S    
C3    C31   S    
C8    C48   A    
C5    C9    A    
C37   C38   S    
C2    C49   A    
C17   N1    A    
C28   H54   S    
C31   C32   S    
C23   C34   A    
C30   H9    S    
C11   N2    A    
C34   C45   A    
C6    C50   A    
C11   C39   S    
O1    Zn1   S    
C26   C47   A    
C1    O1    A    
C40   C41   S    
C29   H6    S    
C46   H47   S    
C35   H22   S    
C25   H45   S    
C22   C24   A    
C32   H10   S    
O4    Zn2   S    
O6    Zn2   S    
C36   H19   S    
C33   H17   S    
C44   C50   S    
C15   C17   A    
C4    O4    A    
C39   H32   S    
C31   H14   S    
N1    Zn1   S    
C32   H13   S    
C13   N2    A    
C3    C5    A    
O8    Zn2   S    
C27   H3    S    
C6    C7    A    
C38   H27   S    
C41   H35   S    
C37   H28   S    
C43   H42   S    
C2    C30   S    
C42   H39   S    
C7    C48   A    
O2    Zn2   S    
C24   H34   S    
C18   N1    A    
C39   H30   S    
C20   O8    A    
C44   H50   S    
C28   H53   S    
C40   H38   S    
C5    C6    A    
C21   C40   S    
C30   H8    S    
C43   H43   S    
C20   C47   S    
C10   C11   A    
O3    Zn1   S    
C1    O2    A    
C28   H52   S    
C46   H46   S    
C16   O5    A    
C7    H51   S    
C12   C26   A    
C27   C28   S    
C14   C15   A    
O5    Zn1   S    
C22   H23   S    
C21   C22   A    
C1    C49   S    
C33   H18   S    
O7    Zn1   S    
