data_mof_unit_27159.cif
_audit_creation_date              2012-12-10T16:52:03-0500
_audit_creation_method            fapswitch 2.2
_symmetry_space_group_name_H-M    P1
_symmetry_Int_Tables_number       1
_space_group_crystal_system       triclinic
_cell_length_a                    7.834889
_cell_length_b                    8.540486
_cell_length_c                    14.886385
_cell_angle_alpha                 91.803868
_cell_angle_beta                  85.187974
_cell_angle_gamma                 93.472022
_cell_volume                      990.422084397

loop_
_atom_site_label
_atom_site_type_symbol
_atom_type_description
_atom_site_fract_x
_atom_site_fract_y
_atom_site_fract_z
_atom_type_partial_charge
C1    C     C_R   0.545385 0.794408 0.498134 0.969467
C2    C     C_R   0.545067 0.633447 0.812695 -0.264492
C3    C     C_R   0.497336 0.506256 0.232427 -0.086382
C4    C     C_R   0.502664 0.493744 0.767573 -0.086382
C5    C     C_R   0.540213 0.646729 0.187359 -0.063594
C6    C     C_R   0.459787 0.353271 0.812641 -0.063594
C7    C     C_R   0.541184 0.645377 0.093245 0.075485
C8    C     C_R   0.458816 0.354623 0.906755 0.075485
C9    C     C_R   0.499286 0.502172 0.046960 0.051663
C10   C     C_R   0.500714 0.497828 0.953039 0.051663
C11   C     C_R   0.456064 0.363023 0.094551 0.127989
C12   C     C_R   0.454615 0.205592 0.501866 0.969468
C13   C     C_R   0.543936 0.636977 0.905449 0.127989
C14   C     C_R   0.583343 0.782454 0.044155 -0.210552
C15   C     C_R   0.416657 0.217546 0.955845 -0.210552
C16   C     C_1   0.582276 0.790129 0.237947 0.141975
C17   C     C_1   0.417724 0.209871 0.762053 0.141975
C18   C     C_1   0.026115 0.349164 0.416470 0.414244
C19   C     C_1   0.973885 0.650836 0.583530 0.414244
C20   C     C_R   0.584642 0.777950 0.950988 -0.207411
C21   C     C_R   0.415358 0.222050 0.049012 -0.207411
C22   C     C_2   0.569307 0.957998 0.497372 -0.335911
C23   C     C_2   0.430693 0.042002 0.502628 -0.335911
C24   C     C_R   0.500913 0.498598 0.672448 0.899032
C25   C     C_R   0.499087 0.501402 0.327552 0.899032
C26   C     C_R   0.454933 0.366553 0.187305 -0.264492
H1    H     H_    0.422792 0.260267 0.224835 0.153425
H2    H     H_    0.577208 0.739733 0.775165 0.153425
H3    H     H_    0.615847 0.893752 0.077144 0.162062
H4    H     H_    0.384153 0.106248 0.922856 0.162062
H5    H     H_    0.617589 0.884894 0.914469 0.154899
H6    H     H_    0.382411 0.115106 0.085531 0.154899
H7    H     H_    0.700434 0.008689 0.492205 0.181944
H8    H     H_    0.299566 0.991310 0.507795 0.181944
N1    N     N_2   0.950330 0.457950 0.475660 -0.158836
N2    N     N_2   0.049670 0.542050 0.524340 -0.158836
N3    N     N_1   0.615888 0.904707 0.277902 -0.213839
N4    N     N_1   0.384112 0.095293 0.722098 -0.213839
N5    N     N_1   0.087401 0.257674 0.366654 -0.248338
N6    N     N_1   0.912599 0.742326 0.633346 -0.248338
O1    O     O_R   0.389250 0.738570 0.505970 -0.625861
O2    O     O_R   0.610750 0.261430 0.494030 -0.625861
O3    O     O_R   0.678390 0.711620 0.490370 -0.632630
O4    O     O_R   0.321610 0.288380 0.509630 -0.632631
O5    O     O_R   0.355420 0.513510 0.639950 -0.619361
O6    O     O_R   0.644580 0.486490 0.360050 -0.619361
O7    O     O_R   0.644560 0.486560 0.624350 -0.627926
O8    O     O_R   0.355440 0.513440 0.375650 -0.627926
Zn1   Zn    Zn3+2 0.306940 0.517990 0.510420 0.962950
Zn2   Zn    Zn3+2 0.693060 0.482010 0.489580 0.962950

loop_
_geom_bond_atom_site_label_1
_geom_bond_atom_site_label_2
_ccdc_geom_bond_type
O4    Zn1   S    
C2    C4    A    
C18   N5    T    
C8    C10   A    
O3    Zn2   S    
C11   C26   A    
C8    C15   A    
C2    H2    S    
C9    C10   A    
O6    Zn2   S    
N1    N2    D    
C25   O8    A    
O5    Zn1   S    
C16   N3    T    
C17   N4    T    
C23   H8    S    
N1    Zn2   S    
C1    C22   S    
C12   O4    A    
C10   C13   A    
C9    C11   A    
C12   C23   S    
C26   H1    S    
C15   C21   A    
O2    Zn2   S    
C24   O5    A    
O1    Zn1   S    
O8    Zn1   S    
C11   C21   A    
O7    Zn2   S    
C7    C9    A    
C19   N2    S    
C3    C26   A    
C4    C24   S    
C21   H6    S    
C19   N6    T    
C14   H3    S    
C12   O2    A    
C14   C20   A    
C3    C25   S    
C2    C13   A    
C15   H4    S    
C4    C6    A    
C18   N1    S    
C1    O1    A    
C5    C7    A    
C6    C17   S    
C22   C23   D    
C5    C16   S    
C6    C8    A    
C13   C20   A    
C24   O7    A    
C25   O6    A    
C1    O3    A    
C7    C14   A    
N2    Zn1   S    
C3    C5    A    
C20   H5    S    
C22   H7    S    
