data_mof_unit_7653.cif
_audit_creation_date              2012-12-11T16:05:01-0500
_audit_creation_method            fapswitch 2.2
_symmetry_space_group_name_H-M    P1
_symmetry_Int_Tables_number       1
_space_group_crystal_system       triclinic
_cell_length_a                    10.564801
_cell_length_b                    10.644162
_cell_length_c                    16.860969
_cell_angle_alpha                 98.98571
_cell_angle_beta                  98.474217
_cell_angle_gamma                 62.680784
_cell_volume                      1657.718646

loop_
_atom_site_label
_atom_site_type_symbol
_atom_type_description
_atom_site_fract_x
_atom_site_fract_y
_atom_site_fract_z
_atom_type_partial_charge
C1    C     C_R   0.354716 0.776374 0.399562 0.557416
C2    C     C_3   0.690223 0.490695 0.252000 -0.137693
C3    C     C_3   0.759354 0.376301 0.310090 0.040750
C4    C     C_3   0.743854 0.266470 0.244380 0.251639
C5    C     C_3   0.893776 0.227133 0.221312 -0.063276
C6    C     C_3   0.908670 0.338549 0.287720 -0.140058
C7    C     C_3   0.839710 0.452294 0.228705 -0.102272
C8    C     C_3   0.824186 0.341159 0.162991 0.015131
C9    C     C_3   0.425198 0.825709 0.218003 0.264271
C10   C     C_3   0.350921 0.746982 0.245865 -0.154286
C11   C     C_3   0.333466 0.841195 0.326653 0.023825
C12   C     C_R   0.371016 0.346774 0.358988 0.559268
C13   C     C_3   0.408460 0.918934 0.299187 0.172469
C14   C     C_3   0.260820 0.032126 0.264948 -0.184786
C15   C     C_3   0.189583 0.951124 0.294347 0.232397
C16   C     C_3   0.204684 0.857593 0.213625 -0.105869
C17   C     C_3   0.280293 0.934126 0.184151 -0.025065
C18   C     C_3   0.459543 0.258981 0.773716 -0.146717
C19   C     C_3   0.400843 0.399258 0.734989 -0.128713
C20   C     C_3   0.335503 0.333953 0.662529 0.008847
C21   C     C_3   0.395081 0.193688 0.700540 -0.116726
C22   C     C_3   0.253517 0.256799 0.739714 0.284300
C23   C     C_R   0.712942 0.410649 0.390329 0.555530
C24   C     C_3   0.193064 0.396555 0.700805 -0.112312
C25   C     C_3   0.258949 0.459918 0.774950 -0.154776
C26   C     C_3   0.318476 0.319798 0.812652 0.068394
C27   C     C_1   0.761568 0.372734 0.716940 -0.053653
C28   C     C_1   0.807041 0.333145 0.783354 -0.036027
C29   C     C_1   0.359758 0.760377 0.715056 -0.063589
C30   C     C_1   0.328745 0.806647 0.782999 -0.047515
C31   C     C_R   0.884408 0.313853 0.087281 0.541829
C32   C     C_R   0.319287 0.299571 0.119997 0.530917
C33   C     C_R   0.254142 0.964372 0.099522 0.573148
C34   C     C_R   0.379606 0.714045 0.631512 0.531888
C35   C     C_R   0.876947 0.302507 0.862621 0.573726
C36   C     C_R   0.308451 0.292917 0.891844 0.574060
C37   C     C_R   0.283559 0.877777 0.860387 0.575368
C38   C     C_R   0.366411 0.345771 0.584685 0.531764
C39   C     C_R   0.715458 0.411971 0.635805 0.526303
C40   C     C_1   0.344290 0.336537 0.275148 -0.007424
C41   C     C_1   0.331939 0.327066 0.203777 -0.019070
C42   C     C_3   0.674013 0.379997 0.184516 -0.119090
Cr1   Cr    Cr6+3 0.608340 0.611040 0.520430 1.040786
Cr2   Cr    Cr6+3 0.287650 0.601120 0.489350 1.001026
Cr3   Cr    Cr6+3 0.604040 0.287870 0.490280 1.060889
Cr4   Cr    Cr6+3 0.054020 0.052700 0.970850 1.021122
Cr5   Cr    Cr6+3 0.059230 0.375120 0.993390 1.022965
Cr6   Cr    Cr6+3 0.374950 0.061200 0.992340 1.030917
H1    H     H_    0.618058 0.597507 0.276890 0.169328
H2    H     H_    0.222471 0.148703 0.271354 0.102696
H3    H     H_    0.118459 0.833431 0.180065 0.156815
H4    H     H_    0.462190 0.458767 0.730874 0.097647
H5    H     H_    0.567805 0.205962 0.805354 0.128840
H6    H     H_    0.449469 0.085956 0.668347 0.128390
H7    H     H_    0.085202 0.449230 0.668711 0.137238
H8    H     H_    0.206499 0.567493 0.807629 0.132473
H9    H     H_    0.579017 0.397550 0.141112 0.133207
H10   H     H_    0.971834 0.118333 0.201684 0.167754
H11   H     H_    0.004300 0.329510 0.328350 0.112801
H12   H     H_    0.878465 0.530504 0.221750 0.147090
H13   H     H_    0.384117 0.630862 0.238399 0.106030
O1    O     O_R   0.751220 0.499230 0.435170 -0.509508
O2    O     O_R   0.297880 0.469080 0.560050 -0.513272
O3    O     O_R   0.489720 0.254590 0.564810 -0.499532
O4    O     O_R   0.725220 0.304230 0.585080 -0.514619
O5    O     O_3   0.500010 0.500010 0.500020 -0.320236
O6    O     O_R   0.171830 0.913880 0.057510 -0.521306
O7    O     O_R   0.940690 0.186050 0.054730 -0.529494
O8    O     O_R   0.920470 0.405720 0.075010 -0.530829
O9    O     O_R   0.196690 0.370460 0.084120 -0.512931
O10   O     O_R   0.412990 0.180750 0.091610 -0.512264
O11   O     O_R   0.366620 0.943130 0.065760 -0.476626
O12   O     O_R   0.477220 0.727600 0.436870 -0.482071
O13   O     O_R   0.160510 0.906330 0.879210 -0.517502
O14   O     O_R   0.930190 0.179050 0.889450 -0.497199
O15   O     O_R   0.909140 0.398170 0.896710 -0.494643
O16   O     O_R   0.186190 0.363460 0.918830 -0.481421
O17   O     O_R   0.401670 0.173200 0.913310 -0.513660
O18   O     O_R   0.356120 0.936130 0.900470 -0.475790
O19   O     O_3   0.162740 0.163010 0.985530 -0.272570
O20   O     O_R   0.258650 0.745120 0.411470 -0.501165
O21   O     O_R   0.297070 0.467240 0.395960 -0.517613
O22   O     O_R   0.488830 0.252610 0.387790 -0.402495
O23   O     O_R   0.724400 0.302390 0.420980 -0.472606
O24   O     O_R   0.752100 0.501210 0.612190 -0.502427
O25   O     O_R   0.478040 0.729440 0.600970 -0.501707
O26   O     O_R   0.259530 0.747110 0.588490 -0.537390
O27   O     O_3   0.060992 0.006777 0.332184 -0.528288
C43   C     C_3   0.072391 0.069799 0.411609 0.024475
H14   H     H_    0.020953 0.186197 0.411992 0.145228
H15   H     H_    0.183337 0.039417 0.439359 0.112201
C44   C     C_3   0.990963 0.034339 0.464846 -0.300521
H16   H     H_    0.056034 0.926877 0.484693 0.165312
H17   H     H_    0.963436 0.112736 0.518703 0.102750
H18   H     H_    0.890519 0.038105 0.431741 0.229579
O28   O     O_3   0.172447 0.185607 0.748436 -0.541539
C45   C     C_3   0.149029 0.116889 0.673119 -0.015800
H19   H     H_    0.251829 0.029616 0.653654 0.150205
H20   H     H_    0.099907 0.192479 0.626060 0.123946
C46   C     C_3   0.049222 0.052196 0.680330 -0.355784
H21   H     H_    0.937354 0.127141 0.666376 0.147768
H22   H     H_    0.068751 0.959274 0.635834 0.137993
H23   H     H_    0.061340 0.020446 0.741465 0.198550
Cl1   Cl    Cl    0.695332 0.130757 0.254026 -0.592483
O29   O     O_3   0.544781 0.755400 0.171591 -0.562087
C47   C     C_3   0.625902 0.832384 0.181330 0.049491
H24   H     H_    0.700943 0.804440 0.236430 0.196278
H25   H     H_    0.557475 0.949472 0.185290 0.217212
C48   C     C_3   0.714217 0.791836 0.109716 -0.346206
H26   H     H_    0.643521 0.817651 0.052993 0.173295
H27   H     H_    0.779013 0.851414 0.117743 0.128678
H28   H     H_    0.787258 0.676592 0.104996 0.166309
Cl2   Cl    Cl    0.540695 0.951905 0.364762 -0.588021

loop_
_geom_bond_atom_site_label_1
_geom_bond_atom_site_label_2
_ccdc_geom_bond_type
Cr1   O12   S    
Cr4   O19   S    
C37   O13   A    
C18   C21   S    
Cr2   O5    S    
C19   C20   S    
C1    C11   S    
C16   H3    S    
C3    C6    S    
C45   H19   S    
C7    C8    S    
C14   H2    S    
C24   H7    S    
C37   O18   A    
C35   O14   A    
C47   H25   S    
C5    H10   S    
Cr6   O18   S    
C46   H21   S    
C8    C42   S    
Cr5   O15   S    
Cr2   O21   S    
C36   O16   A    
C48   H27   S    
C5    C6    S    
C47   H24   S    
C1    O20   A    
C15   C16   S    
C18   C19   S    
C34   O25   A    
Cr6   O17   S    
C9    C13   S    
Cr5   O8    S    
C33   O11   A    
C3    C23   S    
C19   H4    S    
C23   O1    A    
C20   C24   S    
C28   C35   S    
C27   C39   S    
C16   C17   S    
C18   C26   S    
C32   C41   S    
C25   H8    S    
C43   H15   S    
Cr2   O26   S    
C9    C10   S    
C18   H5    S    
C21   C22   S    
C39   O4    A    
C14   C17   S    
Cr3   O22   S    
C17   C33   S    
Cr5   O19   S    
Cr6   O11   S    
C42   H9    S    
C44   H17   S    
Cr4   O14   S    
C45   H20   S    
C32   O10   A    
C38   O3    A    
Cr2   O2    S    
C31   O7    A    
C35   O15   A    
C23   O23   A    
Cr1   O24   S    
C24   C25   S    
Cr2   O20   S    
C48   H28   S    
C32   O9    A    
C25   C26   S    
C29   C34   S    
C46   H23   S    
C12   O22   A    
C12   C40   S    
Cr5   O9    S    
Cr4   O7    S    
C29   C30   T    
C2    H1    S    
C20   C38   S    
O28   C45   S    
C46   H22   S    
C12   O21   A    
C20   C21   S    
C43   C44   S    
C9    C17   S    
C40   C41   T    
C11   C15   S    
C2    C7    S    
C22   C24   S    
C10   H13   S    
Cr5   O16   S    
Cr6   O10   S    
C3    C4    S    
C7    H12   S    
Cr4   O13   S    
C45   C46   S    
C33   O6    A    
C38   O2    A    
C26   C36   S    
C8    C31   S    
C22   O28   S    
C6    H11   S    
C4    C5    S    
C5    C8    S    
C6    C7    S    
O29   C47   S    
Cr3   O3    S    
C1    O12   A    
Cr6   O19   S    
C2    C3    S    
Cr4   O6    S    
C10   C16   S    
C48   H26   S    
Cr3   O4    S    
C11   C13   S    
C21   H6    S    
C4    C42   S    
C2    C42   S    
Cr1   O5    S    
C4    Cl1   S    
C44   H16   S    
C34   O26   A    
C44   H18   S    
C19   C25   S    
Cr1   O25   S    
C10   C11   S    
Cr3   O23   S    
C31   O8    A    
O27   C43   S    
C30   C37   S    
C22   C26   S    
Cr3   O5    S    
C39   O24   A    
C14   C15   S    
C36   O17   A    
C43   H14   S    
C13   C14   S    
C9    O29   S    
C13   Cl2   S    
Cr1   O1    S    
C15   O27   S    
C27   C28   T    
C47   C48   S    
