data_mof_unit_47399.cif
_audit_creation_date              2012-12-10T20:27:56-0500
_audit_creation_method            fapswitch 2.2
_symmetry_space_group_name_H-M    P1
_symmetry_Int_Tables_number       1
_space_group_crystal_system       triclinic
_cell_length_a                    12.861375
_cell_length_b                    10.619253
_cell_length_c                    9.922169
_cell_angle_alpha                 90.424238
_cell_angle_beta                  97.92882
_cell_angle_gamma                 90.021929
_cell_volume                      1342.15881419

loop_
_atom_site_label
_atom_site_type_symbol
_atom_type_description
_atom_site_fract_x
_atom_site_fract_y
_atom_site_fract_z
_atom_type_partial_charge
C1    C     C_R   0.498923 0.260620 0.498909 0.890571
C2    C     C_R   0.591277 0.936117 0.463051 0.369286
C3    C     C_R   0.504729 0.871258 0.500739 -0.138475
C4    C     C_R   0.297941 0.503368 0.472806 0.912251
C5    C     C_R   0.412828 0.934522 0.516733 -0.021753
C6    C     C_3   0.345885 0.932716 0.629178 -0.237211
C7    C     C_3   0.335350 0.074427 0.610892 -0.529489
C8    C     C_R   0.423036 0.438524 0.056276 0.136571
C9    C     C_R   0.572947 0.564848 0.087215 -0.058450
C10   C     C_R   0.574997 0.563829 0.944458 -0.040518
C11   C     C_R   0.421046 0.442468 0.913712 0.244677
C12   C     C_R   0.029975 0.491457 0.568973 -0.035010
C13   C     C_3   0.393353 0.307316 0.896143 -0.558940
C14   C     C_3   0.399245 0.299333 0.049732 0.211186
C15   C     C_R   0.502520 0.739302 0.500875 0.948301
C16   C     C_R   0.701560 0.490713 0.527098 0.960775
C17   C     C_R   0.813962 0.472462 0.545228 -0.160863
C18   C     C_R   0.184886 0.497490 0.456996 -0.148020
C19   C     C_R   0.024405 0.418343 0.333387 -0.090828
C20   C     C_R   0.130285 0.442922 0.340096 -0.239364
C21   C     C_R   0.132893 0.532122 0.566763 0.361330
C22   C     C_2   0.404538 0.896632 0.766527 1.061462
C23   C     C_R   0.972927 0.442771 0.446691 0.032726
C24   C     C_2   0.665891 0.626751 0.898239 0.958921
C25   C     C_2   0.486281 0.212072 0.109638 0.981309
C26   C     C_2   0.037378 0.505382 0.827844 1.039786
C27   C     C_R   0.864688 0.426489 0.438058 0.350493
C28   C     C_R   0.871581 0.501392 0.671184 -0.270146
C29   C     C_R   0.980156 0.503127 0.686979 -0.027088
C30   C     C_R   0.408144 0.062760 0.506670 0.160038
C31   C     C_R   0.499385 0.128780 0.493905 -0.096916
C32   C     C_R   0.588730 0.066730 0.461584 -0.220922
Cl1   Cl    Cl    0.794250 0.346899 0.295511 -0.524219
Cl2   Cl    Cl    0.275483 0.262984 0.102054 -0.542300
Cl3   Cl    Cl    0.188283 0.649855 0.682777 -0.552113
Cl4   Cl    Cl    0.705639 0.857731 0.428866 -0.565563
H1    H     H_    0.255467 0.104093 0.564891 0.226522
H2    H     H_    0.270667 0.881779 0.600122 0.216108
H3    H     H_    0.407305 0.791275 0.935182 0.344979
H4    H     H_    0.721106 0.757414 0.780002 0.364401
H5    H     H_    0.526120 0.037356 0.176386 0.356945
H6    H     H_    0.040109 0.561854 0.022956 0.359042
H7    H     H_    0.368708 0.130577 0.700044 0.215339
H8    H     H_    0.632489 0.615444 0.154407 0.202283
H9    H     H_    0.313164 0.294681 0.839559 0.260259
H10   H     H_    0.456265 0.254113 0.854409 0.200426
H11   H     H_    0.831822 0.520606 0.757906 0.239985
H12   H     H_    0.984080 0.380752 0.238792 0.226153
H13   H     H_    0.169292 0.419829 0.253637 0.240444
H14   H     H_    0.656854 0.119409 0.440582 0.212045
N1    N     N_R   0.499290 0.499140 0.142710 -0.132489
N2    N     N_R   0.499290 0.499180 0.857070 -0.142045
O1    O     O_R   0.500010 0.316790 0.614690 -0.633179
O2    O     O_R   0.360821 0.808513 0.846141 -0.715115
O3    O     O_2   0.754001 0.603925 0.956145 -0.583522
O4    O     O_R   0.652204 0.720246 0.799735 -0.734941
O5    O     O_2   0.578093 0.245440 0.120080 -0.569068
O6    O     O_R   0.461473 0.089702 0.145451 -0.738997
O7    O     O_2   0.119675 0.447304 0.854647 -0.579760
O8    O     O_R   0.994837 0.569225 0.931231 -0.735230
O9    O     O_R   0.500000 0.316760 0.385350 -0.597612
O10   O     O_R   0.346360 0.499990 0.595720 -0.572900
O11   O     O_R   0.346350 0.499960 0.366370 -0.613304
O12   O     O_R   0.500000 0.683240 0.614650 -0.564175
O13   O     O_R   0.499990 0.683210 0.385310 -0.609266
O14   O     O_R   0.653650 0.500040 0.633630 -0.633190
O15   O     O_R   0.653640 0.500010 0.404280 -0.555753
O16   O     O_2   0.489598 0.944598 0.808197 -0.591754
Zn1   Zn    Zn3+2 0.500010 0.500020 0.653130 1.027597
Zn2   Zn    Zn3+2 0.499990 0.499980 0.346870 1.048277

loop_
_geom_bond_atom_site_label_1
_geom_bond_atom_site_label_2
_ccdc_geom_bond_type
O9    Zn2   S    
C14   Cl2   S    
C10   N2    A    
C19   C23   A    
C15   O12   A    
C6    H2    S    
C28   H11   S    
C6    C7    S    
C21   Cl3   S    
N1    Zn2   S    
C7    H7    S    
C12   C29   A    
C24   O4    S    
C18   C21   A    
C26   O7    D    
N2    Zn1   S    
C31   C32   A    
C9    N1    A    
O11   Zn2   S    
C30   C31   A    
C3    C5    A    
O15   Zn2   S    
O1    Zn1   S    
O14   Zn1   S    
C2    Cl4   S    
C6    C22   S    
C2    C3    A    
C7    H1    S    
C4    C18   S    
C22   O2    S    
C7    C30   S    
C13   C14   S    
C27   Cl1   S    
C24   O3    D    
C13   H9    S    
C11   C13   S    
C12   C23   A    
C22   O16   D    
C20   H13   S    
C25   O5    D    
C8    C11   A    
C5    C6    S    
C4    O11   A    
C28   C29   A    
H5    O6    S    
C32   H14   S    
C18   C20   A    
C23   C27   A    
C14   C25   S    
C13   H10   S    
H3    O2    S    
C16   O14   A    
C25   O6    S    
H6    O8    S    
O13   Zn2   S    
C15   O13   A    
C4    O10   A    
C1    C31   S    
C3    C15   S    
C26   C29   S    
C2    C32   A    
C5    C30   A    
C9    C10   A    
C8    N1    A    
C16   O15   A    
C1    O1    A    
C19   H12   S    
C9    H8    S    
C8    C14   S    
C11   N2    A    
C10   C24   S    
O12   Zn1   S    
C17   C28   A    
C26   O8    S    
C12   C21   A    
C19   C20   A    
O10   Zn1   S    
C1    O9    A    
C16   C17   S    
H4    O4    S    
C17   C27   A    
