data_mof_unit_46105.cif
_audit_creation_date              2012-10-26T21:20:10-0400
_audit_creation_method            fapswitch 2.2
_symmetry_space_group_name_H-M    P1
_symmetry_Int_Tables_number       1
_space_group_crystal_system       triclinic
_cell_length_a                    12.907246
_cell_length_b                    10.798886
_cell_length_c                    9.607704
_cell_angle_alpha                 88.605016
_cell_angle_beta                  94.742208
_cell_angle_gamma                 91.942362
_cell_volume                      1333.49594384

loop_
_atom_site_label
_atom_site_type_symbol
_atom_type_description
_atom_site_fract_x
_atom_site_fract_y
_atom_site_fract_z
_atom_type_partial_charge
C1    C     C_R   0.503611 0.262672 0.501075 0.573946
C2    C     C_R   0.698845 0.505372 0.524643 0.590254
C3    C     C_R   0.811083 0.523994 0.535498 -0.014597
C4    C     C_R   0.188917 0.476005 0.464501 -0.014597
C5    C     C_R   0.036522 0.338680 0.460815 0.110776
C6    C     C_R   0.963477 0.661320 0.539184 0.110775
C7    C     C_R   0.144478 0.355375 0.458324 0.039069
C8    C     C_R   0.855521 0.644625 0.541674 0.039070
C9    C     C_R   0.126776 0.578917 0.468147 0.068426
C10   C     C_R   0.873225 0.421082 0.531855 0.068427
C11   C     C_R   0.022877 0.561320 0.501370 -0.011317
C12   C     C_R   0.496389 0.737327 0.498925 0.573945
C13   C     C_R   0.977122 0.438681 0.498632 -0.011317
C14   C     C_R   0.557791 0.065762 0.402920 0.091077
C15   C     C_R   0.442209 0.934238 0.597081 0.091078
C16   C     C_R   0.552193 0.937541 0.403364 -0.095789
C17   C     C_R   0.447807 0.062459 0.596636 -0.095789
C18   C     C_2   0.790729 0.752910 0.560308 0.609159
C19   C     C_2   0.209269 0.247089 0.439687 0.609162
C20   C     C_2   0.387641 0.302767 0.860707 0.586728
C21   C     C_2   0.612359 0.697233 0.139293 0.586729
C22   C     C_R   0.494838 0.871244 0.498747 -0.008065
C23   C     C_R   0.505162 0.128756 0.501253 -0.008064
C24   C     C_R   0.448594 0.409275 0.073407 0.033805
C25   C     C_R   0.551406 0.590725 0.926593 0.033805
C26   C     C_R   0.447686 0.408047 0.925864 0.166186
C27   C     C_R   0.552313 0.591953 0.074135 0.166186
C28   C     C_R   0.301155 0.494627 0.475357 0.590258
Cu1   Cu    Cu3+1 0.500000 0.500020 0.640660 1.086537
Cu2   Cu    Cu3+1 0.500000 0.499980 0.359340 1.086537
H1    H     H_    0.595708 0.889229 0.332052 0.196089
H2    H     H_    0.404292 0.110771 0.667948 0.196086
H3    H     H_    0.406616 0.337858 0.128861 0.191814
H4    H     H_    0.593384 0.662142 0.871139 0.191814
H5    H     H_    0.689128 0.833702 0.675200 0.346112
H6    H     H_    0.310873 0.166302 0.324797 0.346113
H7    H     H_    0.342009 0.123039 0.884074 0.363855
H8    H     H_    0.657990 0.876961 0.115926 0.363856
I1    I     I_    0.814635 0.252557 0.624910 -0.176278
I2    I     I_    0.185366 0.747444 0.375093 -0.176275
I3    I     I_    0.967264 0.177763 0.357858 -0.080386
I4    I     I_    0.032733 0.822240 0.642141 -0.080385
I5    I     I_    0.650887 0.153195 0.253589 -0.188008
I6    I     I_    0.349114 0.846805 0.746411 -0.188010
N1    N     N_R   0.500030 0.500030 0.852080 -0.274903
N2    N     N_R   0.499970 0.499970 0.147920 -0.274903
O1    O     O_R   0.499990 0.319660 0.618740 -0.488732
O2    O     O_R   0.725690 0.752589 0.669520 -0.684453
O3    O     O_2   0.203166 0.156198 0.517384 -0.450342
O4    O     O_R   0.274313 0.247416 0.330482 -0.684458
O5    O     O_2   0.322977 0.318984 0.762843 -0.473884
O6    O     O_R   0.396459 0.185093 0.924100 -0.694801
O7    O     O_2   0.677023 0.681016 0.237156 -0.473880
O8    O     O_R   0.603540 0.814907 0.075900 -0.694800
O9    O     O_R   0.500010 0.680340 0.381260 -0.488733
O10   O     O_R   0.499990 0.319630 0.381170 -0.486641
O11   O     O_R   0.500010 0.680370 0.618830 -0.486642
O12   O     O_R   0.349000 0.499990 0.599490 -0.451422
O13   O     O_R   0.651000 0.500010 0.400510 -0.451423
O14   O     O_R   0.348990 0.499960 0.361920 -0.474216
O15   O     O_R   0.651010 0.500040 0.638080 -0.474219
O16   O     O_2   0.796825 0.843797 0.482600 -0.450344

loop_
_geom_bond_atom_site_label_1
_geom_bond_atom_site_label_2
_ccdc_geom_bond_type
C14   C23   A    
C9    I2    S    
C6    C8    A    
Cu1   Cu2   S    
C10   I1    S    
C14   C16   A    
C28   O12   A    
C25   C27   A    
C9    C11   A    
Cu2   O9    S    
C19   O3    D    
C5    C13   A    
C24   H3    S    
H8    O8    S    
C2    O15   A    
C25   H4    S    
C24   N2    A    
Cu2   O13   S    
C8    C18   S    
C2    C3    S    
C21   C27   S    
C20   O6    S    
C3    C10   A    
C16   H1    S    
C21   O7    D    
C11   C13   A    
C19   O4    S    
C17   C23   A    
C20   C26   S    
Cu1   O1    S    
C4    C7    A    
C12   O11   A    
C27   N2    A    
Cu2   O14   S    
C4    C28   S    
C1    O10   A    
Cu1   O11   S    
C15   I6    S    
C1    C23   S    
C20   O5    D    
C7    C19   S    
C28   O14   A    
C21   O8    S    
C17   H2    S    
C12   C22   S    
Cu1   O15   S    
C12   O9    A    
H5    O2    S    
C25   N1    A    
H6    O4    S    
Cu1   O12   S    
C15   C17   A    
C3    C8    A    
C6    I4    S    
Cu1   N1    S    
C6    C11   A    
C5    C7    A    
H7    O6    S    
C5    I3    S    
C2    O13   A    
C1    O1    A    
C16   C22   A    
C26   N1    A    
C4    C9    A    
Cu2   O10   S    
Cu2   N2    S    
C15   C22   A    
C18   O16   D    
C24   C26   A    
C14   I5    S    
C10   C13   A    
C18   O2    S    
