data_mof_unit_56144.cif
_audit_creation_date              2013-03-05T15:47:25-0500
_audit_creation_method            fapswitch 2.2
_symmetry_space_group_name_H-M    P1
_symmetry_Int_Tables_number       1
_space_group_crystal_system       triclinic
_cell_length_a                    17.88001
_cell_length_b                    19.046236
_cell_length_c                    11.820957
_cell_angle_alpha                 90.001243
_cell_angle_beta                  73.734982
_cell_angle_gamma                 89.99989
_cell_volume                      3864.47183372

loop_
_atom_site_label
_atom_site_type_symbol
_atom_site_description
_atom_site_fract_x
_atom_site_fract_y
_atom_site_fract_z
_atom_type_partial_charge
O1    O     O_R   0.430030 0.075530 0.417420 -0.539665
O2    O     O_R   0.569970 0.924470 0.582580 -0.530251
O3    O     O_R   0.569970 0.075530 0.582580 -0.539656
O4    O     O_R   0.430030 0.924470 0.417420 -0.530257
O5    O     O_R   0.930030 0.575530 0.417420 -0.530229
O6    O     O_R   0.069970 0.424470 0.582580 -0.539655
O7    O     O_R   0.069970 0.575530 0.582580 -0.530278
O8    O     O_R   0.930030 0.424470 0.417420 -0.539622
O9    O     O_R   0.416860 0.075510 0.614610 -0.528616
O10   O     O_R   0.583140 0.924490 0.385390 -0.537088
O11   O     O_R   0.583140 0.075510 0.385390 -0.528627
O12   O     O_R   0.416860 0.924490 0.614610 -0.537136
O13   O     O_R   0.916860 0.575510 0.614610 -0.537024
O14   O     O_R   0.083140 0.424490 0.385390 -0.528614
O15   O     O_R   0.083140 0.575510 0.385390 -0.537156
O16   O     O_R   0.916860 0.424490 0.614610 -0.528607
C1    C     C_R   0.401444 0.102457 0.522900 0.874229
C2    C     C_R   0.595941 0.895709 0.479027 0.877751
C3    C     C_R   0.598575 0.102441 0.477093 0.874230
C4    C     C_R   0.404057 0.895708 0.520972 0.877720
C5    C     C_R   0.904048 0.604285 0.520976 0.877781
C6    C     C_R   0.098554 0.397541 0.477102 0.874191
C7    C     C_R   0.095933 0.604297 0.479031 0.877707
C8    C     C_R   0.901410 0.397567 0.522912 0.874193
C9    C     C_R   0.407941 0.993690 0.871538 0.397656
C10   C     C_R   0.592061 0.993715 0.128455 0.397664
C11   C     C_R   0.907937 0.506272 0.871555 0.397659
C12   C     C_R   0.092056 0.506330 0.128469 0.397668
Cu1   Cu    Cu3+1 0.507800 1.000000 0.383250 1.165328
Cu2   Cu    Cu3+1 0.492200 0.000000 0.616750 1.165334
Cu3   Cu    Cu3+1 0.007800 0.500000 0.383250 1.165344
Cu4   Cu    Cu3+1 0.992200 0.500000 0.616750 1.165335
C13   C     C_R   0.397367 0.004057 0.993428 0.221400
C14   C     C_R   0.602626 0.004111 0.006577 0.221383
C15   C     C_R   0.897378 0.495849 0.993425 0.221367
C16   C     C_R   0.102637 0.495978 0.006574 0.221412
C17   C     C_R   0.544886 0.007879 0.834434 0.522092
C18   C     C_R   0.455105 0.007843 0.165575 0.522096
C19   C     C_R   0.044898 0.492171 0.834424 0.522088
C20   C     C_R   0.955119 0.492097 0.165564 0.522093
C21   C     C_R   0.654066 0.162097 0.459610 -0.274397
C22   C     C_R   0.353344 0.832425 0.532779 -0.287658
C23   C     C_R   0.345967 0.162130 0.540373 -0.274454
C24   C     C_R   0.646637 0.832419 0.467225 -0.287690
C25   C     C_R   0.146619 0.667597 0.467232 -0.287673
C26   C     C_R   0.845893 0.337927 0.540411 -0.274479
C27   C     C_R   0.853324 0.667557 0.532784 -0.287681
C28   C     C_R   0.154027 0.337865 0.459634 -0.274509
C29   C     C_R   0.250736 0.760414 0.657267 0.283423
C30   C     C_R   0.774434 0.217262 0.344803 0.279224
C31   C     C_R   0.749135 0.760278 0.342768 0.283489
C32   C     C_R   0.225670 0.217371 0.655278 0.279246
C33   C     C_R   0.725510 0.282772 0.655221 0.279227
C34   C     C_R   0.249194 0.739641 0.342753 0.283426
C35   C     C_R   0.274329 0.282632 0.344732 0.279210
C36   C     C_R   0.750791 0.739664 0.657249 0.283488
C37   C     C_R   0.317501 0.802454 0.644171 0.209729
C38   C     C_R   0.709404 0.174788 0.349713 0.214904
C39   C     C_R   0.682439 0.802406 0.355845 0.209749
C40   C     C_R   0.290704 0.174889 0.650314 0.214975
C41   C     C_R   0.790515 0.325281 0.650295 0.214910
C42   C     C_R   0.182438 0.697588 0.355849 0.209741
C43   C     C_R   0.209284 0.325098 0.349689 0.214985
C44   C     C_R   0.817496 0.697549 0.644172 0.209752
C45   C     C_R   0.340414 0.800716 0.431752 0.317346
C46   C     C_R   0.652677 0.206388 0.555001 0.322430
C47   C     C_R   0.659574 0.800733 0.568262 0.317281
C48   C     C_R   0.347289 0.206371 0.444940 0.322463
C49   C     C_R   0.847289 0.293607 0.445047 0.322417
C50   C     C_R   0.159534 0.699314 0.568261 0.317335
C51   C     C_R   0.152712 0.293631 0.555072 0.322474
C52   C     C_R   0.840371 0.699232 0.431748 0.317285
C53   C     C_R   0.273285 0.759238 0.443042 -0.158373
C54   C     C_R   0.718584 0.248187 0.552659 -0.153375
C55   C     C_R   0.726679 0.759228 0.556971 -0.158371
C56   C     C_R   0.281359 0.248150 0.447327 -0.153368
C57   C     C_R   0.781373 0.251822 0.447384 -0.153286
C58   C     C_R   0.226653 0.740806 0.556976 -0.158366
C59   C     C_R   0.218643 0.251854 0.552683 -0.153339
C60   C     C_R   0.773256 0.740724 0.443044 -0.158374
N1    N     N_R   0.519530 1.000000 0.207810 -0.299619
N2    N     N_R   0.480470 0.000000 0.792190 -0.299621
N3    N     N_R   0.019530 0.500000 0.207810 -0.299631
N4    N     N_R   0.980470 0.500000 0.792190 -0.299590
C61   C     C_R   0.537577 0.006143 0.959424 -0.228259
C62   C     C_R   0.462414 0.006118 0.040583 -0.228248
C63   C     C_R   0.037590 0.493895 0.959416 -0.228239
C64   C     C_R   0.962428 0.493839 0.040575 -0.228284
N5    N     N_R   0.658587 0.971064 0.165000 0.164307
O17   O     O_R   0.704014 0.922682 0.105197 -0.205016
O18   O     O_R   0.683128 0.006128 0.241346 -0.281965
N6    N     N_R   0.341423 0.971061 0.834959 0.164252
O19   O     O_R   0.296030 0.922624 0.894649 -0.205116
O20   O     O_R   0.316830 0.006214 0.758748 -0.281919
N7    N     N_R   0.158564 0.528954 0.165074 0.164250
O21   O     O_R   0.183198 0.493747 0.241178 -0.281885
O22   O     O_R   0.203908 0.577455 0.105483 -0.205202
N8    N     N_R   0.841402 0.528947 0.835046 0.164349
O23   O     O_R   0.816937 0.493997 0.758506 -0.282017
O24   O     O_R   0.795911 0.577242 0.895001 -0.204878
N9    N     N_R   0.380059 0.017865 0.248138 0.157870
O25   O     O_R   0.338559 0.964206 0.296846 -0.260806
O26   O     O_R   0.347113 0.079283 0.258137 -0.263775
N10   N     N_R   0.619924 0.017966 0.751884 0.157877
O27   O     O_R   0.661450 0.964347 0.703049 -0.260796
O28   O     O_R   0.652826 0.079402 0.741968 -0.263793
N11   N     N_R   0.880087 0.481972 0.248109 0.157896
O29   O     O_R   0.847210 0.420526 0.257978 -0.263794
O30   O     O_R   0.838552 0.535564 0.297037 -0.260814
N12   N     N_R   0.119947 0.482167 0.751860 0.157855
O31   O     O_R   0.152903 0.420752 0.741843 -0.263767
O32   O     O_R   0.161445 0.535837 0.703198 -0.260802
N13   N     N_R   0.578626 0.221022 0.638143 0.153425
O33   O     O_R   0.551856 0.182711 0.731818 -0.223059
O34   O     O_R   0.535988 0.271831 0.616590 -0.234957
N14   N     N_R   0.404575 0.793226 0.327489 0.175680
O35   O     O_R   0.434928 0.731181 0.300886 -0.212648
O36   O     O_R   0.421168 0.842195 0.247700 -0.233573
N15   N     N_R   0.421304 0.221008 0.361708 0.153433
O37   O     O_R   0.448085 0.182629 0.268115 -0.223241
O38   O     O_R   0.463838 0.271985 0.382979 -0.234667
N16   N     N_R   0.595430 0.793297 0.672563 0.175678
O39   O     O_R   0.565041 0.731271 0.699229 -0.212603
O40   O     O_R   0.578915 0.842281 0.752335 -0.233708
N17   N     N_R   0.095363 0.706796 0.672514 0.175657
O41   O     O_R   0.078775 0.657828 0.752306 -0.233585
O42   O     O_R   0.064988 0.768834 0.699101 -0.212644
N18   N     N_R   0.921344 0.278928 0.361949 0.153351
O43   O     O_R   0.963847 0.227980 0.383404 -0.234835
O44   O     O_R   0.948194 0.317250 0.268308 -0.223050
N19   N     N_R   0.904502 0.706667 0.327430 0.175695
O45   O     O_R   0.921013 0.657677 0.247669 -0.233722
O46   O     O_R   0.934874 0.768697 0.300734 -0.212598
N20   N     N_R   0.078700 0.278994 0.638313 0.153375
O47   O     O_R   0.036209 0.227956 0.617126 -0.234677
O48   O     O_R   0.051904 0.317392 0.731879 -0.223340
N21   N     N_R   0.694913 0.152991 0.241215 0.184021
O49   O     O_R   0.750963 0.127501 0.155788 -0.172991
O50   O     O_R   0.630776 0.172432 0.218717 -0.224738
N22   N     N_R   0.357330 0.803556 0.735194 0.181877
O51   O     O_R   0.321631 0.788682 0.844349 -0.151144
O52   O     O_R   0.432920 0.803433 0.704590 -0.269939
N23   N     N_R   0.305290 0.153160 0.758777 0.183977
O53   O     O_R   0.249288 0.127719 0.844333 -0.173004
O54   O     O_R   0.369488 0.172597 0.781097 -0.224607
N24   N     N_R   0.642624 0.803571 0.264811 0.181817
O55   O     O_R   0.678347 0.788792 0.155626 -0.151209
O56   O     O_R   0.567036 0.803425 0.295397 -0.269887
N25   N     N_R   0.142589 0.696493 0.264848 0.181899
O57   O     O_R   0.178260 0.711411 0.155701 -0.151123
O58   O     O_R   0.066999 0.696571 0.295482 -0.270015
N26   N     N_R   0.804911 0.347196 0.758797 0.184009
O59   O     O_R   0.748812 0.372786 0.844042 -0.173039
O60   O     O_R   0.868967 0.327744 0.781535 -0.224800
N27   N     N_R   0.857289 0.696375 0.735233 0.181785
O61   O     O_R   0.821533 0.711102 0.844426 -0.151237
O62   O     O_R   0.932877 0.696574 0.704680 -0.269816
N28   N     N_R   0.194675 0.346795 0.241223 0.183998
O63   O     O_R   0.250667 0.372196 0.155615 -0.172975
O64   O     O_R   0.130457 0.327362 0.218971 -0.224638
N29   N     N_R   0.671130 0.269343 0.767592 0.188498
O65   O     O_R   0.614916 0.313586 0.810825 -0.166807
O66   O     O_R   0.685284 0.219704 0.834287 -0.174017
N30   N     N_R   0.287570 0.768182 0.229416 0.189854
O67   O     O_R   0.270939 0.831427 0.203179 -0.184680
O68   O     O_R   0.331224 0.728243 0.147948 -0.155375
N31   N     N_R   0.328640 0.269129 0.232331 0.188491
O69   O     O_R   0.384786 0.313397 0.188864 -0.166781
O70   O     O_R   0.314469 0.219386 0.165834 -0.174036
N32   N     N_R   0.712528 0.768345 0.770529 0.189801
O71   O     O_R   0.729385 0.831554 0.796609 -0.184722
O72   O     O_R   0.668724 0.728560 0.852088 -0.155322
N33   N     N_R   0.212337 0.731899 0.770615 0.189859
O73   O     O_R   0.168671 0.771856 0.852040 -0.155386
O74   O     O_R   0.228968 0.668666 0.796912 -0.184657
N34   N     N_R   0.828822 0.230696 0.232442 0.188508
O75   O     O_R   0.814701 0.280374 0.165787 -0.174021
O76   O     O_R   0.884987 0.186416 0.189159 -0.166793
N35   N     N_R   0.787375 0.731571 0.229498 0.189801
O77   O     O_R   0.831163 0.771339 0.147894 -0.155313
O78   O     O_R   0.770523 0.668348 0.203481 -0.184752
N36   N     N_R   0.171374 0.230891 0.767685 0.188486
O79   O     O_R   0.185563 0.280643 0.834154 -0.174070
O80   O     O_R   0.115221 0.186636 0.811185 -0.166737
N37   N     N_R   0.319487 0.016578 0.065223 0.188526
O81   O     O_R   0.286883 0.076697 0.057155 -0.164392
O82   O     O_R   0.275914 0.964478 0.115800 -0.152268
N38   N     N_R   0.680497 0.016684 0.934793 0.188523
O83   O     O_R   0.713071 0.076805 0.942947 -0.164430
O84   O     O_R   0.724089 0.964619 0.884108 -0.152273
N39   N     N_R   0.819516 0.483226 0.065198 0.188541
O85   O     O_R   0.775911 0.535251 0.116018 -0.152285
O86   O     O_R   0.786958 0.423114 0.056918 -0.164397
N40   N     N_R   0.180524 0.483501 0.934772 0.188516
O87   O     O_R   0.224077 0.535634 0.884283 -0.152276
O88   O     O_R   0.213155 0.423387 0.942775 -0.164405

loop_
_geom_bond_atom_site_label_1
_geom_bond_atom_site_label_2
_geom_bond_distance
_ccdc_geom_bond_type
N40   O88   1.300457 A    
C63   C64   1.415720 A    
C30   C57   1.415385 A    
C11   N8    1.440708 S    
N9    O25   1.298958 A    
C7    C25   1.491141 S    
C46   N13   1.437956 S    
C50   C58   1.411692 A    
C49   C57   1.415961 A    
O16   C8    1.296885 A    
O13   Cu4   1.975528 S    
O6    Cu4   1.962532 S    
C33   C54   1.415351 A    
C56   C59   1.425190 A    
C35   N31   1.432403 S    
O14   Cu3   1.975529 S    
C33   N29   1.432420 S    
N18   O43   1.300541 A    
C51   N20   1.437971 S    
N10   O28   1.300144 A    
N29   O65   1.301427 A    
N37   O81   1.300455 A    
C29   C37   1.409484 A    
N31   O70   1.300479 A    
N33   O73   1.301613 A    
N14   O35   1.301642 A    
C10   N5    1.440646 S    
N21   O50   1.301453 A    
C44   N27   1.447204 S    
O11   C3    1.296883 A    
C18   C62   1.446746 A    
C12   N7    1.440567 S    
N38   O84   1.299305 A    
N30   O67   1.298966 A    
C42   N25   1.447276 S    
C32   N36   1.432402 S    
C19   N4    1.385879 A    
N24   O55   1.300469 A    
C18   N9    1.433836 S    
N25   O58   1.297564 A    
C40   N23   1.438928 S    
N37   O82   1.299324 A    
O2    C2    1.302185 A    
N32   O71   1.298956 A    
C24   C39   1.413456 A    
N23   O53   1.301156 A    
C46   C54   1.415960 A    
C25   C42   1.413405 A    
Cu3   N3    2.025160 S    
C29   C58   1.419962 A    
C30   N34   1.432411 S    
C31   C60   1.419914 A    
C26   C49   1.402914 A    
C32   C40   1.404276 A    
N12   O32   1.298963 A    
N36   O79   1.300497 A    
C33   C41   1.404243 A    
C10   C14   1.413543 A    
C19   N12   1.433834 S    
C34   N30   1.430508 S    
N7    O21   1.294203 A    
C49   N18   1.437957 S    
C23   C48   1.402956 A    
C54   C57   1.425218 A    
C35   C43   1.404291 A    
C22   C45   1.413861 A    
N11   O29   1.300143 A    
C36   C44   1.409459 A    
O3    C3    1.312243 A    
C19   C63   1.446759 A    
N5    O18   1.294143 A    
C32   C59   1.415396 A    
C55   C60   1.415324 A    
O4    Cu1   1.962549 S    
C36   N32   1.430519 S    
O15   C7    1.311502 A    
N40   O87   1.299309 A    
N9    O26   1.300134 A    
C36   C55   1.419902 A    
C5    C27   1.491086 S    
N35   O78   1.298958 A    
C12   N3    1.376413 A    
N28   O64   1.301448 A    
N11   O30   1.298961 A    
C20   N3    1.385848 A    
C31   N35   1.430522 S    
C22   C37   1.413421 A    
C51   C59   1.415964 A    
N10   O27   1.298967 A    
N29   O66   1.300487 A    
N24   O56   1.297543 A    
N33   O74   1.298966 A    
C16   C63   1.424123 A    
Cu4   N4    2.025161 S    
C26   C41   1.416057 A    
N39   O85   1.299308 A    
C30   C38   1.404261 A    
N22   O51   1.300479 A    
C45   C53   1.411684 A    
N31   O69   1.301437 A    
C29   N33   1.430506 S    
C28   C43   1.416005 A    
N20   O48   1.300326 A    
C34   C42   1.409481 A    
C11   C15   1.413539 A    
C61   C62   1.415723 A    
N12   O31   1.300137 A    
C37   N22   1.447269 S    
N38   O83   1.300455 A    
C14   C61   1.424112 A    
Cu2   N2    2.025161 S    
O3    Cu2   1.962547 S    
C13   C62   1.424106 A    
N39   O86   1.300458 A    
Cu1   N1    2.025160 S    
Cu1   Cu2   2.695404 S    
C2    C24   1.491081 S    
C34   C53   1.419970 A    
C15   C64   1.424090 A    
Cu3   Cu4   2.695404 S    
C53   C58   1.415389 A    
O12   C4    1.311503 A    
N6    O20   1.294279 A    
C9    N2    1.376452 A    
O13   C5    1.311488 A    
C48   C56   1.415974 A    
C14   N38   1.433234 S    
N27   O62   1.297545 A    
O11   Cu1   1.975530 S    
N20   O47   1.300563 A    
N15   O38   1.300538 A    
O9    Cu2   1.975528 S    
C20   N11   1.433824 S    
C35   C56   1.415405 A    
C23   C40   1.416002 A    
C38   N21   1.438937 S    
O9    C1    1.296945 A    
N34   O75   1.300482 A    
N26   O60   1.301428 A    
C6    C28   1.484439 S    
C10   N1    1.376461 A    
N8    O24   1.298854 A    
C18   N1    1.385869 A    
N28   O63   1.301124 A    
C45   N14   1.436465 S    
C17   N2    1.385858 A    
C47   C55   1.411614 A    
C28   C51   1.402963 A    
N16   O40   1.300305 A    
N19   O45   1.300306 A    
C47   N16   1.436478 S    
C27   C44   1.413468 A    
C50   N17   1.436461 S    
C52   N19   1.436484 S    
N13   O33   1.300334 A    
C17   C61   1.446731 A    
N23   O54   1.301488 A    
C11   N4    1.376518 A    
C9    N6    1.440587 S    
C15   N39   1.433237 S    
O7    Cu4   1.962547 S    
O12   Cu2   1.975533 S    
C25   C50   1.413846 A    
O8    Cu3   1.962549 S    
N22   O52   1.297563 A    
N19   O46   1.301645 A    
N18   O44   1.300327 A    
C21   C38   1.416007 A    
C17   N10   1.433835 S    
C4    C22   1.491152 S    
N15   O37   1.300329 A    
N7    O22   1.298835 A    
O15   Cu3   1.975530 S    
C21   C46   1.402870 A    
O16   Cu4   1.975533 S    
N21   O49   1.301107 A    
O1    C1    1.312226 A    
O2    Cu2   1.962532 S    
C8    C26   1.484400 S    
O14   C6    1.296963 A    
C16   N40   1.433228 S    
N30   O68   1.301614 A    
N5    O17   1.298839 A    
C48   N15   1.437966 S    
N25   O57   1.300484 A    
O10   Cu1   1.975529 S    
C20   C64   1.446715 A    
O1    Cu1   1.962531 S    
N17   O41   1.300307 A    
N32   O72   1.301605 A    
O10   C2    1.311485 A    
O7    C7    1.302204 A    
C1    C23   1.484441 S    
N34   O76   1.301423 A    
N6    O19   1.298828 A    
O8    C8    1.312268 A    
N14   O36   1.300306 A    
C41   N26   1.438902 S    
N36   O80   1.301447 A    
C27   C52   1.413871 A    
N35   O77   1.301603 A    
O4    C4    1.302207 A    
C39   N24   1.447213 S    
C31   C39   1.409460 A    
N26   O59   1.301102 A    
C12   C16   1.413572 A    
C52   C60   1.411611 A    
N8    O23   1.294116 A    
O5    C5    1.302182 A    
N27   O61   1.300464 A    
N17   O42   1.301641 A    
C24   C47   1.413851 A    
C13   N37   1.433236 S    
C43   N28   1.438955 S    
N13   O34   1.300537 A    
N16   O39   1.301644 A    
C3    C21   1.484345 S    
C9    C13   1.413571 A    
O5    Cu3   1.962531 S    
O6    C6    1.312222 A    
