data_mof_unit_43931.cif
_audit_creation_date              2013-03-05T16:09:35-0500
_audit_creation_method            fapswitch 2.2
_symmetry_space_group_name_H-M    P1
_symmetry_Int_Tables_number       1
_space_group_crystal_system       triclinic
_cell_length_a                    10.87033
_cell_length_b                    10.71998
_cell_length_c                    9.955315
_cell_angle_alpha                 90.240687
_cell_angle_beta                  103.798134
_cell_angle_gamma                 92.577984
_cell_volume                      1125.33878302

loop_
_atom_site_label
_atom_site_type_symbol
_atom_site_description
_atom_site_fract_x
_atom_site_fract_y
_atom_site_fract_z
_atom_type_partial_charge
O1    O     O_R   0.499990 0.316750 0.614620 -0.644680
O2    O     O_R   0.500010 0.683250 0.385380 -0.644628
O3    O     O_R   0.499990 0.316780 0.385290 -0.587361
O4    O     O_R   0.500010 0.683220 0.614710 -0.587367
C1    C     C_R   0.501021 0.260262 0.499948 0.866257
C2    C     C_R   0.498967 0.739737 0.500049 0.866365
O5    O     O_R   0.317810 0.500000 0.571850 -0.639730
O6    O     O_R   0.682190 0.500000 0.428150 -0.639713
O7    O     O_R   0.317810 0.500030 0.342520 -0.552457
O8    O     O_R   0.682190 0.499970 0.657480 -0.552457
C3    C     C_R   0.260310 0.501951 0.442153 0.923732
C4    C     C_R   0.739692 0.498001 0.557847 0.923702
Zn1   Zn    Zn3+2 0.500000 0.499980 0.653120 0.983725
Zn2   Zn    Zn3+2 0.500000 0.500020 0.346880 0.983741
C5    C     C_R   0.584783 0.576199 0.092789 0.084976
C6    C     C_R   0.415205 0.423813 0.907206 0.085172
C7    C     C_R   0.589350 0.569374 0.950873 0.308295
C8    C     C_R   0.410640 0.430638 0.049123 0.308305
C9    C     C_2   0.125071 0.488041 0.409516 -0.359500
C10   C     C_2   0.874957 0.511683 0.590491 -0.359545
C11   C     C_2   0.062340 0.529378 0.499957 0.189300
C12   C     C_2   0.937583 0.470502 0.499871 0.189395
H1    H     H_    0.916695 0.577461 0.673229 0.195394
H2    H     H_    0.083491 0.421966 0.327037 0.195301
C13   C     C_R   0.479042 0.062193 0.374038 -0.155035
C14   C     C_R   0.520903 0.937805 0.625954 -0.155023
H3    H     H_    0.463128 0.108970 0.275801 0.197019
H4    H     H_    0.536813 0.891029 0.724190 0.197020
C15   C     C_R   0.475201 0.934318 0.374111 -0.219126
C16   C     C_R   0.524744 0.065679 0.625881 -0.219087
H5    H     H_    0.454402 0.884418 0.275864 0.171341
H6    H     H_    0.545538 0.115578 0.724129 0.171343
C17   C     C_R   0.497633 0.872332 0.500114 -0.014305
C18   C     C_R   0.502326 0.127666 0.499879 -0.014282
N1    N     N_R   0.499970 0.499970 0.857200 -0.202627
N2    N     N_R   0.500030 0.500030 0.142800 -0.202648
N3    N     N_2   0.886812 0.366005 0.409366 -0.317384
H7    H     H_    0.832993 0.299650 0.447747 0.224946
C19   C     C_3   0.839349 0.390616 0.263304 -0.664027
H8    H     H_    0.735409 0.369645 0.231894 0.237834
H9    H     H_    0.884768 0.328681 0.201717 0.243683
H10   H     H_    0.859394 0.489379 0.238651 0.270754
N4    N     N_2   0.112910 0.634140 0.590114 -0.317295
H11   H     H_    0.166484 0.700499 0.551427 0.224884
C20   C     C_3   0.160690 0.609916 0.736209 -0.664633
H12   H     H_    0.264579 0.631220 0.767374 0.237931
H13   H     H_    0.141027 0.511165 0.761185 0.270733
H14   H     H_    0.115182 0.671819 0.797741 0.243686
N5    N     N_2   0.667301 0.666404 0.180429 -0.275870
H15   H     H_    0.677892 0.658839 0.284377 0.289825
C21   C     C_3   0.661204 0.795475 0.136644 -0.703128
H16   H     H_    0.658818 0.858027 0.225064 0.212420
H17   H     H_    0.575455 0.810604 0.052637 0.227532
H18   H     H_    0.747568 0.822711 0.100749 0.282643
N6    N     N_2   0.332677 0.333618 0.819560 -0.275864
H19   H     H_    0.322141 0.341157 0.715623 0.289807
C22   C     C_3   0.338724 0.204550 0.863365 -0.703201
H20   H     H_    0.341099 0.141977 0.774958 0.212413
H21   H     H_    0.252346 0.177354 0.899254 0.282681
H22   H     H_    0.424462 0.189403 0.947382 0.227524
N7    N     N_R   0.696749 0.624728 0.909949 0.243066
O9    O     O_R   0.685809 0.724919 0.836093 -0.420717
O10   O     O_R   0.809455 0.587499 0.966145 -0.396715
N8    N     N_R   0.303226 0.375307 0.090039 0.243033
O11   O     O_R   0.314155 0.275144 0.163943 -0.420746
O12   O     O_R   0.190524 0.412518 0.033790 -0.396631

loop_
_geom_bond_atom_site_label_1
_geom_bond_atom_site_label_2
_geom_bond_distance
_ccdc_geom_bond_type
C16   H6    1.083118 S    
O7    Zn2   1.970570 S    
C10   H1    1.081479 S    
Zn1   N1    2.031758 S    
N3    H7    1.032323 S    
C13   H3    1.081222 S    
N4    C20   1.451734 S    
C14   C17   1.396973 A    
C14   H4    1.081218 S    
C2    C17   1.422133 S    
O6    C4    1.294126 A    
C13   C18   1.396975 A    
N4    H11   1.032258 S    
C21   H18   1.109300 S    
C3    C9    1.428639 S    
C1    C18   1.422130 S    
C4    C10   1.428774 S    
N6    H19   1.017507 S    
N6    C22   1.452044 S    
C9    H2    1.081436 S    
C22   H22   1.112425 S    
C6    N6    1.429161 S    
N3    C19   1.451824 S    
C11   N4    1.438623 S    
C20   H12   1.110332 S    
N8    O11   1.297985 A    
O5    C3    1.294095 A    
O7    C3    1.292922 A    
C8    N8    1.430971 S    
C22   H20   1.110247 S    
O2    C2    1.292659 A    
O3    Zn2   2.002777 S    
O8    C4    1.292953 A    
O1    C1    1.292654 A    
C6    C8    1.427169 A    
C9    C11   1.337425 D    
C10   C12   1.337477 D    
C14   C16   1.369572 A    
C19   H10   1.111563 S    
O3    C1    1.292459 A    
C5    N5    1.429150 S    
C6    N1    1.384884 A    
C13   C15   1.369579 A    
N7    O9    1.297978 A    
O2    Zn2   1.999677 S    
C7    N7    1.430968 S    
C22   H21   1.109303 S    
O4    C2    1.292457 A    
O1    Zn1   1.999677 S    
C16   C18   1.396504 A    
C21   H16   1.110247 S    
C15   C17   1.396505 A    
C5    N2    1.384892 A    
O5    Zn1   1.952578 S    
C7    N1    1.365333 A    
C19   H9    1.109493 S    
C15   H5    1.083118 S    
N5    H15   1.017562 S    
C20   H13   1.111476 S    
C19   H8    1.110380 S    
C5    C7    1.427161 A    
Zn2   N2    2.031760 S    
O6    Zn2   1.952577 S    
C20   H14   1.109495 S    
N5    C21   1.452033 S    
C11   C12   1.469673 S    
C12   N3    1.438741 S    
C8    N2    1.365343 A    
N7    O10   1.300836 A    
O4    Zn1   2.002778 S    
C21   H17   1.112419 S    
O8    Zn1   1.970569 S    
N8    O12   1.300842 A    
