data_mof_unit_40843.cif
_audit_creation_date              2012-12-10T18:16:16-0500
_audit_creation_method            fapswitch 2.2
_symmetry_space_group_name_H-M    P1
_symmetry_Int_Tables_number       1
_space_group_crystal_system       triclinic
_cell_length_a                    12.58627
_cell_length_b                    13.107006
_cell_length_c                    27.720107
_cell_angle_alpha                 90.772143
_cell_angle_beta                  103.085295
_cell_angle_gamma                 81.828462
_cell_volume                      4408.14553732

loop_
_atom_site_label
_atom_site_type_symbol
_atom_type_description
_atom_site_fract_x
_atom_site_fract_y
_atom_site_fract_z
_atom_type_partial_charge
C1    C     C_R   0.438043 0.691706 0.493126 0.899796
C2    C     C_R   0.532551 0.576653 0.030649 0.044780
C3    C     C_R   0.495854 0.396153 0.023291 0.044954
C4    C     C_R   0.501188 0.500493 0.593875 0.909355
C5    C     C_R   0.513050 0.485247 0.052079 0.070133
C6    C     C_R   0.556364 0.660856 0.061714 -0.215783
C7    C     C_R   0.555489 0.657151 0.111564 -0.139436
C8    C     C_R   0.531490 0.569335 0.132386 -0.021020
C9    C     C_R   0.510516 0.482989 0.102883 -0.051867
C10   C     C_R   0.486662 0.394524 0.124258 -0.016208
C11   C     C_R   0.484689 0.393969 0.174518 0.478015
C12   C     C_R   0.608582 0.511067 0.731994 0.546166
C13   C     C_R   0.528859 0.565442 0.182456 0.522564
C14   C     C_R   0.606870 0.473917 0.290067 0.051759
C15   C     C_R   0.602330 0.482382 0.339761 -0.273125
C16   C     C_R   0.561580 0.308599 0.504804 0.866846
C17   C     C_R   0.403506 0.488984 0.317774 -0.226598
C18   C     C_R   0.406789 0.482058 0.268074 -0.116015
C19   C     C_R   0.507541 0.475453 0.253979 0.281495
C20   C     C_R   0.528134 0.580864 0.979182 0.045494
C21   C     C_R   0.516597 0.490205 0.950997 0.073412
C22   C     C_R   0.504001 0.396917 0.973160 0.044470
C23   C     C_R   0.512490 0.502077 0.748221 0.246959
C24   C     C_R   0.533493 0.673273 0.954593 -0.213230
C25   C     C_R   0.503204 0.310333 0.894585 -0.136082
C26   C     C_R   0.469594 0.309495 0.045656 -0.216886
C27   C     C_R   0.465284 0.308871 0.095194 -0.143579
C28   C     C_R   0.499515 0.498291 0.406227 0.850707
C29   C     C_R   0.500547 0.307150 0.944262 -0.213656
C30   C     C_R   0.694561 0.064297 0.459699 -0.199679
C31   C     C_R   0.598109 0.199699 0.500177 -0.050952
C32   C     C_R   0.299155 0.841618 0.503376 0.492723
C33   C     C_R   0.276004 0.947238 0.510654 -0.230128
C34   C     C_R   0.517187 0.492962 0.899986 -0.051769
C35   C     C_R   0.349824 0.012633 0.504901 -0.270742
C36   C     C_R   0.447866 0.974431 0.489819 0.093039
C37   C     C_R   0.464266 0.870693 0.476003 0.016094
C38   C     C_R   0.529948 0.036217 0.487727 0.102493
C39   C     C_R   0.616492 0.000296 0.463955 0.166306
C40   C     C_R   0.523034 0.587302 0.826275 0.541790
C41   C     C_R   0.622066 0.902175 0.443906 -0.255468
C42   C     C_R   0.547636 0.837622 0.450251 -0.158480
C43   C     C_R   0.528358 0.132973 0.509002 -0.250394
C44   C     C_R   0.683972 0.164949 0.476876 -0.195260
C45   C     C_R   0.524613 0.585922 0.876884 -0.027443
C46   C     C_R   0.397393 0.802357 0.488714 -0.236869
C47   C     C_R   0.086188 0.350339 0.429161 -0.303604
C48   C     C_R   0.801453 0.625965 0.560705 0.023748
C49   C     C_R   0.908621 0.647620 0.576045 -0.247607
C50   C     C_R   0.990371 0.597013 0.554330 -0.195920
C51   C     C_R   0.964647 0.525213 0.516491 0.009404
C52   C     C_R   0.509703 0.407463 0.821520 0.532870
C53   C     C_R   0.855009 0.503016 0.503582 0.239656
C54   C     C_R   0.042955 0.474238 0.491299 -0.021074
C55   C     C_R   0.010812 0.400328 0.454873 0.200928
C56   C     C_R   0.531878 0.675490 0.904442 -0.142493
C57   C     C_R   0.903918 0.376675 0.444574 -0.299726
C58   C     C_R   0.827561 0.426864 0.468886 -0.225813
C59   C     C_R   0.152144 0.494409 0.500125 -0.072941
C60   C     C_R   0.192671 0.374072 0.439565 0.003539
C61   C     C_R   0.412889 0.495877 0.714298 -0.192794
C62   C     C_R   0.408633 0.496164 0.663843 -0.203763
C63   C     C_R   0.604289 0.508389 0.681040 -0.342467
C64   C     C_3   0.762606 0.594122 0.757942 0.111794
C65   C     C_3   0.873412 0.550695 0.746348 -0.357563
C66   C     C_3   0.933711 0.636594 0.734095 -0.948297
C67   C     C_R   0.509831 0.402857 0.871908 -0.030796
C68   C     C_3   0.129339 0.786537 0.480548 0.081483
C69   C     C_3   0.036521 0.832487 0.505248 -0.343349
C70   C     C_3   0.923424 0.820326 0.473285 -0.959271
C71   C     C_R   0.715702 0.464332 0.276854 0.116680
C72   C     C_R   0.789070 0.534685 0.295235 -0.103539
C73   C     C_R   0.892484 0.524796 0.283637 -0.136755
C74   C     C_R   0.923667 0.444653 0.253726 -0.107420
C75   C     C_R   0.851665 0.373984 0.235546 -0.132662
C76   C     C_R   0.748324 0.383348 0.247202 -0.171570
C77   C     C_R   0.504503 0.501830 0.646918 -0.091933
C78   C     C_R   0.501184 0.490501 0.353808 -0.038779
H1    H     H_    0.678933 0.510281 0.668171 0.170217
H2    H     H_    0.684874 0.874667 0.423925 0.156770
H3    H     H_    0.760314 0.038200 0.441138 0.142144
H4    H     H_    0.469480 0.160938 0.530721 0.150774
H5    H     H_    0.326402 0.093207 0.511255 0.162077
H6    H     H_    0.203055 0.978629 0.523214 0.152986
H7    H     H_    0.554669 0.762187 0.433936 0.168392
H8    H     H_    0.252345 0.336306 0.420112 0.139803
H9    H     H_    0.878965 0.319202 0.417461 0.156015
H10   H     H_    0.062910 0.293789 0.401318 0.148850
H11   H     H_    0.183944 0.549508 0.526691 0.151966
H12   H     H_    0.338875 0.490302 0.727235 0.158073
H13   H     H_    0.737655 0.664289 0.577719 0.140227
H14   H     H_    0.536026 0.748203 0.887309 0.188214
H15   H     H_    0.072512 0.615245 0.568028 0.147134
H16   H     H_    0.928425 0.703087 0.604799 0.152647
H17   H     H_    0.747660 0.403807 0.460002 0.209681
H18   H     H_    0.678513 0.480987 0.367545 0.164332
H19   H     H_    0.573967 0.723766 0.133779 0.188791
H20   H     H_    0.578485 0.730425 0.048978 0.142302
H21   H     H_    0.536143 0.746346 0.972705 0.141711
H22   H     H_    0.330605 0.491408 0.638210 0.171256
H23   H     H_    0.499676 0.239616 0.873953 0.190080
H24   H     H_    0.778754 0.639161 0.792431 0.182747
H25   H     H_    0.714234 0.650059 0.728259 0.133022
H26   H     H_    0.925693 0.505293 0.778905 0.239581
H27   H     H_    0.860421 0.498294 0.714400 0.225001
H28   H     H_    0.884197 0.681002 0.700693 0.259944
H29   H     H_    0.014099 0.602617 0.726469 0.270185
H30   H     H_    0.949106 0.689500 0.765769 0.271102
H31   H     H_    0.114800 0.708153 0.467531 0.171252
H32   H     H_    0.126186 0.833241 0.446665 0.113850
H33   H     H_    0.046989 0.794061 0.541766 0.239931
H34   H     H_    0.449179 0.241355 0.025624 0.142936
H35   H     H_    0.039915 0.915762 0.511700 0.205472
H36   H     H_    0.909029 0.863044 0.437527 0.253447
H37   H     H_    0.858984 0.851887 0.493127 0.275104
H38   H     H_    0.916735 0.737737 0.465876 0.273886
H39   H     H_    0.765970 0.597490 0.318310 0.135626
H40   H     H_    0.948457 0.579301 0.297849 0.130331
H41   H     H_    0.003776 0.437082 0.244794 0.130252
H42   H     H_    0.876224 0.311474 0.212678 0.140249
H43   H     H_    0.694716 0.326525 0.233749 0.158513
H44   H     H_    0.324650 0.494844 0.327888 0.158774
H45   H     H_    0.445062 0.240560 0.110629 0.189285
H46   H     H_    0.330681 0.483877 0.240236 0.143862
H47   H     H_    0.498050 0.232265 0.959120 0.142104
H48   H     H_    0.738499 0.216686 0.469552 0.146455
N1    N     N_R   0.515650 0.498849 0.799909 -0.335229
N2    N     N_R   0.507096 0.478171 0.202470 -0.353932
N3    N     N_R   0.222180 0.444690 0.474320 -0.104539
N4    N     N_R   0.776980 0.554780 0.525420 -0.130697
O1    O     O_R   0.366730 0.627160 0.487740 -0.574858
O2    O     O_R   0.410930 0.482330 0.420550 -0.623635
O3    O     O_R   0.589030 0.517690 0.436960 -0.647222
O4    O     O_2   0.527998 0.676227 0.803411 -0.580016
O5    O     O_3   0.706960 0.511982 0.766881 -0.643307
O6    O     O_3   0.231865 0.775921 0.515556 -0.642102
O7    O     O_2   0.547488 0.648190 0.211015 -0.567655
O8    O     O_2   0.503761 0.321498 0.794231 -0.555101
O9    O     O_2   0.462198 0.309680 0.195564 -0.572374
O10   O     O_R   0.544830 0.662520 0.504140 -0.621949
O11   O     O_R   0.410970 0.482310 0.563040 -0.616947
O12   O     O_R   0.589070 0.517670 0.579450 -0.623764
O13   O     O_R   0.455170 0.337480 0.495860 -0.612350
O14   O     O_R   0.633270 0.372840 0.512260 -0.632206
Zn1   Zn    Zn3+2 0.381080 0.476390 0.489050 0.953143
Zn2   Zn    Zn3+2 0.618920 0.523610 0.510950 0.928742

loop_
_geom_bond_atom_site_label_1
_geom_bond_atom_site_label_2
_ccdc_geom_bond_type
C10   C27   A    
C64   H25   S    
C8    C13   A    
C22   C29   A    
C29   H47   S    
N4    Zn2   S    
C24   H21   S    
C41   C42   A    
O12   Zn2   S    
C62   C77   A    
C35   C36   A    
C25   C67   A    
C66   H29   S    
C75   C76   A    
C48   N4    A    
C41   H2    S    
C7    C8    A    
C39   C41   A    
C63   H1    S    
C70   H36   S    
C16   C31   S    
C64   H24   S    
C74   H41   S    
C12   C23   A    
C69   H35   S    
C26   C27   A    
C31   C43   A    
C76   H43   S    
C6    H20   S    
C23   N1    S    
C36   C37   A    
C16   O14   A    
C59   H11   S    
C38   C39   A    
C1    C46   S    
C15   C78   A    
C19   N2    S    
C18   C19   A    
C14   C71   S    
C37   C42   A    
C11   O9    S    
C47   C60   A    
C13   N2    A    
C20   C24   A    
C45   C56   A    
C8    C9    A    
C12   O5    S    
C35   H5    S    
C72   H39   S    
C52   O8    S    
C49   H16   S    
C28   C78   S    
C9    C10   A    
N3    Zn1   S    
C61   C62   A    
O11   Zn1   S    
C64   O5    S    
C21   C22   A    
C30   C44   A    
C2    C6    A    
C66   H28   S    
C65   H27   S    
C52   N1    A    
C50   C51   A    
C54   C59   A    
C73   C74   A    
C25   C29   A    
C40   C45   A    
C31   C44   A    
C2    C20   A    
C28   O3    A    
C68   O6    S    
C16   O13   A    
O14   Zn2   S    
C74   C75   A    
O10   Zn2   S    
C15   H18   S    
C32   O6    S    
C12   C63   A    
C27   H45   S    
C68   C69   S    
C21   C34   A    
C70   H38   S    
C40   N1    A    
C40   O4    S    
C48   H13   S    
C57   H9    S    
C32   C33   A    
C28   O2    A    
C13   O7    S    
C34   C67   A    
C58   H17   S    
C5    C9    A    
C23   C61   A    
C44   H48   S    
C17   C18   A    
C42   H7    S    
C68   H32   S    
C52   C67   A    
C1    O10   A    
C34   C45   A    
C62   H22   S    
C48   C49   A    
C49   C50   A    
C55   C57   A    
C38   C43   A    
C2    C5    A    
O2    Zn1   S    
C26   H34   S    
C4    O11   A    
C61   H12   S    
C47   C55   A    
C63   C77   A    
O13   Zn1   S    
C54   C55   A    
C59   N3    A    
C60   H8    S    
C73   H40   S    
C7    H19   S    
C32   C46   A    
C14   C19   A    
C3    C26   A    
C75   H42   S    
C66   H30   S    
C72   C73   A    
C3    C5    A    
C60   N3    A    
C53   C58   A    
C50   H15   S    
C6    C7    A    
C53   N4    A    
C70   H37   S    
C24   C56   A    
C51   C54   A    
C47   H10   S    
C30   H3    S    
C36   C38   A    
C11   N2    A    
C4    C77   S    
C64   C65   S    
C4    O12   A    
C69   H33   S    
C25   H23   S    
C57   C58   A    
C71   C76   A    
C1    O1    A    
C17   C78   A    
C33   C35   A    
C30   C39   A    
O1    Zn1   S    
C68   H31   S    
C69   C70   S    
C33   H6    S    
C10   C11   A    
C17   H44   S    
C56   H14   S    
C71   C72   A    
C20   C21   A    
C65   C66   S    
C43   H4    S    
C14   C15   A    
C3    C22   A    
O3    Zn2   S    
C65   H26   S    
C51   C53   A    
C37   C46   A    
C18   H46   S    
