data_mof_unit_42541.cif
_audit_creation_date              2012-12-11T15:08:32-0500
_audit_creation_method            fapswitch 2.2
_symmetry_space_group_name_H-M    P1
_symmetry_Int_Tables_number       1
_space_group_crystal_system       triclinic
_cell_length_a                    26.765751
_cell_length_b                    7.145076
_cell_length_c                    12.036624
_cell_angle_alpha                 89.952016
_cell_angle_beta                  103.287135
_cell_angle_gamma                 89.72618
_cell_volume                      2240.27263323

loop_
_atom_site_label
_atom_site_type_symbol
_atom_type_description
_atom_site_fract_x
_atom_site_fract_y
_atom_site_fract_z
_atom_type_partial_charge
O1    O     O_R   0.437360 0.505910 0.042120 -0.539393
O2    O     O_R   0.562640 0.005910 0.957880 -0.538672
O3    O     O_R   0.542480 0.176660 0.157100 -0.542232
O4    O     O_R   0.457520 0.676660 0.842900 -0.542075
C1    C     C_R   0.556257 0.344148 0.197398 0.686868
C2    C     C_R   0.443877 0.845114 0.802523 0.686839
O5    O     O_R   0.436520 0.176250 0.054800 -0.540255
O6    O     O_R   0.563480 0.676250 0.945200 -0.541090
O7    O     O_R   0.455920 0.005040 0.854840 -0.537537
O8    O     O_R   0.544080 0.505040 0.145160 -0.537125
C3    C     C_R   0.417549 0.344879 0.063030 0.689020
C4    C     C_R   0.582424 0.844414 0.936770 0.688367
O9    O     O_3   0.506490 0.338900 0.934520 -0.375591
O10   O     O_3   0.493510 0.838900 0.065480 -0.375233
V1    V     V_3+5 0.498800 0.064400 0.012150 1.419506
V2    V     V_3+5 0.501200 0.564400 0.987850 1.418826
C5    C     C_R   0.681376 0.848161 0.760265 -0.170354
C6    C     C_R   0.318667 0.353780 0.239456 -0.185557
H1    H     H_    0.599160 0.835505 0.723701 0.106909
H2    H     H_    0.400961 0.349594 0.276122 0.107098
H3    H     H_    0.775238 0.847722 0.723399 0.139533
H4    H     H_    0.224857 0.348422 0.276582 0.135699
H5    H     H_    0.682210 0.841757 0.670738 0.131288
H6    H     H_    0.317910 0.352782 0.329104 0.132304
C7    C     C_R   0.631938 0.851876 0.904707 -0.030324
C8    C     C_R   0.368009 0.352822 0.094891 -0.033079
C9    C     C_R   0.867903 0.865207 0.210835 -0.180116
C10   C     C_R   0.131898 0.350095 0.789194 -0.180253
C11   C     C_R   0.821965 0.866201 0.245932 -0.118007
C12   C     C_R   0.177787 0.340945 0.754130 -0.122753
C13   C     C_R   0.775195 0.868299 0.165895 -0.168544
C14   C     C_R   0.224595 0.345854 0.833935 -0.169485
C15   C     C_R   0.773213 0.868273 0.047198 0.062283
C16   C     C_R   0.226634 0.355567 0.952494 0.053546
C17   C     C_R   0.820612 0.864639 0.011785 0.035679
C18   C     C_R   0.179305 0.357316 0.988081 0.043742
C19   C     C_R   0.725884 0.865894 0.962517 0.051873
C20   C     C_R   0.273981 0.357745 0.037015 0.056116
C21   C     C_R   0.727177 0.856645 0.845001 0.108719
C22   C     C_R   0.272788 0.354587 0.154680 0.111133
C23   C     C_R   0.774074 0.853958 0.812759 -0.151249
C24   C     C_R   0.225946 0.351349 0.187116 -0.156047
C25   C     C_R   0.820036 0.858119 0.894557 -0.213911
C26   C     C_R   0.179946 0.354123 0.105382 -0.207652
C27   C     C_R   0.677200 0.863396 0.990088 -0.236852
C28   C     C_R   0.322649 0.355411 0.009341 -0.234714
C29   C     C_R   0.634096 0.844566 0.790052 -0.195605
C30   C     C_R   0.365947 0.352356 0.209664 -0.194960
C31   C     C_R   0.867769 0.863976 0.094710 -0.065515
C32   C     C_R   0.132133 0.358695 0.905238 -0.063055
H7    H     H_    0.672965 0.868795 0.076893 0.103889
H8    H     H_    0.326811 0.356333 0.922424 0.105153
H9    H     H_    0.903826 0.865668 0.274607 0.102431
H10   H     H_    0.095947 0.349439 0.725508 0.100199
H11   H     H_    0.741394 0.869955 0.200047 0.117182
H12   H     H_    0.258372 0.340201 0.799777 0.117890
H13   H     H_    0.822562 0.866577 0.336195 0.136437
H14   H     H_    0.177129 0.332589 0.663975 0.134904
H15   H     H_    0.855252 0.854892 0.864846 0.132285
H16   H     H_    0.144755 0.353047 0.135218 0.128311
C33   C     C_R   0.091965 0.854613 0.308914 -0.063194
C34   C     C_R   0.907551 0.359644 0.691574 -0.056025
C35   C     C_R   0.410387 0.857092 0.688352 -0.032327
C36   C     C_R   0.589753 0.351664 0.311722 -0.031167
C37   C     C_R   0.108734 0.758519 0.505372 -0.168135
C38   C     C_R   0.891996 0.347400 0.486930 -0.168337
C39   C     C_R   0.074455 0.785404 0.401088 -0.167790
C40   C     C_R   0.925954 0.366232 0.592507 -0.174320
C41   C     C_R   0.144141 0.893485 0.320318 -0.201403
C42   C     C_R   0.854912 0.340689 0.684998 -0.183893
C43   C     C_R   0.181114 0.849548 0.422247 0.094838
C44   C     C_R   0.818662 0.339855 0.578537 0.094146
C45   C     C_R   0.161432 0.789287 0.516655 0.133772
C46   C     C_R   0.839010 0.331718 0.479271 0.131335
C47   C     C_R   0.236172 0.863246 0.435495 -0.039241
C48   C     C_R   0.763594 0.344890 0.565786 -0.039099
C49   C     C_R   0.268919 0.831195 0.547013 0.000946
C50   C     C_R   0.731187 0.321010 0.453422 0.002077
C51   C     C_R   0.246408 0.778426 0.637440 -0.172485
C52   C     C_R   0.754378 0.288628 0.361046 -0.178963
C53   C     C_R   0.194114 0.758311 0.622334 -0.206150
C54   C     C_R   0.806763 0.302573 0.372877 -0.200860
C55   C     C_R   0.260351 0.898893 0.342928 0.390547
C56   C     C_R   0.739401 0.380066 0.658277 0.387779
C57   C     C_R   0.313498 0.926951 0.365065 -0.295527
C58   C     C_R   0.685913 0.398388 0.637237 -0.288704
C59   C     C_R   0.344776 0.904209 0.473124 0.074503
C60   C     C_R   0.654705 0.376677 0.529085 0.074163
C61   C     C_R   0.323385 0.852345 0.565549 0.079406
C62   C     C_R   0.676540 0.336591 0.435357 0.079538
C63   C     C_R   0.397848 0.932733 0.488828 -0.138710
C64   C     C_R   0.601448 0.401757 0.513839 -0.139115
C65   C     C_R   0.430394 0.910655 0.596085 -0.175566
C66   C     C_R   0.569211 0.390377 0.405608 -0.176252
C67   C     C_R   0.357672 0.827763 0.673711 -0.199713
C68   C     C_R   0.642596 0.323252 0.326051 -0.198840
H17   H     H_    0.179015 0.717816 0.694983 0.140604
H18   H     H_    0.822317 0.286894 0.297746 0.137571
H19   H     H_    0.345123 0.790721 0.749553 0.093822
H20   H     H_    0.655556 0.295756 0.249334 0.093219
H21   H     H_    0.471136 0.935926 0.607298 0.100203
H22   H     H_    0.528297 0.412453 0.394939 0.099286
H23   H     H_    0.330870 0.965567 0.295605 0.145433
H24   H     H_    0.668507 0.436646 0.706960 0.144291
H25   H     H_    0.094162 0.708926 0.576985 0.114515
H26   H     H_    0.907187 0.344648 0.410844 0.117064
H27   H     H_    0.034195 0.753575 0.392375 0.104622
H28   H     H_    0.966701 0.379367 0.597198 0.102873
H29   H     H_    0.153299 0.959373 0.247640 0.178155
H30   H     H_    0.844613 0.319262 0.764891 0.156130
H31   H     H_    0.268143 0.747206 0.721997 0.128718
H32   H     H_    0.732977 0.255024 0.276834 0.131396
H33   H     H_    0.414171 0.973605 0.417973 0.112774
H34   H     H_    0.584778 0.433236 0.585741 0.112958
O11   O     O_R   0.955980 0.206520 0.854760 -0.540328
O12   O     O_R   0.044020 0.706520 0.145240 -0.536844
O13   O     O_R   0.063490 0.536770 0.945200 -0.541064
O14   O     O_R   0.936510 0.036770 0.054800 -0.542479
C69   C     C_R   0.082592 0.368083 0.937694 0.677873
C70   C     C_R   0.917377 0.869072 0.062292 0.677149
O15   O     O_R   0.957530 0.536190 0.842880 -0.539641
O16   O     O_R   0.042470 0.036190 0.157120 -0.543622
O17   O     O_R   0.937350 0.707210 0.042130 -0.536227
O18   O     O_R   0.062650 0.207210 0.957870 -0.536332
C71   C     C_R   0.943154 0.367967 0.803394 0.690832
C72   C     C_R   0.056816 0.867311 0.196627 0.692232
O19   O     O_3   0.993540 0.373870 0.065440 -0.376438
O20   O     O_3   0.006460 0.873870 0.934560 -0.375022
V3    V     V_3+5 0.001200 0.648440 0.987860 1.425190
V4    V     V_3+5 0.998800 0.148440 0.012140 1.417425
O21   O     O_3   0.232171 0.920878 0.231647 -0.584624
C73   C     C_3   0.249441 0.802971 0.153231 0.047419
H35   H     H_    0.216834 0.713608 0.111617 0.160453
H36   H     H_    0.282406 0.711524 0.192608 0.134443
C74   C     C_3   0.264254 0.922225 0.061342 -0.289483
H37   H     H_    0.230431 0.007518 0.020485 0.223455
H38   H     H_    0.296947 0.011116 0.102195 0.213561
C75   C     C_3   0.280999 0.810574 0.968926 -0.852664
H39   H     H_    0.315749 0.727125 0.006566 0.248257
H40   H     H_    0.290911 0.909126 0.906006 0.227779
H41   H     H_    0.249346 0.720019 0.923764 0.242290
O22   O     O_3   0.767464 0.427675 0.765984 -0.577918
C76   C     C_3   0.755734 0.310410 0.851843 0.033662
H42   H     H_    0.790430 0.227030 0.890131 0.149011
H43   H     H_    0.723325 0.213169 0.820988 0.134186
C77   C     C_3   0.742514 0.431966 0.944256 -0.277263
H44   H     H_    0.775402 0.525341 0.975899 0.225727
H45   H     H_    0.707144 0.511654 0.906465 0.213020
C78   C     C_3   0.732791 0.323885 0.045501 -0.863861
H46   H     H_    0.699397 0.230295 0.018223 0.245626
H47   H     H_    0.723676 0.425428 0.107833 0.231350
H48   H     H_    0.767603 0.243919 0.087434 0.245209

loop_
_geom_bond_atom_site_label_1
_geom_bond_atom_site_label_2
_ccdc_geom_bond_type
C76   C77   S    
C38   C40   A    
O16   C72   A    
C59   C63   A    
C61   C67   A    
C9    C11   A    
C23   C25   A    
C60   C62   A    
O1    C3    A    
C44   C48   A    
C58   H24   S    
O20   V3    S    
C48   C56   A    
C2    O7    A    
C18   C32   A    
C74   H37   S    
C21   C23   A    
H4    C24   S    
C69   O18   A    
C50   C62   A    
O5    C3    A    
C49   C61   A    
C5    H5    S    
C68   H20   S    
C6    H6    S    
C10   C32   A    
C20   C22   A    
C48   C50   A    
O13   C69   A    
C67   H19   S    
C31   C70   S    
C27   H7    S    
C76   H42   S    
C38   C46   A    
C35   C67   A    
C37   C45   A    
C34   C42   A    
C76   H43   S    
C5    C21   A    
C45   C53   A    
C41   C43   A    
C6    C22   A    
C42   H30   S    
C41   H29   S    
C47   C55   A    
O12   V3    S    
C60   C64   A    
C73   H35   S    
C37   C39   A    
C17   C31   A    
C13   C15   A    
C33   C72   S    
C17   C25   A    
C7    C29   A    
C16   C18   A    
C57   H23   S    
C70   O17   A    
C25   H15   S    
C22   C24   A    
O2    C4    A    
O6    V2    S    
O12   C72   A    
O17   V3    S    
C54   H18   S    
C24   C26   A    
C46   C54   A    
C37   H25   S    
C77   H45   S    
C49   C51   A    
C43   C47   A    
C57   C59   A    
C32   C69   S    
C36   C68   A    
C44   C46   A    
C78   H48   S    
C65   H21   S    
C51   C53   A    
C10   H10   S    
O5    V1    S    
C3    C8    S    
C15   C19   A    
C63   H33   S    
C1    C36   S    
C6    C30   A    
C14   C16   A    
C2    C35   S    
O4    V2    S    
O19   V3    S    
O15   C71   A    
O14   V4    S    
C63   C65   A    
C77   C78   S    
C33   C39   A    
C56   O22   S    
O6    C4    A    
C52   H32   S    
C64   C66   A    
C50   C52   A    
O18   V4    S    
O1    V2    S    
O2    V1    S    
C47   C49   A    
H2    C30   S    
C74   C75   S    
C75   H40   S    
C73   H36   S    
H3    C23   S    
C52   C54   A    
C55   C57   A    
C11   H13   S    
C59   C61   A    
C18   C26   A    
O4    C2    A    
C19   C27   A    
O21   C73   S    
C7    C27   A    
O13   V3    S    
C43   C45   A    
C77   H44   S    
C33   C41   A    
C74   H38   S    
C16   C20   A    
C5    C29   A    
O15   V3    S    
O3    C1    A    
C75   H41   S    
O20   V4    S    
C34   C71   S    
C9    H9    S    
C62   C68   A    
C8    C30   A    
C35   C65   A    
O11   C71   A    
C51   H31   S    
C4    C7    S    
C78   H47   S    
C55   O21   S    
O7    V1    S    
O19   V4    S    
C36   C66   A    
C1    O8    A    
C11   C13   A    
O8    V2    S    
C78   H46   S    
C28   H8    S    
C12   C14   A    
C39   H27   S    
C38   H26   S    
C53   H17   S    
C26   H16   S    
C73   C74   S    
C12   H14   S    
C58   C60   A    
C10   C12   A    
C15   C17   A    
C14   H12   S    
H1    C29   S    
C34   C40   A    
O14   C70   A    
C20   C28   A    
C75   H39   S    
C8    C28   A    
C66   H22   S    
C19   C21   A    
O9    V2    S    
O22   C76   S    
O10   V1    S    
C56   C58   A    
O3    V1    S    
C42   C44   A    
C40   H28   S    
C13   H11   S    
C64   H34   S    
O16   V4    S    
C9    C31   A    
O11   V4    S    
