data_mof_unit_52454.cif
_audit_creation_date              2012-10-26T20:32:26-0400
_audit_creation_method            fapswitch 2.2
_symmetry_space_group_name_H-M    P1
_symmetry_Int_Tables_number       1
_space_group_crystal_system       triclinic
_cell_length_a                    19.357019
_cell_length_b                    10.815601
_cell_length_c                    9.565476
_cell_angle_alpha                 89.464777
_cell_angle_beta                  89.906441
_cell_angle_gamma                 90.855646
_cell_volume                      2002.2931371

loop_
_atom_site_label
_atom_site_type_symbol
_atom_type_description
_atom_site_fract_x
_atom_site_fract_y
_atom_site_fract_z
_atom_type_partial_charge
C1    C     C_R   0.499067 0.262367 0.500422 0.546773
C2    C     C_R   0.853040 0.498145 0.505056 0.034679
C3    C     C_R   0.502812 0.062356 0.624991 0.007479
C4    C     C_R   0.367238 0.497475 0.499918 0.542038
C5    C     C_R   0.493346 0.128981 0.501183 0.007162
C6    C     C_R   0.475455 0.064983 0.378729 -0.160218
C7    C     C_R   0.475614 0.936020 0.378066 -0.161669
C8    C     C_R   0.493424 0.870576 0.499971 0.008708
C9    C     C_R   0.502602 0.935088 0.624396 0.027565
C10   C     C_3   0.560431 0.928375 0.727192 -0.269431
C11   C     C_3   0.561132 0.068604 0.727121 -0.269604
C12   C     C_R   0.290641 0.491903 0.501550 0.009657
C13   C     C_R   0.535078 0.589893 0.072371 0.150571
C14   C     C_R   0.460351 0.419045 0.077758 0.004654
C15   C     C_R   0.459784 0.417413 0.929468 0.094243
C16   C     C_R   0.499127 0.737555 0.499565 0.549980
C17   C     C_R   0.535296 0.589644 0.925095 0.149629
C18   C     C_3   0.611251 0.614376 0.920048 -0.284170
C19   C     C_3   0.610737 0.616593 0.078430 -0.272064
C20   C     C_R   0.632371 0.500919 0.499851 0.544250
C21   C     C_R   0.256783 0.514902 0.628696 -0.156476
C22   C     C_R   0.184764 0.508351 0.640332 -0.017813
C23   C     C_R   0.928924 0.493449 0.509769 0.339659
C24   C     C_R   0.144935 0.480868 0.520412 0.010987
C25   C     C_R   0.178522 0.455443 0.394205 -0.114367
C26   C     C_R   0.250542 0.460252 0.382525 -0.012011
C27   C     C_3   0.416372 0.316047 0.864952 -0.346814
C28   C     C_R   0.153646 0.524982 0.780630 0.047215
C29   C     C_R   0.166955 0.633615 0.856116 -0.088160
C30   C     C_R   0.138223 0.648776 0.988976 -0.109110
C31   C     C_R   0.096327 0.555604 0.047688 -0.102741
C32   C     C_R   0.083674 0.446494 0.974304 -0.105619
C33   C     C_R   0.112376 0.430828 0.841472 -0.072178
C34   C     C_R   0.068681 0.482920 0.520251 0.328561
C35   C     C_3   0.281966 0.428970 0.242917 -0.379716
C36   C     C_R   0.816305 0.552574 0.614521 -0.119943
C37   C     C_R   0.744417 0.554027 0.612140 -0.137602
C38   C     C_R   0.708080 0.501985 0.499961 0.014154
C39   C     C_R   0.744610 0.450040 0.388872 -0.138147
C40   C     C_R   0.816583 0.447355 0.391813 -0.119996
Cu1   Cu    Cu3+1 0.500000 0.499980 0.640670 0.928614
Cu2   Cu    Cu3+1 0.500000 0.500020 0.359330 0.923896
H1    H     H_    0.286669 0.536359 0.721348 0.128415
H2    H     H_    0.640501 0.539858 0.125837 0.153450
H3    H     H_    0.622266 0.709622 0.121785 0.127771
H4    H     H_    0.148089 0.433062 0.302733 0.130342
H5    H     H_    0.842991 0.592793 0.702924 0.135159
H6    H     H_    0.717339 0.597060 0.697336 0.111379
H7    H     H_    0.717512 0.409384 0.301197 0.118433
H8    H     H_    0.843601 0.405590 0.305451 0.133425
H9    H     H_    0.464077 0.114108 0.282477 0.126534
H10   H     H_    0.449531 0.242185 0.825092 0.150952
H11   H     H_    0.382201 0.270229 0.943889 0.058728
H12   H     H_    0.464453 0.888247 0.281488 0.133640
H13   H     H_    0.380950 0.350367 0.784425 0.171279
H14   H     H_    0.199097 0.706809 0.811611 0.107006
H15   H     H_    0.148316 0.732913 0.046310 0.113308
H16   H     H_    0.073804 0.567864 0.150179 0.131373
H17   H     H_    0.051638 0.374027 0.020399 0.123416
H18   H     H_    0.102458 0.345562 0.785998 0.113318
H19   H     H_    0.317549 0.350149 0.255532 0.135076
H20   H     H_    0.242194 0.401071 0.165250 0.118253
H21   H     H_    0.309847 0.510812 0.198665 0.157858
H22   H     H_    0.543392 0.887050 0.828596 0.136080
H23   H     H_    0.608030 0.888298 0.682061 0.131475
H24   H     H_    0.545493 0.107456 0.829287 0.131738
H25   H     H_    0.608968 0.110321 0.681099 0.143165
H26   H     H_    0.430495 0.351755 0.137597 0.112518
H27   H     H_    0.640302 0.534907 0.878368 0.150846
H28   H     H_    0.624340 0.705503 0.871676 0.114959
N1    N     N_R   0.032371 0.412737 0.428282 -0.250345
N2    N     N_R   0.963844 0.417775 0.423218 -0.239516
N3    N     N_R   0.965200 0.564162 0.601257 -0.231782
N4    N     N_R   0.033777 0.559559 0.605768 -0.208885
N5    N     N_R   0.500440 0.500930 0.147930 -0.242524
N6    N     N_R   0.500440 0.500890 0.852020 -0.218308
O1    O     O_R   0.500000 0.319640 0.618810 -0.506292
O2    O     O_R   0.500010 0.319680 0.381230 -0.511644
O3    O     O_R   0.400140 0.499970 0.618830 -0.517164
O4    O     O_R   0.400150 0.500010 0.381250 -0.503850
O5    O     O_R   0.499990 0.680320 0.618770 -0.493814
O6    O     O_R   0.500000 0.680360 0.381190 -0.501718
O7    O     O_R   0.599850 0.499990 0.618750 -0.503538
O8    O     O_R   0.599860 0.500030 0.381170 -0.503142

loop_
_geom_bond_atom_site_label_1
_geom_bond_atom_site_label_2
_ccdc_geom_bond_type
C18   H28   S    
Cu2   O4    S    
C1    O1    A    
N3    N4    A    
Cu2   O6    S    
C7    C8    A    
C19   H2    S    
Cu2   N5    S    
C29   C30   A    
C1    C5    S    
C31   H16   S    
C28   C29   A    
C4    O4    A    
Cu1   O1    S    
C38   C39   A    
C27   H13   S    
Cu1   O7    S    
C30   H15   S    
C36   H5    S    
C18   C19   S    
Cu1   Cu2   S    
C21   H1    S    
C13   N5    A    
C8    C9    A    
C17   N6    A    
C6    H9    S    
C4    C12   S    
C9    C10   S    
C11   H24   S    
C18   H27   S    
C15   N6    A    
C8    C16   S    
C22   C28   S    
C21   C22   A    
C1    O2    A    
C23   N3    A    
C11   H25   S    
C13   C19   S    
Cu2   O8    S    
C24   C25   A    
C4    O3    A    
C39   C40   A    
C25   C26   A    
C12   C21   A    
C24   C34   S    
C19   H3    S    
C12   C26   A    
C37   C38   A    
C3    C9    A    
C20   C38   S    
C15   C27   S    
C31   C32   A    
C30   C31   A    
Cu1   O5    S    
C16   O6    A    
C17   C18   S    
C35   H19   S    
C37   H6    S    
C34   N4    A    
C39   H7    S    
C28   C33   A    
Cu2   O2    S    
C33   H18   S    
C20   O8    A    
C22   C24   A    
C27   H10   S    
C10   H23   S    
C2    C36   A    
C36   C37   A    
C23   N2    A    
C10   H22   S    
C3    C5    A    
Cu1   O3    S    
C27   H11   S    
C6    C7    A    
C29   H14   S    
C7    H12   S    
C13   C17   A    
C14   N5    A    
N1    N2    A    
C32   C33   A    
Cu1   N6    S    
C5    C6    A    
C40   H8    S    
C34   N1    A    
C16   O5    A    
C35   H20   S    
C3    C11   S    
C10   C11   S    
C2    C40   A    
C26   C35   S    
C20   O7    A    
C2    C23   S    
C14   H26   S    
C14   C15   A    
C35   H21   S    
C32   H17   S    
C25   H4    S    
