data_mof_unit_32663.cif
_audit_creation_date              2012-12-10T18:09:57-0500
_audit_creation_method            fapswitch 2.2
_symmetry_space_group_name_H-M    P1
_symmetry_Int_Tables_number       1
_space_group_crystal_system       triclinic
_cell_length_a                    10.675391
_cell_length_b                    12.610337
_cell_length_c                    13.258779
_cell_angle_alpha                 82.37894
_cell_angle_beta                  89.56979
_cell_angle_gamma                 102.29517
_cell_volume                      1727.37836844

loop_
_atom_site_label
_atom_site_type_symbol
_atom_type_description
_atom_site_fract_x
_atom_site_fract_y
_atom_site_fract_z
_atom_type_partial_charge
C1    C     C_R   0.480944 0.439389 0.691593 0.870159
C2    C     C_R   0.540833 0.467623 0.965757 0.016682
C3    C     C_R   0.481181 0.482590 0.871091 0.034074
C4    C     C_R   0.741803 0.502251 0.494771 0.859505
C5    C     C_R   0.543546 0.548409 0.031508 0.073052
C6    C     C_R   0.519242 0.652348 0.993785 0.156345
C7    C     C_R   0.465302 0.666860 0.899926 -0.284648
C8    C     C_R   0.429655 0.578025 0.847027 0.016370
C9    C     C_R   0.547851 0.522555 0.136433 -0.222852
C10   C     C_R   0.537500 0.707486 0.161316 -0.191009
C11   C     C_R   0.480983 0.405004 0.802028 -0.113874
C12   C     C_3   0.121231 0.500391 0.494462 0.082956
C13   C     C_R   0.345660 0.094808 0.332951 -0.297202
C14   C     C_R   0.657071 0.803706 0.624593 0.132280
C15   C     C_R   0.701010 0.912214 0.638957 -0.292422
C16   C     C_R   0.519134 0.561148 0.309364 0.859070
C17   C     C_R   0.647645 0.992587 0.585588 -0.173883
C18   C     C_R   0.544739 0.964688 0.521171 0.030755
C19   C     C_R   0.511535 0.854983 0.501160 0.212685
C20   C     C_R   0.479418 0.042879 0.471353 0.006052
C21   C     C_R   0.400772 0.015552 0.389071 0.158781
C22   C     C_R   0.375420 0.908714 0.365795 -0.283386
C23   C     C_3   0.102533 0.619278 0.497335 -0.449223
C24   C     C_R   0.426210 0.828853 0.423630 -0.216128
C25   C     C_R   0.483380 0.145584 0.503254 0.179343
C26   C     C_R   0.366831 0.199596 0.360442 -0.005456
C27   C     C_R   0.258273 0.500270 0.498130 0.846878
C28   C     C_3   0.920607 0.460098 0.390770 0.130159
C29   C     C_3   0.067636 0.465054 0.392554 -0.472453
C30   C     C_3   0.960451 0.621744 0.499120 -0.198367
C31   C     C_3   0.904929 0.428211 0.586828 -0.487564
C32   C     C_3   0.878956 0.503861 0.490326 0.059500
C33   C     C_1   0.891268 0.528147 0.297625 0.171493
C34   C     C_3   0.046943 0.421441 0.587019 -0.146455
C35   C     C_1   0.685103 0.362657 0.069049 0.142241
C36   C     C_1   0.324312 0.582574 0.780932 0.193209
C37   C     C_1   0.714511 0.722133 0.681203 0.237645
C38   C     C_1   0.935401 0.709924 0.421538 0.205442
C39   C     C_1   0.059087 0.306459 0.588998 0.174791
C40   C     C_R   0.527287 0.734031 0.057118 -0.186396
C41   C     C_R   0.538279 0.599256 0.201166 -0.045873
C42   C     C_R   0.516459 0.305954 0.835161 -0.221741
C43   C     C_R   0.572709 0.290328 0.928079 -0.179004
C44   C     C_R   0.594002 0.372827 0.990148 0.016460
H1    H     H_    0.086619 0.447098 0.658864 0.151740
H2    H     H_    0.328271 0.262656 0.315828 0.140011
H3    H     H_    0.312964 0.885920 0.304528 0.157415
H4    H     H_    0.287771 0.076133 0.268187 0.153774
H5    H     H_    0.692700 0.076256 0.592405 0.169318
H6    H     H_    0.778240 0.934980 0.689796 0.160510
H7    H     H_    0.399246 0.748047 0.404070 0.209396
H8    H     H_    0.088118 0.384172 0.382205 0.183447
H9    H     H_    0.120307 0.523743 0.328013 0.153565
H10   H     H_    0.154719 0.674112 0.430261 0.178420
H11   H     H_    0.881600 0.462089 0.656438 0.174417
H12   H     H_    0.936602 0.644957 0.573952 0.169516
H13   H     H_    0.840037 0.345602 0.593165 0.178940
H14   H     H_    0.875869 0.322122 0.317227 0.195025
H15   H     H_    0.878151 0.292152 0.443094 0.193506
H16   H     H_    0.593905 0.234342 0.598911 0.220891
H17   H     H_    0.440723 0.171007 0.644157 0.209298
H18   H     H_    0.144847 0.652679 0.565734 0.212643
H19   H     H_    0.533200 0.768525 0.210790 0.162487
H20   H     H_    0.432552 0.741841 0.875863 0.151521
H21   H     H_    0.512956 0.814824 0.027741 0.137931
H22   H     H_    0.542693 0.438791 0.169304 0.169146
H23   H     H_    0.515246 0.245297 0.784825 0.158471
H24   H     H_    0.610347 0.217101 0.947315 0.147426
N1    N     N_R   0.433240 0.222190 0.444680 -0.111312
N2    N     N_1   0.068560 0.216516 0.590594 -0.208315
N3    N     N_R   0.566070 0.776970 0.554790 -0.148199
N4    N     N_1   0.868236 0.580827 0.224678 -0.186618
N5    N     N_1   0.758348 0.353942 0.131839 -0.205401
N6    N     N_3   0.850814 0.346688 0.385625 -0.427814
N7    N     N_1   0.238768 0.588895 0.729631 -0.251624
N8    N     N_3   0.521653 0.163595 0.603353 -0.490974
N9    N     N_1   0.761280 0.657352 0.727614 -0.225132
N10   N     N_1   0.915810 0.779233 0.361358 -0.190641
O1    O     O_R   0.468120 0.366740 0.627160 -0.637764
O2    O     O_R   0.510770 0.544830 0.662520 -0.601426
O3    O     O_R   0.663880 0.410950 0.482330 -0.609010
O4    O     O_R   0.706530 0.589040 0.517700 -0.623553
O5    O     O_R   0.489230 0.455170 0.337480 -0.624699
O6    O     O_R   0.531880 0.633260 0.372840 -0.638360
O7    O     O_R   0.293470 0.410960 0.482300 -0.610918
O8    O     O_R   0.336120 0.589050 0.517670 -0.638858
Zn1   Zn    Zn3+2 0.471520 0.381090 0.476390 0.942665
Zn2   Zn    Zn3+2 0.528480 0.618910 0.523610 0.951147

loop_
_geom_bond_atom_site_label_1
_geom_bond_atom_site_label_2
_ccdc_geom_bond_type
O5    Zn1   S    
C12   C29   S    
C14   N3    A    
C19   N3    A    
C10   H19   S    
C1    C11   S    
C28   N6    S    
O1    Zn1   S    
C7    C8    A    
C12   C23   S    
C28   C29   S    
C5    C6    A    
O8    Zn2   S    
C20   C25   A    
C16   O6    A    
C30   C38   S    
C11   C42   A    
C10   C40   A    
C18   C19   A    
C8    C36   S    
C15   H6    S    
C27   O7    A    
C9    H22   S    
C33   N4    T    
C23   H18   S    
C4    O3    A    
C2    C44   A    
C43   H24   S    
C18   C20   A    
N1    Zn1   S    
C24   H7    S    
C22   H3    S    
C21   C22   A    
C10   C41   A    
O7    Zn1   S    
H17   N8    S    
C12   C27   S    
C34   C39   S    
C23   C30   S    
C28   C32   S    
C3    C8    A    
C17   H5    S    
C38   N10   T    
C37   N9    T    
H16   N8    S    
C16   O5    A    
C27   O8    A    
C43   C44   A    
C5    C9    A    
C36   N7    T    
C31   C32   S    
C17   C18   A    
C31   C34   S    
C13   C21   A    
C34   H1    S    
C4    C32   S    
C35   C44   S    
H15   N6    S    
O3    Zn1   S    
C28   C33   S    
C40   H21   S    
C42   H23   S    
C1    O1    A    
C22   C24   A    
C13   C26   A    
C2    C5    A    
C25   N1    A    
C42   C43   A    
C12   C34   S    
H14   N6    S    
C23   H10   S    
C15   C17   A    
C35   N5    T    
O6    Zn2   S    
C13   H4    S    
C30   H12   S    
C6    C7    A    
C9    C41   A    
C25   N8    S    
C31   H13   S    
C19   C24   A    
O2    Zn2   S    
C14   C37   S    
C30   C32   S    
C29   H9    S    
O4    Zn2   S    
C39   N2    T    
C2    C3    A    
C6    C40   A    
C7    H20   S    
C3    C11   A    
C26   H2    S    
N3    Zn2   S    
C4    O4    A    
C20   C21   A    
C26   N1    A    
C14   C15   A    
C1    O2    A    
C31   H11   S    
C16   C41   S    
C29   H8    S    
