data_mof_unit_38202.cif
_audit_creation_date              2012-12-10T20:46:34-0500
_audit_creation_method            fapswitch 2.2
_symmetry_space_group_name_H-M    P1
_symmetry_Int_Tables_number       1
_space_group_crystal_system       triclinic
_cell_length_a                    10.481793
_cell_length_b                    8.930436
_cell_length_c                    8.112432
_cell_angle_alpha                 89.999978
_cell_angle_beta                  102.388142
_cell_angle_gamma                 89.999971
_cell_volume                      741.699393321

loop_
_atom_site_label
_atom_site_type_symbol
_atom_type_description
_atom_site_fract_x
_atom_site_fract_y
_atom_site_fract_z
_atom_type_partial_charge
C1    C     C_R   0.500000 0.217993 0.500000 0.938582
C2    C     C_1   0.500000 0.934824 0.500000 -0.175450
C3    C     C_2   0.847268 0.755405 0.414865 0.483285
C4    C     C_2   0.152732 0.755405 0.585136 0.483285
C5    C     C_3   0.977684 0.423145 0.719200 -0.404351
C6    C     C_3   0.911107 0.289111 0.782943 -0.808823
C7    C     C_3   0.022316 0.423146 0.280799 -0.404351
C8    C     C_3   0.088893 0.289110 0.217059 -0.808823
C9    C     C_R   0.500000 0.782026 0.500000 0.886952
C10   C     C_R   0.256157 0.504132 0.432336 0.888025
C11   C     C_R   0.743842 0.504132 0.567663 0.888025
C12   C     C_2   0.114714 0.527323 0.400199 -0.108538
C13   C     C_2   0.885286 0.527323 0.599801 -0.108538
C14   C     C_2   0.068862 0.633836 0.493600 -0.042923
C15   C     C_2   0.931138 0.633836 0.506400 -0.042923
C16   C     C_1   0.500000 0.065205 0.500000 -0.178975
H1    H     H_    0.752790 0.779506 0.441965 0.047514
H2    H     H_    0.013314 0.210126 0.150825 0.263148
H3    H     H_    0.948330 0.375992 0.345532 0.232508
H4    H     H_    0.969585 0.488997 0.170907 0.238605
H5    H     H_    0.247210 0.779506 0.558035 0.047515
H6    H     H_    0.851275 0.326125 0.872960 0.271238
H7    H     H_    0.848937 0.228064 0.675778 0.254216
H8    H     H_    0.986686 0.210127 0.849177 0.263148
H9    H     H_    0.051668 0.375990 0.654466 0.232508
H10   H     H_    0.030417 0.488997 0.829092 0.238605
H11   H     H_    0.148726 0.326123 0.127042 0.271238
H12   H     H_    0.151062 0.228063 0.324225 0.254216
N1    N     N_1   0.500020 0.500000 0.073650 -0.023388
N2    N     N_1   0.499980 0.500000 0.926350 -0.023388
O1    O     O_R   0.499990 0.285340 0.636850 -0.606349
O2    O     O_2   0.115179 0.831988 0.690113 -0.566038
O3    O     O_R   0.500010 0.714660 0.363150 -0.612274
O4    O     O_R   0.500010 0.285340 0.363150 -0.606349
O5    O     O_R   0.499990 0.714660 0.636850 -0.612274
O6    O     O_R   0.317810 0.500000 0.585760 -0.636888
O7    O     O_R   0.682190 0.500000 0.414240 -0.636888
O8    O     O_R   0.317820 0.500000 0.312020 -0.593669
O9    O     O_R   0.682180 0.500000 0.687980 -0.593669
O10   O     O_2   0.884821 0.831989 0.309888 -0.566038
Zn1   Zn    Zn3+2 0.499990 0.500000 0.682780 0.989147
Zn2   Zn    Zn3+2 0.500010 0.500000 0.317220 0.989147

loop_
_geom_bond_atom_site_label_1
_geom_bond_atom_site_label_2
_ccdc_geom_bond_type
C1    O4    A    
C9    O3    A    
N2    Zn1   S    
O8    Zn2   S    
N1    N2    T    
N1    Zn2   S    
C2    C16   T    
C5    C13   S    
O4    Zn2   S    
C10   O8    A    
C6    H8    S    
C7    C8    S    
O9    Zn1   S    
C1    C16   S    
C11   O9    A    
C4    H5    S    
C11   C13   S    
O6    Zn1   S    
C4    O2    D    
C10   C12   S    
C5    H9    S    
C6    H7    S    
C12   C14   D    
C3    O10   D    
C3    H1    S    
C7    H3    S    
C13   C15   D    
C4    C14   S    
C7    C12   S    
O5    Zn1   S    
C9    O5    A    
O3    Zn2   S    
C5    H10   S    
C6    H6    S    
C1    O1    A    
C3    C15   S    
C8    H12   S    
C11   O7    A    
C7    H4    S    
O7    Zn2   S    
C5    C6    S    
C8    H11   S    
C14   C15   S    
C10   O6    A    
O1    Zn1   S    
C2    C9    S    
C8    H2    S    
