data_mof_unit_45587.cif
_audit_creation_date              2012-12-11T16:53:30-0500
_audit_creation_method            fapswitch 2.2
_symmetry_space_group_name_H-M    P1
_symmetry_Int_Tables_number       1
_space_group_crystal_system       triclinic
_cell_length_a                    14.909683
_cell_length_b                    14.780539
_cell_length_c                    16.958022
_cell_angle_alpha                 109.152803
_cell_angle_beta                  106.195797
_cell_angle_gamma                 108.07588
_cell_volume                      3039.48249559

loop_
_atom_site_label
_atom_site_type_symbol
_atom_type_description
_atom_site_fract_x
_atom_site_fract_y
_atom_site_fract_z
_atom_type_partial_charge
C1    C     C_R   0.090413 0.275453 0.049735 -0.257561
C2    C     C_R   0.025329 0.582727 0.746040 0.071406
C3    C     C_R   0.755331 0.195358 0.723762 0.057715
C4    C     C_R   0.289136 0.460460 0.963083 0.065521
C5    C     C_R   0.273711 0.689313 0.252759 -0.138306
C6    C     C_R   0.704854 0.500735 0.918100 -0.155588
C7    C     C_R   0.889787 0.464734 0.187686 -0.136627
C8    C     C_R   0.079699 0.808825 0.047704 -0.125867
C9    C     C_R   0.907286 0.724288 0.970881 -0.112745
C10   C     C_R   0.063500 0.548336 0.265287 -0.128041
C11   C     C_R   0.279356 0.784961 0.175782 -0.143187
C12   C     C_R   0.935011 0.521112 0.747684 -0.140587
C13   C     C_R   0.698260 0.406723 0.996456 -0.145669
C14   C     C_R   0.335698 0.782115 0.254178 0.067477
C15   C     C_R   0.639679 0.439026 0.943097 0.089301
C16   C     C_R   0.970849 0.534255 0.274672 0.070425
C17   C     C_R   0.990373 0.825125 0.030549 0.050381
C18   C     C_R   0.393342 0.460831 0.871541 0.167417
C19   C     C_R   0.349923 0.417908 0.921988 0.034216
C20   C     C_R   0.379709 0.344650 0.943737 -0.205414
C21   C     C_R   0.468333 0.337113 0.936624 -0.196055
C22   C     C_R   0.527892 0.404711 0.909538 0.028312
C23   C     C_R   0.771028 0.200575 0.810079 -0.174505
C24   C     C_R   0.481603 0.454337 0.865431 0.158282
C25   C     C_3   0.525735 0.563901 0.872197 -0.518852
C26   C     C_3   0.429424 0.571140 0.878979 -0.522052
C27   C     C_R   0.960760 0.577864 0.361333 0.129481
C28   C     C_R   0.032024 0.624257 0.679034 0.129879
C29   C     C_R   0.135412 0.696877 0.607432 -0.226048
C30   C     C_R   0.129375 0.681187 0.682631 -0.178381
C31   C     C_R   0.940688 0.595861 0.604389 -0.283765
C32   C     C_R   0.946202 0.606062 0.527060 0.191230
C33   C     C_R   0.044451 0.652606 0.527197 0.190037
C34   C     C_R   0.254840 0.531226 0.945643 -0.145255
C35   C     C_R   0.050674 0.642249 0.444628 -0.280903
C36   C     C_R   0.862540 0.543245 0.363122 -0.166848
C37   C     C_R   0.855333 0.558821 0.446096 -0.227153
C38   C     C_R   0.714271 0.099216 0.636762 0.132238
C39   C     C_R   0.444319 0.855539 0.319775 0.129582
C40   C     C_R   0.587293 0.032365 0.392417 -0.223502
C41   C     C_R   0.495867 0.951346 0.317467 -0.175113
C42   C     C_R   0.492818 0.836229 0.391996 -0.281954
C43   C     C_R   0.580313 0.919055 0.469542 0.190237
C44   C     C_R   0.624835 0.019348 0.471214 0.187446
C45   C     C_R   0.780697 0.298280 0.734477 -0.115090
C46   C     C_R   0.695843 0.108050 0.554503 -0.277047
C47   C     C_R   0.680858 0.997464 0.633349 -0.172820
C48   C     C_R   0.615227 0.907160 0.549406 -0.226172
C49   C     C_R   0.108294 0.065463 0.988394 0.154457
C50   C     C_R   0.011930 0.069422 0.969508 0.060807
C51   C     C_R   0.921816 0.971342 0.907838 -0.190167
C52   C     C_R   0.930132 0.879071 0.858634 -0.221656
C53   C     C_R   0.027909 0.882108 0.870159 0.052053
C54   C     C_R   0.115677 0.973479 0.940542 0.150640
C55   C     C_3   0.213654 0.033768 0.937029 -0.491899
C56   C     C_R   0.258110 0.441601 0.028613 -0.114672
C57   C     C_3   0.205293 0.134418 0.987591 -0.530154
C58   C     C_R   0.107167 0.605642 0.824364 -0.150247
C59   C     C_R   0.918594 0.191647 0.977317 0.520308
C60   C     C_R   0.006607 0.173920 0.000028 -0.042178
H1    H     H_    0.169147 0.293718 0.090658 0.133994
H2    H     H_    0.682268 0.523230 0.863909 0.099627
H3    H     H_    0.807459 0.437681 0.168734 0.093922
H4    H     H_    0.158734 0.869998 0.091157 0.098481
H5    H     H_    0.825893 0.706665 0.942939 0.097498
H6    H     H_    0.142024 0.597118 0.318211 0.095212
H7    H     H_    0.308706 0.836983 0.147355 0.084676
H8    H     H_    0.669490 0.345333 0.016577 0.078299
H9    H     H_    0.344763 0.304666 0.977923 0.133384
H10   H     H_    0.496844 0.290397 0.964671 0.126581
H11   H     H_    0.597417 0.622255 0.936573 0.202673
H12   H     H_    0.856192 0.501906 0.705422 0.083695
H13   H     H_    0.530776 0.562141 0.807567 0.189192
H14   H     H_    0.447145 0.633489 0.947244 0.200887
H15   H     H_    0.379121 0.573772 0.818312 0.191226
H16   H     H_    0.126765 0.674356 0.445207 0.118954
H17   H     H_    0.791282 0.497320 0.300501 0.115226
H18   H     H_    0.211349 0.734536 0.609010 0.127310
H19   H     H_    0.779249 0.524822 0.445422 0.125057
H20   H     H_    0.201365 0.707371 0.740339 0.114133
H21   H     H_    0.864799 0.555455 0.601354 0.114501
H22   H     H_    0.725924 0.185021 0.555141 0.117819
H23   H     H_    0.753188 0.133850 0.824715 0.158510
H24   H     H_    0.698688 0.987366 0.695288 0.123587
H25   H     H_    0.622039 0.108508 0.392314 0.127532
H26   H     H_    0.583614 0.830005 0.548562 0.125631
H27   H     H_    0.462422 0.967428 0.261354 0.114297
H28   H     H_    0.457046 0.761423 0.393487 0.115518
H29   H     H_    0.844564 0.966064 0.890654 0.189122
H30   H     H_    0.860537 0.807077 0.807207 0.132886
H31   H     H_    0.281029 0.027073 0.979069 0.185356
H32   H     H_    0.204294 0.017632 0.865651 0.202920
H33   H     H_    0.269383 0.187020 0.057961 0.184017
H34   H     H_    0.261526 0.561253 0.896721 0.110560
H35   H     H_    0.777089 0.325584 0.682603 0.091113
H36   H     H_    0.277410 0.395012 0.061506 0.085905
H37   H     H_    0.186749 0.664883 0.852622 0.084812
H38   H     H_    0.296812 0.652712 0.295301 0.086231
N1    N     N_R   0.055640 0.348550 0.045600 -0.058450
N2    N     N_R   0.798340 0.505430 0.954400 -0.036771
N3    N     N_R   0.931580 0.439470 0.128350 -0.052191
N4    N     N_R   0.051950 0.704140 0.002340 -0.040456
N5    N     N_R   0.944360 0.651450 0.954400 -0.041967
N6    N     N_R   0.039170 0.492150 0.176290 -0.042204
N7    N     N_R   0.188710 0.696600 0.128350 -0.036845
N8    N     N_R   0.794820 0.447010 0.002340 -0.040049
N9    N     N_R   0.960830 0.507850 0.823710 -0.037826
N10   N     N_R   0.811290 0.303400 0.871650 -0.044306
N11   N     N_R   0.205180 0.552990 0.997660 -0.039702
N12   N     N_R   0.814810 0.361830 0.823710 -0.038880
N13   N     N_R   0.201660 0.494570 0.045600 -0.034134
N14   N     N_R   0.068420 0.560530 0.871650 -0.036833
N15   N     N_R   0.948050 0.295860 0.997660 -0.100713
N16   N     N_R   0.185190 0.638170 0.176290 -0.036205
Ni1   Ni    Ni4+2 0.119330 0.493420 0.109950 0.204835
Ni2   Ni    Ni4+2 0.880670 0.506580 0.890050 0.206318
Ni3   Ni    Ni4+2 0.872590 0.372590 0.000000 0.204294
Ni4   Ni    Ni4+2 0.127410 0.627410 0.000000 0.210035
H39   H     H_    0.188567 0.174983 0.944469 0.205574
O1    O     O_3   0.820053 0.117984 0.955641 -0.716647
C61   C     C_3   0.775478 0.161828 0.012191 0.148935
H40   H     H_    0.691814 0.104546 0.980565 0.137286
H41   H     H_    0.776885 0.237791 0.013653 0.097018
C62   C     C_3   0.826536 0.174661 0.109868 -0.288877
H42   H     H_    0.834732 0.101154 0.105561 0.212535
H43   H     H_    0.905541 0.243055 0.147698 0.193079
C63   C     C_3   0.761880 0.193763 0.163610 -1.010923
H44   H     H_    0.748674 0.264294 0.166134 0.259524
H45   H     H_    0.803645 0.208232 0.235212 0.274580
H46   H     H_    0.685319 0.122650 0.130634 0.262852

loop_
_geom_bond_atom_site_label_1
_geom_bond_atom_site_label_2
_ccdc_geom_bond_type
C59   O1    S    
C5    N16   A    
N9    N14   A    
C3    C23   A    
C19   C20   A    
N2    Ni2   S    
C2    C12   A    
C1    N1    A    
N16   Ni1   S    
C39   C41   A    
C53   C54   A    
C52   C53   A    
C37   H19   S    
C55   H32   S    
C23   H23   S    
C18   C24   A    
C22   C24   A    
C36   C37   A    
C36   H17   S    
N11   N13   A    
N1    Ni1   S    
C11   C14   A    
C49   C54   A    
C29   C33   A    
C49   C57   S    
C18   C19   A    
C61   C62   S    
C55   H31   S    
C33   C35   A    
C14   C39   S    
C46   H22   S    
C4    C19   S    
C52   H30   S    
C15   C22   S    
C29   H18   S    
C47   C48   A    
C3    C38   S    
C44   C46   A    
C18   C26   S    
C11   N7    A    
C25   H11   S    
C5    C14   A    
C43   C48   A    
C56   N13   A    
N4    Ni4   S    
C59   N15   A    
C57   H39   S    
C30   H20   S    
C16   C27   S    
C12   H12   S    
C59   C60   A    
C57   H33   S    
C21   C22   A    
C4    C56   A    
C58   H37   S    
C11   H7    S    
N11   Ni4   S    
C50   C51   A    
C39   C42   A    
C10   H6    S    
C41   H27   S    
C4    C34   A    
C35   H16   S    
C6    C15   A    
C61   H41   S    
C51   C52   A    
N7    N16   A    
C24   C25   S    
C1    C60   A    
C45   N12   A    
C48   H26   S    
C27   C35   A    
C25   C26   S    
C32   C37   A    
C3    C45   A    
C6    N2    A    
C40   H25   S    
C43   C44   A    
C63   H45   S    
C29   C30   A    
N6    Ni1   S    
C31   C32   A    
C9    N5    A    
C26   H15   S    
C38   C47   A    
C47   H24   S    
C20   C21   A    
C7    H3    S    
C61   H40   S    
C8    H4    S    
C62   C63   S    
N15   Ni3   S    
C9    C17   A    
C7    C16   A    
N3    N6    A    
C55   C57   S    
N8    Ni3   S    
C58   N14   A    
N7    Ni4   S    
C42   H28   S    
C42   C43   A    
C63   H44   S    
C45   H35   S    
N12   Ni2   S    
O1    C61   S    
C62   H43   S    
C56   H36   S    
C54   C55   S    
C40   C41   A    
N10   Ni3   S    
C28   C31   A    
C34   H34   S    
C13   N8    A    
C1    H1    S    
N1    N15   A    
C12   N9    A    
N13   Ni1   S    
C2    C58   A    
C27   C36   A    
N2    N8    A    
C8    C17   A    
C31   H21   S    
C21   H10   S    
C50   C60   S    
C32   C33   A    
C6    H2    S    
C13   C15   A    
N5    Ni2   S    
C63   H46   S    
N3    Ni3   S    
C10   C16   A    
C51   H29   S    
N14   Ni4   S    
C10   N6    A    
C23   N10   A    
C28   C30   A    
C26   H14   S    
N10   N12   A    
C25   H13   S    
N4    N5    A    
C20   H9    S    
C9    H5    S    
N9    Ni2   S    
C38   C46   A    
C40   C44   A    
C5    H38   S    
C49   C50   A    
C7    N3    A    
C34   N11   A    
C2    C28   S    
C8    N4    A    
C62   H42   S    
C13   H8    S    
