data_mof_unit_39767.cif
_audit_creation_date              2012-12-11T14:40:16-0500
_audit_creation_method            fapswitch 2.2
_symmetry_space_group_name_H-M    P1
_symmetry_Int_Tables_number       1
_space_group_crystal_system       triclinic
_cell_length_a                    19.733284
_cell_length_b                    10.853814
_cell_length_c                    19.386219
_cell_angle_alpha                 89.520968
_cell_angle_beta                  97.376672
_cell_angle_gamma                 90.162515
_cell_volume                      4117.6516541

loop_
_atom_site_label
_atom_site_type_symbol
_atom_type_description
_atom_site_fract_x
_atom_site_fract_y
_atom_site_fract_z
_atom_type_partial_charge
C1    C     C_R   0.705915 0.003874 0.365741 0.557279
C2    C     C_R   0.293307 0.002456 0.634013 0.538221
C3    C     C_R   0.205915 0.503874 0.365741 0.557276
C4    C     C_R   0.793308 0.502456 0.634013 0.538217
C5    C     C_3   0.796476 0.336859 0.487685 -0.134860
C6    C     C_3   0.267129 0.348544 0.512988 -0.154753
C7    C     C_3   0.296477 0.836861 0.487686 -0.134858
C8    C     C_3   0.767127 0.848541 0.512988 -0.154745
C9    C     C_3   0.751470 0.410778 0.431297 0.058726
C10   C     C_3   0.246903 0.426423 0.572406 0.054586
C11   C     C_3   0.251471 0.910779 0.431298 0.058738
C12   C     C_3   0.746903 0.926423 0.572406 0.054584
C13   C     C_3   0.696708 0.428501 0.480056 -0.163749
C14   C     C_3   0.272323 0.544382 0.539791 -0.177748
C15   C     C_3   0.196709 0.928504 0.480057 -0.163749
C16   C     C_3   0.772325 0.044379 0.539791 -0.177751
C17   C     C_3   0.732375 0.550344 0.505540 -0.147978
C18   C     C_3   0.199264 0.563754 0.499170 -0.151944
C19   C     C_3   0.232376 0.050346 0.505540 -0.147989
C20   C     C_3   0.699267 0.063756 0.499170 -0.151948
C21   C     C_3   0.786663 0.529385 0.455971 0.261278
C22   C     C_3   0.175639 0.445782 0.533771 0.305570
C23   C     C_3   0.286664 0.029387 0.455971 0.261283
C24   C     C_3   0.675640 0.945785 0.533772 0.305567
C25   C     C_3   0.832603 0.457290 0.512390 -0.091158
C26   C     C_3   0.194238 0.365292 0.474539 -0.090125
C27   C     C_3   0.332604 0.957292 0.512390 -0.091157
C28   C     C_3   0.694236 0.865293 0.474539 -0.090121
C29   C     C_3   0.777871 0.475280 0.560850 0.016995
C30   C     C_3   0.219615 0.482023 0.440689 0.008469
C31   C     C_3   0.277872 0.975281 0.560850 0.016992
C32   C     C_3   0.719616 0.982023 0.440688 0.008472
C33   C     C_3   0.553269 0.267557 0.964555 -0.121134
C34   C     C_3   0.504665 0.278906 0.020336 -0.099165
C35   C     C_3   0.053277 0.767546 0.964553 -0.121141
C36   C     C_3   0.004675 0.778916 0.020334 -0.099165
C37   C     C_3   0.593277 0.163526 0.007050 -0.146068
C38   C     C_3   0.456911 0.180714 0.983837 -0.104322
C39   C     C_3   0.093276 0.663506 0.007050 -0.146066
C40   C     C_3   0.956912 0.680735 0.983837 -0.104320
C41   C     C_3   0.544111 0.175227 0.061874 0.047281
C42   C     C_3   0.505516 0.169625 0.928414 0.050210
C43   C     C_3   0.044111 0.675227 0.061874 0.047281
C44   C     C_3   0.005516 0.669625 0.928414 0.050210
C45   C     C_R   0.533859 0.179702 0.337261 0.530405
C46   C     C_R   0.433179 0.184807 0.651629 0.526066
C47   C     C_R   0.033859 0.679702 0.337262 0.530410
C48   C     C_R   0.933179 0.684807 0.651629 0.526065
C49   C     C_3   0.496549 0.076795 0.025718 -0.103494
C50   C     C_3   0.544884 0.065201 0.969218 -0.122394
C51   C     C_3   0.996540 0.576808 0.025719 -0.103495
C52   C     C_3   0.044874 0.565192 0.969220 -0.122388
C53   C     C_1   0.762745 0.423241 0.903809 -0.009028
C54   C     C_1   0.237096 0.425192 0.095966 -0.009012
C55   C     C_1   0.262745 0.923240 0.903808 -0.009030
C56   C     C_1   0.737096 0.925193 0.095966 -0.009008
C57   C     C_1   0.747174 0.407913 0.034425 -0.048294
C58   C     C_1   0.252161 0.408689 0.965141 -0.048486
C59   C     C_1   0.247174 0.907912 0.034425 -0.048293
C60   C     C_1   0.752161 0.908690 0.965141 -0.048487
C61   C     C_1   0.753980 0.413694 0.963573 -0.050051
C62   C     C_1   0.245553 0.415498 0.036116 -0.048615
C63   C     C_1   0.253980 0.913693 0.963573 -0.050053
C64   C     C_1   0.745552 0.915499 0.036116 -0.048612
C65   C     C_1   0.742412 0.395669 0.095020 -0.006786
C66   C     C_1   0.257061 0.395600 0.904642 -0.004896
C67   C     C_1   0.242411 0.895668 0.095020 -0.006783
C68   C     C_1   0.757061 0.895600 0.904642 -0.004899
C69   C     C_R   0.739417 0.363005 0.361721 0.540273
C70   C     C_R   0.259564 0.368881 0.640399 0.523418
C71   C     C_R   0.239417 0.863004 0.361722 0.540272
C72   C     C_R   0.759564 0.868881 0.640399 0.523418
C73   C     C_R   0.721898 0.952393 0.163930 0.530278
C74   C     C_R   0.278021 0.951600 0.835911 0.548451
C75   C     C_R   0.221899 0.452392 0.163930 0.530284
C76   C     C_R   0.778021 0.451601 0.835911 0.548451
C77   C     C_R   0.563916 0.183102 0.136791 0.568012
C78   C     C_R   0.473071 0.178250 0.857113 0.543637
C79   C     C_R   0.063915 0.683102 0.136791 0.568012
C80   C     C_R   0.973071 0.678250 0.857113 0.543638
C81   C     C_R   0.735909 0.361145 0.164586 0.522804
C82   C     C_R   0.264035 0.360803 0.835355 0.534157
C83   C     C_R   0.235909 0.861144 0.164586 0.522803
C84   C     C_R   0.764035 0.860804 0.835355 0.534157
C85   C     C_1   0.447848 0.180647 0.581208 -0.055753
C86   C     C_1   0.502021 0.172115 0.399526 -0.010170
C87   C     C_1   0.947848 0.680647 0.581208 -0.055750
C88   C     C_1   0.002023 0.672115 0.399527 -0.010178
C89   C     C_1   0.480679 0.172681 0.454970 -0.001463
C90   C     C_1   0.461135 0.177305 0.522311 -0.046205
C91   C     C_1   0.980680 0.672681 0.454971 -0.001472
C92   C     C_1   0.961136 0.677305 0.522311 -0.046204
C93   C     C_3   0.741995 0.355375 0.536942 -0.125608
C94   C     C_3   0.292226 0.465790 0.479334 -0.118615
C95   C     C_3   0.241996 0.855377 0.536942 -0.125610
C96   C     C_3   0.792226 0.965785 0.479334 -0.118607
Cr1   Cr    Cr6+3 0.765830 0.160660 0.268180 1.010218
Cr2   Cr    Cr6+3 0.234170 0.160660 0.731820 1.028044
Cr3   Cr    Cr6+3 0.265830 0.660660 0.268180 1.010225
Cr4   Cr    Cr6+3 0.734170 0.660660 0.731820 1.028045
Cr5   Cr    Cr6+3 0.612110 0.009150 0.248770 1.012455
Cr6   Cr    Cr6+3 0.387890 0.009150 0.751230 1.010964
Cr7   Cr    Cr6+3 0.112110 0.509150 0.248770 1.012456
Cr8   Cr    Cr6+3 0.887890 0.509150 0.751230 1.010962
Cr9   Cr    Cr6+3 0.615930 0.324050 0.248450 1.001019
Cr10  Cr    Cr6+3 0.384070 0.324050 0.751550 1.014979
Cr11  Cr    Cr6+3 0.115930 0.824050 0.248450 1.001016
Cr12  Cr    Cr6+3 0.884070 0.824050 0.751550 1.014978
H1    H     H_    0.823719 0.250446 0.478597 0.140031
H2    H     H_    0.298973 0.264563 0.520972 0.136368
H3    H     H_    0.323721 0.750448 0.478599 0.140029
H4    H     H_    0.798970 0.764559 0.520972 0.136372
H5    H     H_    0.723842 0.287792 0.573749 0.126505
H6    H     H_    0.340527 0.473599 0.455874 0.146297
H7    H     H_    0.223843 0.787796 0.573751 0.126507
H8    H     H_    0.840527 0.973591 0.455872 0.146300
H9    H     H_    0.640945 0.415417 0.465131 0.131586
H10   H     H_    0.305218 0.612750 0.570380 0.125541
H11   H     H_    0.140947 0.915420 0.465132 0.131587
H12   H     H_    0.805222 0.112746 0.570379 0.125543
H13   H     H_    0.203038 0.131817 0.517775 0.128888
H14   H     H_    0.669921 0.150113 0.488107 0.089084
H15   H     H_    0.703037 0.631817 0.517774 0.128887
H16   H     H_    0.169916 0.650108 0.488106 0.089083
H17   H     H_    0.888548 0.464887 0.526959 0.129752
H18   H     H_    0.160436 0.294381 0.447183 0.123174
H19   H     H_    0.388549 0.964889 0.526961 0.129752
H20   H     H_    0.660434 0.794383 0.447183 0.123178
H21   H     H_    0.649729 0.156797 0.018628 0.115644
H22   H     H_    0.400356 0.187599 0.973139 0.120554
H23   H     H_    0.149728 0.656761 0.018629 0.115645
H24   H     H_    0.900357 0.687636 0.973139 0.120555
H25   H     H_    0.576530 0.344976 0.938013 0.128703
H26   H     H_    0.487654 0.366753 0.041447 0.141029
H27   H     H_    0.076546 0.844955 0.938010 0.128699
H28   H     H_    0.987672 0.866770 0.041443 0.141028
H29   H     H_    0.473124 0.999199 0.051948 0.134734
H30   H     H_    0.561208 0.978356 0.946460 0.125839
H31   H     H_    0.973107 0.499220 0.051950 0.134732
H32   H     H_    0.061190 0.478339 0.946464 0.125841
O1    O     O_R   0.783230 0.287800 0.346510 -0.519963
O2    O     O_R   0.216770 0.287800 0.653490 -0.491798
O3    O     O_R   0.283230 0.787800 0.346510 -0.519960
O4    O     O_R   0.716770 0.787800 0.653490 -0.491799
O5    O     O_R   0.554500 0.081650 0.170370 -0.498920
O6    O     O_R   0.445500 0.081650 0.829630 -0.496525
O7    O     O_R   0.054500 0.581650 0.170370 -0.498918
O8    O     O_R   0.945500 0.581650 0.829630 -0.496526
O9    O     O_R   0.545430 0.285140 0.163100 -0.515547
O10   O     O_R   0.454570 0.285140 0.836900 -0.508626
O11   O     O_R   0.045430 0.785140 0.163100 -0.515547
O12   O     O_R   0.954570 0.785140 0.836900 -0.508625
O13   O     O_R   0.677850 0.374730 0.185500 -0.515471
O14   O     O_R   0.322150 0.374730 0.814500 -0.491513
O15   O     O_R   0.177850 0.874730 0.185500 -0.515476
O16   O     O_R   0.822150 0.874730 0.814500 -0.491514
O17   O     O_3   0.664630 0.164620 0.255130 -0.290296
O18   O     O_3   0.335370 0.164620 0.744870 -0.290435
O19   O     O_3   0.164630 0.664620 0.255130 -0.290298
O20   O     O_3   0.835370 0.664620 0.744870 -0.290434
O21   O     O_R   0.760130 0.037060 0.338610 -0.510011
O22   O     O_R   0.239870 0.037060 0.661390 -0.493127
O23   O     O_R   0.260130 0.537060 0.338610 -0.510007
O24   O     O_R   0.739870 0.537060 0.661390 -0.493125
O25   O     O_R   0.666620 0.921370 0.332440 -0.538438
O26   O     O_R   0.333380 0.921370 0.667560 -0.515554
O27   O     O_R   0.166620 0.421370 0.332440 -0.538437
O28   O     O_R   0.833380 0.421370 0.667560 -0.515553
O29   O     O_R   0.557170 0.082420 0.312350 -0.497743
O30   O     O_R   0.442830 0.082420 0.687650 -0.529313
O31   O     O_R   0.057170 0.582420 0.312350 -0.497739
O32   O     O_R   0.942830 0.582420 0.687650 -0.529316
O33   O     O_R   0.548310 0.285980 0.316250 -0.509669
O34   O     O_R   0.451690 0.285980 0.683750 -0.502999
O35   O     O_R   0.048310 0.785980 0.316250 -0.509673
O36   O     O_R   0.951690 0.785980 0.683750 -0.502999
O37   O     O_R   0.680520 0.375500 0.327470 -0.517879
O38   O     O_R   0.319480 0.375500 0.672530 -0.523153
O39   O     O_R   0.180520 0.875500 0.327470 -0.517880
O40   O     O_R   0.819480 0.875500 0.672530 -0.523154
O41   O     O_R   0.780350 0.286970 0.193350 -0.503289
O42   O     O_R   0.219650 0.286970 0.806650 -0.514079
O43   O     O_R   0.280350 0.786970 0.193350 -0.503287
O44   O     O_R   0.719650 0.786970 0.806650 -0.514078
O45   O     O_R   0.757460 0.036290 0.196640 -0.494303
O46   O     O_R   0.242540 0.036290 0.803360 -0.488467
O47   O     O_R   0.257460 0.536290 0.196640 -0.494296
O48   O     O_R   0.742540 0.536290 0.803360 -0.488467
O49   O     O_R   0.663740 0.920540 0.179290 -0.515192
O50   O     O_R   0.336260 0.920540 0.820710 -0.500540
O51   O     O_R   0.163740 0.420540 0.179290 -0.515196
O52   O     O_R   0.836260 0.420540 0.820710 -0.500541
O53   O     O_3   0.814159 0.615625 0.412066 -0.575913
C97   C     C_3   0.762459 0.666645 0.362809 0.015785
H33   H     H_    0.762101 0.767118 0.370894 0.182908
H34   H     H_    0.709804 0.632800 0.367569 0.110204
C98   C     C_3   0.777753 0.642929 0.288552 -0.238104
H35   H     H_    0.788676 0.543794 0.281996 0.181374
H36   H     H_    0.731984 0.667472 0.251428 0.134671
C99   C     C_3   0.838164 0.719210 0.270419 -0.392314
H37   H     H_    0.827939 0.819111 0.275400 0.165833
H38   H     H_    0.846702 0.700648 0.215957 0.134181
H39   H     H_    0.885000 0.694144 0.305394 0.187891
O54   O     O_3   0.116465 0.425764 0.566527 -0.552900
C100  C     C_3   0.097846 0.532483 0.601179 0.012266
H40   H     H_    0.046457 0.513753 0.616067 0.184232
H41   H     H_    0.093189 0.614282 0.566195 0.121657
C101  C     C_3   0.145612 0.560872 0.668331 -0.281837
H42   H     H_    0.151840 0.477270 0.701926 0.196807
H43   H     H_    0.196262 0.591009 0.655502 0.144032
C102  C     C_3   0.117778 0.664503 0.709284 -0.456529
H44   H     H_    0.106575 0.747328 0.675733 0.169509
H45   H     H_    0.156318 0.689606 0.753867 0.144928
H46   H     H_    0.070722 0.633963 0.730178 0.188503
O55   O     O_3   0.314162 0.115621 0.412064 -0.575909
C103  C     C_3   0.262461 0.166667 0.362818 0.015793
H47   H     H_    0.262126 0.267143 0.370901 0.182906
H48   H     H_    0.209802 0.132856 0.367594 0.110196
C104  C     C_3   0.277729 0.142932 0.288554 -0.238097
H49   H     H_    0.288616 0.043786 0.281991 0.181362
H50   H     H_    0.231960 0.167523 0.251441 0.134683
C105  C     C_3   0.338159 0.219146 0.270407 -0.392289
H51   H     H_    0.327975 0.319059 0.275405 0.165815
H52   H     H_    0.346672 0.200584 0.215938 0.134168
H53   H     H_    0.384997 0.194013 0.305362 0.187890
O56   O     O_3   0.616465 0.925771 0.566527 -0.552901
C106  C     C_3   0.597848 0.032491 0.601179 0.012265
H54   H     H_    0.546459 0.013763 0.616068 0.184233
H55   H     H_    0.593192 0.114290 0.566195 0.121656
C107  C     C_3   0.645615 0.060879 0.668331 -0.281837
H56   H     H_    0.651843 0.977278 0.701925 0.196806
H57   H     H_    0.696265 0.091017 0.655501 0.144032
C108  C     C_3   0.617781 0.164511 0.709285 -0.456528
H58   H     H_    0.606578 0.247335 0.675733 0.169509
H59   H     H_    0.656321 0.189614 0.753867 0.144929
H60   H     H_    0.570726 0.133969 0.730179 0.188500

loop_
_geom_bond_atom_site_label_1
_geom_bond_atom_site_label_2
_ccdc_geom_bond_type
C58   C62   S    
C97   H34   S    
C67   C83   S    
Cr10  O10   S    
C49   H29   S    
C98   C99   S    
C17   C29   S    
Cr11  O15   S    
C14   C18   S    
C7    C27   S    
C35   C39   S    
C35   C36   S    
C8    C96   S    
C103  C104  S    
C81   O41   A    
C44   C80   S    
C19   C31   S    
Cr6   O18   S    
Cr3   O47   S    
C94   H6    S    
C3    O27   A    
C38   C49   S    
C23   O55   S    
C100  H40   S    
C10   C22   S    
C15   C19   S    
C28   C32   S    
Cr5   O5    S    
Cr11  O35   S    
C37   C41   S    
C33   C42   S    
C38   H22   S    
Cr3   O3    S    
C16   C20   S    
Cr4   O48   S    
C9    C69   S    
C69   O37   A    
C38   C42   S    
Cr3   O19   S    
C16   H12   S    
C15   C95   S    
C73   O49   A    
C11   C71   S    
C13   H9    S    
C100  C101  S    
C97   C98   S    
Cr8   O28   S    
C4    O24   A    
Cr1   O45   S    
C43   C79   S    
Cr2   O46   S    
Cr8   O52   S    
C81   O13   A    
Cr1   O41   S    
Cr12  O40   S    
C107  C108  S    
C80   O12   A    
C12   C24   S    
C26   H18   S    
C71   O39   A    
C98   H36   S    
C106  H54   S    
C25   H17   S    
C9    C13   S    
C59   C67   T    
Cr12  O12   S    
C55   C74   S    
C11   C15   S    
C17   H15   S    
Cr9   O17   S    
Cr2   O18   S    
C95   H7    S    
C101  H42   S    
Cr10  O14   S    
C55   C63   T    
C46   O34   A    
Cr5   O29   S    
C18   C30   S    
C23   C27   S    
C108  H58   S    
C2    O26   A    
C40   C44   S    
C20   H14   S    
C4    C29   S    
C76   O48   A    
C3    O23   A    
Cr8   O32   S    
C46   C85   S    
Cr11  O11   S    
C44   C52   S    
C39   C52   S    
C40   H24   S    
C19   H13   S    
Cr5   O17   S    
C99   H39   S    
Cr6   O26   S    
C48   O32   A    
C87   C92   T    
Cr2   O2    S    
Cr7   O31   S    
C6    H2    S    
C2    O22   A    
C105  H51   S    
C34   C41   S    
C27   H19   S    
Cr8   O20   S    
C24   O56   S    
C75   O51   A    
C36   H28   S    
C15   H11   S    
C41   C49   S    
C73   O45   A    
Cr2   O22   S    
C58   C66   T    
C7    C11   S    
C74   O46   A    
C100  H41   S    
C25   C29   S    
C70   O2    A    
C16   C96   S    
C27   C31   S    
C51   C52   S    
C68   C84   S    
C12   C16   S    
C84   O44   A    
Cr10  O38   S    
C103  H47   S    
C10   C14   S    
C77   O9    A    
C104  H49   S    
C29   C93   S    
C7    H3    S    
C99   H37   S    
C39   C43   S    
C54   C62   T    
C105  H53   S    
C6    C94   S    
Cr9   O13   S    
Cr10  O18   S    
C1    C32   S    
C17   C21   S    
C46   O30   A    
C82   O14   A    
C13   C93   S    
C2    C31   S    
Cr1   O17   S    
Cr2   O42   S    
C3    C30   S    
C19   C23   S    
O55   C103  S    
C5    C9    S    
C76   O52   A    
C45   O33   A    
C104  H50   S    
C107  H56   S    
Cr4   O20   S    
C47   O31   A    
C102  H44   S    
Cr12  O16   S    
C88   C91   T    
C36   C40   S    
C8    C12   S    
C102  H45   S    
C57   C65   T    
Cr11  O19   S    
C102  H46   S    
C74   O50   A    
C56   C64   T    
C33   C34   S    
Cr10  O34   S    
C48   C87   S    
C83   O43   A    
Cr4   O24   S    
C93   H5    S    
Cr7   O27   S    
C107  H57   S    
C35   C44   S    
C108  H59   S    
Cr1   O1    S    
C42   C50   S    
C79   O7    A    
C10   C70   S    
C14   C94   S    
Cr9   O37   S    
C106  H55   S    
O56   C106  S    
Cr1   O21   S    
Cr4   O4    S    
C8    C28   S    
C49   C50   S    
C5    C25   S    
C59   C63   S    
C53   C76   S    
Cr7   O51   S    
C72   O40   A    
C35   H27   S    
C9    C21   S    
C77   O5    A    
C91   C92   S    
Cr9   O9    S    
C78   O10   A    
C42   C78   S    
C14   H10   S    
C20   C32   S    
C79   O11   A    
C72   O4    A    
C21   C25   S    
C105  H52   S    
C56   C73   S    
Cr11  O39   S    
C1    O25   A    
C34   C38   S    
Cr3   O43   S    
C53   C61   T    
C33   H25   S    
C75   O47   A    
C24   C28   S    
C103  H48   S    
C86   C89   T    
C45   O29   A    
C6    C10   S    
C5    C93   S    
C85   C90   T    
C50   H30   S    
C57   C61   S    
Cr12  O20   S    
C22   O54   S    
C32   C96   S    
C40   C51   S    
C7    C95   S    
C82   O42   A    
Cr5   O49   S    
C13   C17   S    
C60   C64   S    
C47   C88   S    
C18   C22   S    
C45   C86   S    
Cr8   O8    S    
C30   C94   S    
C101  H43   S    
C70   O38   A    
Cr5   O25   S    
C104  C105  S    
C41   C77   S    
C37   C50   S    
C84   O16   A    
Cr7   O19   S    
C6    C26   S    
C71   O3    A    
C39   H23   S    
Cr6   O30   S    
C43   C51   S    
C101  C102  S    
C31   C95   S    
Cr12  O36   S    
C11   C23   S    
Cr6   O50   S    
C8    H4    S    
C37   H21   S    
C97   H33   S    
C12   C72   S    
C98   H35   S    
Cr4   O44   S    
C108  H60   S    
C33   C37   S    
Cr3   O23   S    
C78   O6    A    
C47   O35   A    
C1    O21   A    
C54   C75   S    
C52   H32   S    
C4    O28   A    
C80   O8    A    
C106  C107  S    
C83   O15   A    
O54   C100  S    
C60   C68   T    
C99   H38   S    
O53   C97   S    
C22   C26   S    
C66   C82   S    
C34   H26   S    
C65   C81   S    
C96   H8    S    
C36   C43   S    
Cr9   O33   S    
C5    H1    S    
C21   O53   S    
C89   C90   S    
C69   O1    A    
C20   C24   S    
Cr6   O6    S    
C28   H20   S    
C18   H16   S    
Cr7   O7    S    
C48   O36   A    
C26   C30   S    
C51   H31   S    
