data_mof_unit_22462.cif
_audit_creation_date              2012-12-10T17:36:48-0500
_audit_creation_method            fapswitch 2.2
_symmetry_space_group_name_H-M    P1
_symmetry_Int_Tables_number       1
_space_group_crystal_system       triclinic
_cell_length_a                    10.583367
_cell_length_b                    12.328309
_cell_length_c                    13.051514
_cell_angle_alpha                 116.189697
_cell_angle_beta                  77.427829
_cell_angle_gamma                 100.969826
_cell_volume                      1482.77773955

loop_
_atom_site_label
_atom_site_type_symbol
_atom_type_description
_atom_site_fract_x
_atom_site_fract_y
_atom_site_fract_z
_atom_type_partial_charge
C1    C     C_R   0.514672 0.855190 0.285524 0.851581
C2    C     C_3   0.012570 0.972021 0.585010 -0.168454
C3    C     C_3   0.939898 0.887607 0.482232 -0.150851
C4    C     C_3   0.877274 0.997297 0.498081 0.029554
C5    C     C_R   0.338380 0.280300 0.031815 -0.300778
C6    C     C_R   0.453820 0.227520 0.837142 -0.184659
C7    C     C_R   0.614665 0.813375 0.080825 0.291056
C8    C     C_R   0.660236 0.728049 0.970924 0.335565
C9    C     C_R   0.633127 0.603697 0.945259 0.242672
C10   C     C_R   0.529667 0.562391 0.014490 -0.079034
C11   C     C_R   0.476738 0.650077 0.122723 -0.040024
C12   C     C_R   0.740526 0.998450 0.498481 0.779711
C13   C     C_R   0.477481 0.437969 0.981499 0.127476
C14   C     C_R   0.385846 0.402631 0.061113 0.093707
C15   C     C_R   0.333750 0.490520 0.165385 -0.210789
C16   C     C_R   0.372409 0.612387 0.192120 -0.117025
C17   C     C_R   0.504866 0.349196 0.868895 -0.304246
C18   C     C_R   0.369937 0.192385 0.919635 0.451383
C19   C     C_R   0.530911 0.773432 0.160736 -0.287809
C20   C     C_R   0.712465 0.349655 0.331780 -0.315479
C21   C     C_R   0.320555 0.757147 0.642833 0.090878
C22   C     C_R   0.281139 0.660200 0.674228 -0.271486
C23   C     C_R   0.478341 0.144803 0.714137 0.815413
C24   C     C_R   0.349391 0.558223 0.621223 -0.206321
C25   C     C_R   0.458242 0.551667 0.535129 -0.013353
C26   C     C_R   0.495325 0.653863 0.506243 0.280232
C27   C     C_R   0.531031 0.447785 0.476235 -0.037584
C28   C     C_R   0.639220 0.449017 0.390738 0.186045
C29   C     C_R   0.673788 0.549177 0.364114 -0.291013
C30   C     C_R   0.603377 0.648913 0.420205 -0.197738
C31   C     C_R   0.501540 0.341684 0.497600 0.022749
C32   C     C_R   0.678654 0.248728 0.357104 0.063457
C33   C     C_R   0.259499 0.001112 0.500923 0.755404
C34   C     C_3   0.987472 0.026502 0.413149 -0.146374
C35   C     C_3   0.052505 0.916892 0.397493 -0.176425
C36   C     C_3   0.122783 0.001362 0.500289 0.035573
C37   C     C_3   0.060084 0.111024 0.516088 -0.143617
C38   C     C_3   0.947589 0.081546 0.600824 -0.184658
Cu1   Cu    Cu3+1 0.529830 0.098270 0.475420 0.937565
Cu2   Cu    Cu3+1 0.470170 0.901730 0.524580 0.922296
H1    H     H_    0.099014 0.849741 0.314465 0.118636
H2    H     H_    0.557296 0.374478 0.801207 0.236459
H3    H     H_    0.318353 0.676683 0.267934 0.156553
H4    H     H_    0.735218 0.172000 0.312262 0.148466
H5    H     H_    0.756274 0.550446 0.298523 0.146338
H6    H     H_    0.795532 0.350174 0.266539 0.133493
H7    H     H_    0.421084 0.332859 0.561035 0.118755
H8    H     H_    0.266382 0.835132 0.683232 0.147752
H9    H     H_    0.973774 0.048474 0.342689 0.134436
H10   H     H_    0.314498 0.485888 0.648861 0.137416
H11   H     H_    0.197059 0.663804 0.739546 0.143030
H12   H     H_    0.637271 0.720078 0.392498 0.206293
H13   H     H_    0.112080 0.202484 0.530158 0.132062
H14   H     H_    0.900565 0.146926 0.684524 0.133667
H15   H     H_    0.026155 0.949758 0.655104 0.123317
H16   H     H_    0.888001 0.796058 0.467663 0.136496
H17   H     H_    0.257425 0.465320 0.223799 0.134978
H18   H     H_    0.270428 0.253442 0.093909 0.153116
N1    N     N_R   0.575030 0.246270 0.438190 -0.180227
N2    N     N_R   0.425760 0.754330 0.561190 -0.208308
O1    O     O_R   0.537510 0.972500 0.318130 -0.544986
O2    O     O_R   0.487140 0.806530 0.359650 -0.605869
O3    O     O_R   0.708330 0.082950 0.479220 -0.578405
O4    O     O_R   0.657960 0.916980 0.520740 -0.611329
O5    O     O_R   0.512860 0.193470 0.640350 -0.593299
O6    O     O_R   0.462490 0.027500 0.681870 -0.545127
O7    O     O_R   0.342040 0.083020 0.479260 -0.592819
O8    O     O_R   0.291670 0.917050 0.520780 -0.600797
O9    O     O_3   0.670017 0.932858 0.115389 -0.582357
C39   C     C_3   0.607504 0.996565 0.076583 0.129511
H19   H     H_    0.543134 0.056969 0.151515 0.159500
H20   H     H_    0.545577 0.937082 0.008795 0.114736
C40   C     C_3   0.711194 0.074593 0.029132 -0.347015
H21   H     H_    0.771156 0.136885 0.096836 0.208857
H22   H     H_    0.776463 0.014888 0.954861 0.235304
C41   C     C_3   0.650488 0.149288 0.989287 -0.916913
H23   H     H_    0.594356 0.087970 0.918308 0.277322
H24   H     H_    0.728398 0.205560 0.956599 0.243806
H25   H     H_    0.585165 0.210587 0.062339 0.269075
O10   O     O_3   0.713771 0.526527 0.854535 -0.616443
C42   C     C_3   0.812245 0.504709 0.898560 0.094231
H26   H     H_    0.769629 0.448558 0.947720 0.141591
H27   H     H_    0.863031 0.591607 0.956001 0.147633
C43   C     C_3   0.912448 0.435801 0.797277 -0.318599
H28   H     H_    0.862423 0.351863 0.736145 0.221707
H29   H     H_    0.958914 0.493467 0.750649 0.222505
C44   C     C_3   0.017715 0.401690 0.837864 -0.976241
H30   H     H_    0.069904 0.484699 0.898100 0.262419
H31   H     H_    0.089195 0.352757 0.762239 0.254182
H32   H     H_    0.973814 0.341246 0.882047 0.251836
O11   O     O_3   0.750229 0.766951 0.896409 -0.561440
C45   C     C_3   0.694697 0.739658 0.797135 0.107594
H33   H     H_    0.611719 0.793962 0.820839 0.087908
H34   H     H_    0.658176 0.641702 0.754290 0.170442
C46   C     C_3   0.796109 0.772152 0.709319 -0.342118
H35   H     H_    0.748921 0.757228 0.635290 0.184291
H36   H     H_    0.833119 0.869850 0.749729 0.201632
C47   C     C_3   0.909604 0.694683 0.664501 -0.775317
H37   H     H_    0.873759 0.596667 0.623156 0.248960
H38   H     H_    0.961188 0.710808 0.736319 0.268257
H39   H     H_    0.979859 0.719027 0.599302 0.220116
O12   O     O_3   0.314286 0.073764 0.890984 -0.574292
C48   C     C_3   0.184557 0.063706 0.872815 0.034444
H40   H     H_    0.184039 0.032719 0.779156 0.145063
H41   H     H_    0.137972 0.150269 0.919495 0.127517
C49   C     C_3   0.100596 0.970750 0.912962 -0.788488
H42   H     H_    0.092467 0.005291 0.008180 0.245638
H43   H     H_    0.001702 0.954550 0.889866 0.218170
H44   H     H_    0.143922 0.883368 0.871635 0.240275

loop_
_geom_bond_atom_site_label_1
_geom_bond_atom_site_label_2
_ccdc_geom_bond_type
C44   H30   S    
Cu2   N2    S    
C34   C37   S    
C15   H17   S    
C40   H21   S    
C35   C36   S    
C41   H25   S    
C1    O2    A    
C42   H26   S    
C46   C47   S    
C7    C8    A    
C11   C19   A    
C29   C30   A    
C5    H18   S    
C23   O6    A    
C36   C37   S    
C41   H24   S    
C2    H15   S    
C18   O12   S    
C12   O4    A    
C49   H42   S    
C15   C16   A    
C33   C36   S    
Cu2   O2    S    
C34   C35   S    
C11   C16   A    
C31   N1    A    
C17   H2    S    
C48   H40   S    
C43   H28   S    
C46   H35   S    
C8    C9    A    
C43   C44   S    
C39   H19   S    
C4    C12   S    
C9    C10   A    
C21   H8    S    
C37   H13   S    
C31   H7    S    
C21   C22   A    
C40   H22   S    
O12   C48   S    
Cu1   O1    S    
C42   H27   S    
C24   H10   S    
C6    C18   A    
C4    C34   S    
C1    C19   S    
C27   C31   A    
C41   H23   S    
C21   N2    A    
Cu1   Cu2   S    
C12   O3    A    
C5    C18   A    
C20   C28   A    
C25   C26   A    
C45   C46   S    
C29   H5    S    
C9    O10   S    
C37   C38   S    
C3    H16   S    
C2    C38   S    
C38   H14   S    
C3    C35   S    
Cu1   N1    S    
C39   C40   S    
C45   H34   S    
C32   H4    S    
C48   H41   S    
C8    O11   S    
C24   C25   A    
C16   H3    S    
C5    C14   A    
C4    C38   S    
C26   C30   A    
C7    C19   A    
C44   H31   S    
C40   C41   S    
C22   C24   A    
C3    C4    S    
O11   C45   S    
C42   C43   S    
C33   O7    A    
C20   C32   A    
C2    C36   S    
C6    C17   A    
C30   H12   S    
C28   C29   A    
C34   H9    S    
Cu1   O7    S    
C43   H29   S    
O10   C42   S    
C10   C13   A    
C1    O1    A    
C7    O9    S    
C39   H20   S    
C46   H36   S    
C25   C27   A    
C47   H39   S    
Cu1   O3    S    
Cu1   O5    S    
C47   H38   S    
Cu2   O4    S    
C13   C17   A    
C23   O5    A    
C2    C3    S    
C49   H43   S    
C6    C23   S    
C45   H33   S    
C48   C49   S    
O9    C39   S    
C35   H1    S    
C10   C11   A    
C47   H37   S    
Cu2   O8    S    
C44   H32   S    
C27   C28   A    
C14   C15   A    
Cu2   O6    S    
C32   N1    A    
C13   C14   A    
C26   N2    A    
C20   H6    S    
C33   O8    A    
C22   H11   S    
C49   H44   S    
