data_mof_unit_59129.cif
_audit_creation_date              2012-10-26T17:11:06-0400
_audit_creation_method            fapswitch 2.2
_symmetry_space_group_name_H-M    P1
_symmetry_Int_Tables_number       1
_space_group_crystal_system       triclinic
_cell_length_a                    28.046606
_cell_length_b                    18.741932
_cell_length_c                    16.881543
_cell_angle_alpha                 89.999954
_cell_angle_beta                  62.518397
_cell_angle_gamma                 89.999936
_cell_volume                      7872.42075461

loop_
_atom_site_label
_atom_site_type_symbol
_atom_type_description
_atom_site_fract_x
_atom_site_fract_y
_atom_site_fract_z
_atom_type_partial_charge
C1    C     C_R   0.295708 0.730111 0.328996 0.559256
C2    C     C_R   0.461596 0.128839 0.462576 -0.133541
C3    C     C_R   0.925928 0.096158 0.067098 0.557463
C4    C     C_R   0.425925 0.403847 0.067104 0.557593
C5    C     C_R   0.574059 0.596172 0.932913 0.558127
C6    C     C_R   0.574077 0.403849 0.932895 0.557596
C7    C     C_R   0.425940 0.596172 0.067088 0.558126
C8    C     C_R   0.047875 0.497700 0.507721 0.037612
C9    C     C_R   0.952120 0.497700 0.492295 0.037612
C10   C     C_R   0.547878 0.002285 0.507712 0.037487
C11   C     C_R   0.452118 0.002286 0.492300 0.037490
C12   C     C_R   0.025876 0.562137 0.496789 0.011757
C13   C     C_R   0.442573 0.876309 0.525526 -0.139347
C14   C     C_R   0.978248 0.432794 0.489646 0.013150
C15   C     C_R   0.974116 0.562136 0.503232 0.011753
C16   C     C_R   0.021747 0.432794 0.510368 0.013149
C17   C     C_R   0.521748 0.067190 0.510365 0.012614
C18   C     C_R   0.474116 0.937848 0.503234 0.012460
C19   C     C_R   0.478248 0.067190 0.489645 0.012619
C20   C     C_R   0.525879 0.937847 0.496781 0.012460
C21   C     C_R   0.115069 0.434683 0.535966 0.010868
C22   C     C_R   0.874361 0.562536 0.499102 0.005748
C23   C     C_R   0.884929 0.434683 0.464041 0.010868
C24   C     C_R   0.538401 0.128840 0.537431 -0.133555
C25   C     C_R   0.125635 0.562537 0.500909 0.005756
C26   C     C_R   0.625642 0.937454 0.500888 0.006301
C27   C     C_R   0.384926 0.065307 0.464053 0.010421
C28   C     C_R   0.374356 0.937455 0.499119 0.006299
C29   C     C_R   0.615072 0.065308 0.535952 0.010413
C30   C     C_R   0.166201 0.434721 0.535257 -0.021052
C31   C     C_R   0.828143 0.563887 0.484297 -0.024291
C32   C     C_R   0.833798 0.434721 0.464745 -0.021040
C33   C     C_R   0.171855 0.563888 0.515707 -0.024293
C34   C     C_R   0.671860 0.936107 0.515692 -0.023814
C35   C     C_R   0.038402 0.371145 0.537433 -0.135172
C36   C     C_R   0.333794 0.065274 0.464761 -0.021656
C37   C     C_R   0.328139 0.936108 0.484311 -0.023809
C38   C     C_R   0.666205 0.065274 0.535241 -0.021661
C39   C     C_R   0.191896 0.499686 0.530328 -0.154128
C40   C     C_R   0.808104 0.499686 0.469673 -0.154114
C41   C     C_R   0.691901 0.000309 0.530311 -0.153981
C42   C     C_R   0.308099 0.000309 0.469689 -0.153970
C43   C     C_R   0.096148 0.498375 0.515531 0.034673
C44   C     C_R   0.903848 0.498375 0.484481 0.034672
C45   C     C_R   0.596152 0.001614 0.515515 0.034588
C46   C     C_R   0.942577 0.623676 0.525514 -0.138328
C47   C     C_R   0.403845 0.001614 0.484493 0.034591
C48   C     C_R   0.607933 0.877755 0.470128 -0.108023
C49   C     C_R   0.417909 0.126649 0.444636 -0.103862
C50   C     C_R   0.392063 0.877756 0.529883 -0.108013
C51   C     C_R   0.582090 0.126650 0.555369 -0.103881
C52   C     C_R   0.082089 0.373338 0.555376 -0.104765
C53   C     C_R   0.892070 0.622233 0.529862 -0.107670
C54   C     C_R   0.917909 0.373338 0.444631 -0.104759
C55   C     C_R   0.107923 0.622235 0.470155 -0.107686
C56   C     C_2   0.249334 0.703020 0.785022 0.589695
C57   C     C_R   0.961595 0.371145 0.462578 -0.135170
C58   C     C_2   0.751391 0.298106 0.214970 0.591535
C59   C     C_2   0.750696 0.702973 0.214963 0.589674
C60   C     C_2   0.248693 0.297978 0.784981 0.591556
C61   C     C_2   0.748591 0.201890 0.785486 0.592203
C62   C     C_2   0.250878 0.797338 0.215295 0.588783
C63   C     C_2   0.251426 0.201864 0.214511 0.592179
C64   C     C_2   0.749178 0.797252 0.784674 0.588803
C65   C     C_R   0.057415 0.623677 0.474508 -0.138339
C66   C     C_R   0.218505 0.767260 0.957799 0.052283
C67   C     C_R   0.781605 0.232914 0.042073 0.046256
C68   C     C_R   0.781512 0.767227 0.042190 0.052306
C69   C     C_R   0.704253 0.269818 0.671020 0.554825
C70   C     C_R   0.218412 0.232873 0.957921 0.046211
C71   C     C_R   0.718449 0.267061 0.957790 0.052398
C72   C     C_R   0.281645 0.732905 0.042005 0.046420
C73   C     C_R   0.281573 0.267021 0.042194 0.052403
C74   C     C_R   0.718371 0.732869 0.957987 0.046390
C75   C     C_R   0.219177 0.697251 0.986747 -0.070862
C76   C     C_R   0.781114 0.302808 0.012643 -0.068686
C77   C     C_R   0.780833 0.697215 0.013256 -0.070820
C78   C     C_R   0.218935 0.302779 0.987290 -0.068767
C79   C     C_R   0.718952 0.197166 0.987207 -0.071325
C80   C     C_R   0.704295 0.730104 0.671003 0.559219
C81   C     C_R   0.280990 0.802913 0.013033 -0.068093
C82   C     C_R   0.281041 0.197114 0.012832 -0.071283
C83   C     C_R   0.719035 0.802881 0.986939 -0.068159
C84   C     C_R   0.250722 0.680143 0.028329 -0.081936
C85   C     C_R   0.749561 0.319814 0.971023 -0.071437
C86   C     C_R   0.749287 0.680105 0.971677 -0.081903
C87   C     C_R   0.250490 0.319784 0.028905 -0.071508
C88   C     C_R   0.750507 0.180161 0.028816 -0.080762
C89   C     C_R   0.249444 0.820023 0.971444 -0.072556
C90   C     C_R   0.249482 0.180108 0.971229 -0.080736
C91   C     C_R   0.295748 0.269815 0.328980 0.554828
C92   C     C_R   0.750582 0.819991 0.028528 -0.072605
C93   C     C_R   0.145708 0.831783 0.943362 -0.142454
C94   C     C_R   0.854324 0.168319 0.056618 -0.142356
C95   C     C_R   0.854301 0.831765 0.056632 -0.142462
C96   C     C_R   0.145681 0.168303 0.943383 -0.142339
C97   C     C_R   0.645707 0.331712 0.943329 -0.142875
C98   C     C_R   0.354369 0.668346 0.056560 -0.142018
C99   C     C_R   0.354308 0.331685 0.056660 -0.142878
C100  C     C_R   0.645638 0.668330 0.943438 -0.142005
C101  C     C_R   0.118686 0.852644 0.894817 -0.017470
C102  C     C_R   0.795735 0.230159 0.328983 0.558311
C103  C     C_R   0.881324 0.147388 0.105176 -0.017030
C104  C     C_R   0.881318 0.852638 0.105182 -0.017472
C105  C     C_R   0.118677 0.147385 0.894826 -0.017024
C106  C     C_R   0.618676 0.352612 0.894808 -0.017437
C107  C     C_R   0.381331 0.647387 0.105163 -0.017104
C108  C     C_R   0.381331 0.352602 0.105188 -0.017438
C109  C     C_R   0.618671 0.647383 0.894837 -0.017100
C110  C     C_R   0.136814 0.828442 0.807574 -0.156839
C111  C     C_R   0.863198 0.171573 0.192418 -0.158859
C112  C     C_R   0.863187 0.828441 0.192427 -0.156841
C113  C     C_R   0.204294 0.769892 0.671003 0.555771
C114  C     C_R   0.136803 0.171574 0.807585 -0.158860
C115  C     C_R   0.636777 0.328398 0.807577 -0.158403
C116  C     C_R   0.363168 0.671532 0.192430 -0.157357
C117  C     C_R   0.363225 0.328395 0.192423 -0.158404
C118  C     C_R   0.636833 0.671532 0.807572 -0.157357
C119  C     C_R   0.181153 0.782982 0.768123 -0.034083
C120  C     C_R   0.818934 0.217157 0.231821 -0.030242
C121  C     C_R   0.818853 0.782971 0.231874 -0.034077
C122  C     C_R   0.181080 0.217135 0.768173 -0.030264
C123  C     C_R   0.681014 0.282764 0.768194 -0.034073
C124  C     C_R   0.204270 0.230149 0.671015 0.558264
C125  C     C_R   0.318840 0.717009 0.231875 -0.030308
C126  C     C_R   0.318992 0.282755 0.231804 -0.034071
C127  C     C_R   0.681171 0.716993 0.768121 -0.030325
C128  C     C_R   0.205881 0.757287 0.819928 0.061390
C129  C     C_R   0.794265 0.243002 0.180017 0.062886
C130  C     C_R   0.794135 0.757259 0.180063 0.061385
C131  C     C_R   0.205767 0.242946 0.819965 0.062909
C132  C     C_R   0.705595 0.256805 0.820104 0.062783
C133  C     C_R   0.294085 0.742697 0.180134 0.061617
C134  C     C_R   0.294420 0.256781 0.179889 0.062785
C135  C     C_R   0.795708 0.769889 0.328997 0.555786
C136  C     C_R   0.705939 0.742657 0.819853 0.061636
C137  C     C_R   0.189097 0.784565 0.906650 -0.037719
C138  C     C_R   0.811014 0.215680 0.093257 -0.040103
C139  C     C_R   0.810918 0.784537 0.093340 -0.037716
C140  C     C_R   0.189005 0.215640 0.906735 -0.040089
C141  C     C_R   0.688977 0.284288 0.906705 -0.037868
C142  C     C_R   0.310982 0.715571 0.093259 -0.039924
C143  C     C_R   0.311042 0.284255 0.093281 -0.037855
C144  C     C_R   0.689035 0.715538 0.906732 -0.039919
C145  C     C_R   0.199789 0.630945 0.516323 0.552294
C146  C     C_R   0.557421 0.876309 0.474489 -0.139355
C147  C     C_R   0.803098 0.368225 0.473377 0.552524
C148  C     C_R   0.800211 0.630945 0.483678 0.552301
C149  C     C_R   0.196901 0.368224 0.526624 0.552498
C150  C     C_R   0.696903 0.131773 0.526615 0.550632
C151  C     C_R   0.300210 0.869053 0.483681 0.554122
C152  C     C_R   0.303097 0.131773 0.473385 0.550639
C153  C     C_R   0.699790 0.869053 0.516320 0.554107
C154  C     C_R   0.925935 0.903837 0.067093 0.558305
C155  C     C_R   0.074070 0.096160 0.932903 0.557467
C156  C     C_R   0.074065 0.903838 0.932906 0.558310
Cu1   Cu    Cu3+1 0.209920 0.785290 0.495070 0.977097
Cu2   Cu    Cu3+1 0.504760 0.500000 0.075850 0.941296
Cu3   Cu    Cu3+1 0.995240 1.000000 0.924150 0.941126
Cu4   Cu    Cu3+1 0.004760 0.000000 0.075850 0.941130
Cu5   Cu    Cu3+1 0.790080 0.214710 0.504930 0.985125
Cu6   Cu    Cu3+1 0.790080 0.785290 0.504930 0.977109
Cu7   Cu    Cu3+1 0.209920 0.214710 0.495070 0.985122
Cu8   Cu    Cu3+1 0.709920 0.285290 0.495070 0.981688
Cu9   Cu    Cu3+1 0.290080 0.714710 0.504930 0.980824
Cu10  Cu    Cu3+1 0.290080 0.285290 0.504930 0.981715
Cu11  Cu    Cu3+1 0.709920 0.714710 0.495070 0.980815
Cu12  Cu    Cu3+1 0.495240 0.500000 0.924150 0.941286
H1    H     H_    0.229153 0.499991 0.534978 0.168956
H2    H     H_    0.867489 0.668066 0.561086 0.169121
H3    H     H_    0.911754 0.326501 0.413426 0.151086
H4    H     H_    0.132503 0.668069 0.438929 0.169085
H5    H     H_    0.249786 0.874103 0.948544 0.111683
H6    H     H_    0.750037 0.126165 0.052056 0.112629
H7    H     H_    0.750245 0.874074 0.051415 0.111679
H8    H     H_    0.249928 0.126103 0.948034 0.112633
H9    H     H_    0.750025 0.373810 0.947790 0.112322
H10   H     H_    0.250373 0.626062 0.051234 0.111966
H11   H     H_    0.250049 0.373790 0.052093 0.112320
H12   H     H_    0.770848 0.499992 0.465018 0.168955
H13   H     H_    0.749630 0.626022 0.948784 0.111968
H14   H     H_    0.133335 0.852414 0.009988 0.148629
H15   H     H_    0.866671 0.147653 0.990014 0.145483
H16   H     H_    0.866675 0.852393 0.990005 0.148618
H17   H     H_    0.133328 0.147643 0.009991 0.145484
H18   H     H_    0.633415 0.352447 0.009884 0.148310
H19   H     H_    0.366791 0.647787 0.989886 0.145909
H20   H     H_    0.366603 0.352414 0.990101 0.148293
H21   H     H_    0.633212 0.647773 0.010113 0.145915
H22   H     H_    0.117448 0.847358 0.768923 0.161971
H23   H     H_    0.729157 0.000004 0.534964 0.169028
H24   H     H_    0.882518 0.152572 0.231105 0.159458
H25   H     H_    0.882548 0.847368 0.231083 0.161971
H26   H     H_    0.117473 0.152591 0.768905 0.159455
H27   H     H_    0.617473 0.347430 0.768880 0.160260
H28   H     H_    0.382512 0.652579 0.231101 0.161181
H29   H     H_    0.382523 0.347440 0.231125 0.160261
H30   H     H_    0.617481 0.652593 0.768907 0.161180
H31   H     H_    0.544897 0.828041 0.454042 0.116911
H32   H     H_    0.484086 0.178098 0.449809 0.117189
H33   H     H_    0.455096 0.828042 0.545976 0.116914
H34   H     H_    0.270844 0.000004 0.465033 0.169028
H35   H     H_    0.515913 0.178099 0.550197 0.117203
H36   H     H_    0.015916 0.321883 0.550193 0.113744
H37   H     H_    0.955099 0.671944 0.545964 0.120898
H38   H     H_    0.984082 0.321884 0.449817 0.113745
H39   H     H_    0.044890 0.671945 0.454061 0.120882
H40   H     H_    0.195693 0.655899 0.976278 0.124864
H41   H     H_    0.804717 0.344157 0.022815 0.123314
H42   H     H_    0.804312 0.655861 0.023735 0.124851
H43   H     H_    0.195355 0.344136 0.977074 0.123372
H44   H     H_    0.695329 0.155820 0.977083 0.123820
H45   H     H_    0.632516 0.831924 0.438897 0.167705
H46   H     H_    0.304457 0.844266 0.023548 0.124291
H47   H     H_    0.304642 0.155760 0.022995 0.123829
H48   H     H_    0.695575 0.844236 0.976411 0.124329
H49   H     H_    0.325878 0.677793 0.753854 0.332585
H50   H     H_    0.729888 0.397726 0.263617 0.341420
H51   H     H_    0.674167 0.677695 0.246091 0.332592
H52   H     H_    0.270274 0.397593 0.736375 0.341385
H53   H     H_    0.824730 0.175177 0.755330 0.333444
H54   H     H_    0.228867 0.896905 0.263763 0.340870
H55   H     H_    0.175290 0.175140 0.244657 0.333444
H56   H     H_    0.411753 0.173486 0.413431 0.151921
H57   H     H_    0.771236 0.896820 0.736246 0.340847
H58   H     H_    0.367478 0.831925 0.561113 0.167720
H59   H     H_    0.588247 0.173487 0.586572 0.151927
H60   H     H_    0.088246 0.326500 0.586579 0.151082
O1    O     O_R   0.255040 0.869590 0.478480 -0.498382
O2    O     O_R   0.817950 0.203450 0.375560 -0.527254
O3    O     O_R   0.817950 0.796550 0.375560 -0.519441
O4    O     O_R   0.182050 0.203450 0.624440 -0.527250
O5    O     O_R   0.682050 0.296550 0.624440 -0.526294
O6    O     O_R   0.317950 0.703450 0.375560 -0.520438
O7    O     O_R   0.317950 0.296550 0.375560 -0.526298
O8    O     O_R   0.682050 0.703450 0.624440 -0.520434
O9    O     O_R   0.250530 0.763330 0.367210 -0.474587
O10   O     O_R   0.749470 0.236670 0.632790 -0.464718
O11   O     O_R   0.749470 0.763330 0.632790 -0.474584
O12   O     O_R   0.744960 0.130410 0.521520 -0.497922
O13   O     O_R   0.250530 0.236670 0.367210 -0.464712
O14   O     O_R   0.750530 0.263330 0.367210 -0.464895
O15   O     O_R   0.249470 0.736670 0.632790 -0.474286
O16   O     O_R   0.249470 0.263330 0.632790 -0.464883
O17   O     O_R   0.750530 0.736670 0.367210 -0.474284
O18   O     O_R   0.177260 0.690030 0.513710 -0.526814
O19   O     O_R   0.822740 0.309970 0.486290 -0.523918
O20   O     O_R   0.822740 0.690030 0.486290 -0.526811
O21   O     O_R   0.177260 0.309970 0.513710 -0.523915
O22   O     O_R   0.677260 0.190030 0.513710 -0.523228
O23   O     O_R   0.744960 0.869590 0.521520 -0.498392
O24   O     O_R   0.322740 0.809970 0.486290 -0.527350
O25   O     O_R   0.322740 0.190030 0.486290 -0.523212
O26   O     O_R   0.677260 0.809970 0.513710 -0.527350
O27   O     O_R   0.051640 0.926880 0.885090 -0.510177
O28   O     O_R   0.948360 0.073120 0.114910 -0.511440
O29   O     O_R   0.948360 0.926880 0.114910 -0.510179
O30   O     O_R   0.051640 0.073120 0.885090 -0.511439
O31   O     O_R   0.551640 0.426880 0.885090 -0.510993
O32   O     O_R   0.448360 0.573120 0.114910 -0.510654
O33   O     O_R   0.448360 0.426880 0.114910 -0.510993
O34   O     O_R   0.255040 0.130410 0.478480 -0.497923
O35   O     O_R   0.551640 0.573120 0.885090 -0.510654
O36   O     O_R   0.940620 0.926560 0.986760 -0.511771
O37   O     O_R   0.059380 0.073440 0.013240 -0.513315
O38   O     O_R   0.059380 0.926560 0.013240 -0.511770
O39   O     O_R   0.940620 0.073440 0.986760 -0.513313
O40   O     O_R   0.440620 0.426560 0.986760 -0.512241
O41   O     O_R   0.559380 0.573440 0.013240 -0.512775
O42   O     O_R   0.559380 0.426560 0.013240 -0.512239
O43   O     O_R   0.440620 0.573440 0.986760 -0.512773
O44   O     O_2   0.240566 0.643974 0.763737 -0.504412
O45   O     O_R   0.755040 0.369590 0.478480 -0.499678
O46   O     O_R   0.299855 0.719258 0.777736 -0.704513
O47   O     O_2   0.707112 0.285465 0.220754 -0.517210
O48   O     O_R   0.762062 0.364583 0.240919 -0.681067
O49   O     O_2   0.759472 0.643944 0.236279 -0.504418
O50   O     O_R   0.700178 0.719172 0.222211 -0.704504
O51   O     O_2   0.292979 0.285223 0.779109 -0.517185
O52   O     O_R   0.238065 0.364511 0.759106 -0.681083
O53   O     O_2   0.739470 0.143240 0.763700 -0.508460
O54   O     O_R   0.799075 0.217038 0.779016 -0.696065
O55   O     O_2   0.206586 0.784035 0.221520 -0.526069
O56   O     O_R   0.244960 0.630410 0.521520 -0.496770
O57   O     O_R   0.261253 0.864131 0.240899 -0.676242
O58   O     O_2   0.260545 0.143220 0.236314 -0.508479
O59   O     O_R   0.200943 0.217002 0.220967 -0.696053
O60   O     O_2   0.793476 0.783874 0.778381 -0.526080
O61   O     O_R   0.738827 0.864085 0.759133 -0.676257
O62   O     O_R   0.244960 0.369590 0.521520 -0.499690
O63   O     O_R   0.755040 0.630410 0.478480 -0.496765
O64   O     O_R   0.182050 0.796550 0.624440 -0.519437

loop_
_geom_bond_atom_site_label_1
_geom_bond_atom_site_label_2
_ccdc_geom_bond_type
C46   H37   S    
C28   C47   A    
C70   C140  S    
C6    O42   A    
C36   C42   A    
C74   C83   A    
C72   C142  S    
C153  O23   A    
C13   C18   A    
C99   C143  A    
H53   O54   S    
C16   C35   A    
C69   C123  S    
C90   H8    S    
C37   C42   A    
C67   C138  S    
C74   C144  S    
C131  C140  A    
C61   C132  S    
C134  C143  A    
C40   H12   S    
C91   O13   A    
C10   C20   A    
Cu3   O36   S    
C113  O15   A    
H52   O52   S    
Cu3   O27   S    
C124  O16   A    
Cu1   O18   S    
Cu6   O3    S    
C63   O59   S    
C119  C128  A    
C64   O60   D    
C24   C51   A    
C100  C109  A    
C8    C16   A    
Cu12  O40   S    
C55   C65   A    
C109  C118  A    
C66   C89   A    
C92   H7    S    
C79   H44   S    
C115  C123  A    
Cu8   O45   S    
C127  C136  A    
C100  C144  A    
C93   C101  A    
C155  O30   A    
C30   C149  S    
Cu5   O10   S    
C101  C110  A    
C148  O63   A    
C110  H22   S    
C29   C45   A    
C6    O31   A    
C61   O53   D    
Cu8   O22   S    
C98   H19   S    
C6    C106  S    
C121  C135  S    
C72   C84   A    
C53   H2    S    
C49   H56   S    
C56   O46   S    
C20   C146  A    
C50   H58   S    
C94   H15   S    
C56   O44   D    
C55   H4    S    
C62   C133  S    
C21   C30   A    
C34   C153  S    
C3    C103  S    
C68   C77   A    
C14   C57   A    
C48   H45   S    
C114  H26   S    
C2    C19   A    
C96   H17   S    
C25   C55   A    
C82   C90   A    
C151  O24   A    
C95   C139  A    
C106  C115  A    
C9    C15   A    
C39   H1    S    
C61   O54   S    
C46   C53   A    
Cu4   O29   S    
C68   C92   A    
C56   C128  S    
C82   H47   S    
C156  O38   A    
C126  C134  A    
C59   O50   S    
C102  O2    A    
C64   O61   S    
C76   C85   A    
C78   C87   A    
C64   C136  S    
C11   C18   A    
Cu4   O38   S    
C123  C132  A    
C80   O8    A    
C121  C130  A    
C25   C43   A    
C71   C79   A    
C83   H48   S    
Cu1   O1    S    
C32   C147  S    
C99   C108  A    
C133  C142  A    
Cu2   O41   S    
Cu12  O31   S    
C75   C84   A    
C58   C129  S    
C91   O7    A    
C88   H6    S    
C69   O5    A    
C26   C45   A    
C60   O51   D    
C29   C38   A    
C86   H13   S    
C102  O14   A    
C71   C141  S    
C98   C142  A    
Cu9   O56   S    
C150  O22   A    
C58   O48   S    
C41   H23   S    
C120  C129  A    
C38   C41   A    
Cu7   O4    S    
Cu12  O43   S    
Cu1   Cu9   S    
C104  C112  A    
C36   C152  S    
C1    O9    A    
C57   H38   S    
Cu6   O23   S    
C8    C12   A    
C10   C45   A    
C147  O45   A    
C77   H42   S    
C27   C47   A    
C105  C155  S    
H57   O61   S    
C116  C125  A    
H55   O59   S    
C42   H34   S    
C118  C127  A    
C122  C124  S    
C118  H30   S    
C122  C131  A    
C5    O35   A    
C29   C51   A    
C152  O34   A    
C132  C141  A    
C149  O62   A    
C108  C117  A    
C110  C119  A    
C96   C140  A    
C65   H39   S    
C112  C121  A    
Cu6   O11   S    
C151  O1    A    
C28   C37   A    
Cu2   O32   S    
C30   C39   A    
Cu7   O13   S    
C7    C107  S    
C107  C116  A    
C154  O36   A    
C13   C50   A    
C116  H28   S    
Cu9   O6    S    
C15   C46   A    
C27   C49   A    
C25   C33   A    
C54   C57   A    
C96   C105  A    
C24   H35   S    
Cu9   O24   S    
Cu10  O16   S    
C135  O17   A    
C11   C47   A    
C8    C43   A    
C89   H5    S    
Cu8   O14   S    
Cu2   Cu12  S    
C4    C108  S    
C11   C19   A    
C67   C88   A    
C80   O11   A    
Cu5   O19   S    
C152  O25   A    
C35   H36   S    
Cu11  O63   S    
Cu10  O25   S    
C31   C40   A    
C103  C111  A    
C3    O28   A    
C73   C87   A    
C113  C119  S    
C52   H60   S    
H51   O50   S    
C69   O10   A    
C72   C81   A    
C156  O27   A    
C26   C48   A    
C81   C89   A    
C111  H24   S    
C135  O3    A    
Cu1   O64   S    
C7    O32   A    
C97   H18   S    
C34   C41   A    
C130  C139  A    
C60   C131  S    
C79   C88   A    
C149  O21   A    
Cu11  O8    S    
C3    O39   A    
C63   C134  S    
Cu7   Cu10  S    
Cu5   O12   S    
C101  C156  S    
C23   C44   A    
C9    C14   A    
C93   H14   S    
Cu3   Cu4   S    
C12   C15   A    
C1    O6    A    
C62   O55   D    
C97   C141  A    
C99   H20   S    
C97   C106  A    
Cu1   O9    S    
C94   C103  A    
C150  O12   A    
C59   O49   D    
C51   H59   S    
C94   C138  A    
C73   C82   A    
Cu5   Cu8   S    
C102  C120  S    
C73   C143  S    
C115  H27   S    
H50   O48   S    
C27   C36   A    
C4    O40   A    
C12   C65   A    
C5    O41   A    
Cu2   O42   S    
C23   C32   A    
Cu4   O28   S    
C7    O43   A    
C136  C144  A    
C5    C109  S    
C66   C75   A    
Cu7   O34   S    
Cu6   O20   S    
C98   C107  A    
Cu5   O2    S    
C85   H9    S    
C60   O52   S    
C35   C52   A    
C68   C139  S    
C104  C154  S    
C78   H43   S    
C76   H41   S    
C153  O26   A    
C59   C130  S    
C91   C126  S    
C70   C78   A    
C100  H21   S    
C113  O64   A    
C83   C92   A    
C33   C39   A    
C145  O18   A    
C2    H32   S    
C1    C125  S    
H54   O57   S    
C95   H16   S    
C10   C17   A    
Cu3   O39   S    
C148  O20   A    
C75   H40   S    
C146  H31   S    
C63   O58   D    
C71   C85   A    
C28   C50   A    
C26   C34   A    
C22   C44   A    
C129  C138  A    
C4    O33   A    
C48   C146  A    
C147  O19   A    
Cu4   O37   S    
Cu11  O26   S    
C21   C43   A    
C70   C90   A    
C37   C151  S    
C22   C53   A    
H49   O46   S    
C17   C24   A    
C22   C31   A    
C105  C114  A    
Cu7   O21   S    
Cu11  O17   S    
C111  C120  A    
C128  C137  A    
C2    C49   A    
C81   H46   S    
Cu2   O33   S    
C155  O37   A    
C74   C86   A    
C84   H10   S    
C154  O29   A    
C33   C145  S    
Cu9   O15   S    
C77   C86   A    
Cu3   O30   S    
C14   C16   A    
C31   C148  S    
C117  H29   S    
C95   C104  A    
C23   C54   A    
C125  C133  A    
Cu10  O7    S    
C58   O47   D    
C9    C44   A    
Cu8   O5    S    
C54   H3    S    
C80   C127  S    
C124  O4    A    
C62   O57   S    
C66   C137  S    
C17   C19   A    
C13   H33   S    
C18   C20   A    
C32   C40   A    
Cu12  O35   S    
C112  H25   S    
C93   C137  A    
C87   H11   S    
Cu6   Cu11  S    
C114  C122  A    
Cu10  O62   S    
C117  C126  A    
C67   C76   A    
C145  O56   A    
C38   C150  S    
C21   C52   A    
