data_mof_unit_8870.cif
_audit_creation_date              2012-12-10T21:06:59-0500
_audit_creation_method            fapswitch 2.2
_symmetry_space_group_name_H-M    P1
_symmetry_Int_Tables_number       1
_space_group_crystal_system       triclinic
_cell_length_a                    10.780571
_cell_length_b                    15.825243
_cell_length_c                    15.0742
_cell_angle_alpha                 89.792508
_cell_angle_beta                  89.404063
_cell_angle_gamma                 90.629032
_cell_volume                      2571.42420865

loop_
_atom_site_label
_atom_site_type_symbol
_atom_type_description
_atom_site_fract_x
_atom_site_fract_y
_atom_site_fract_z
_atom_type_partial_charge
C1    C     C_R   0.501693 0.338970 0.500040 0.909563
C2    C     C_R   0.498364 0.661030 0.500013 0.946379
C3    C     C_R   0.873176 0.500784 0.498937 -0.225801
C4    C     C_R   0.127572 0.498684 0.501613 -0.275531
C5    C     C_R   0.932724 0.437256 0.548354 -0.127592
C6    C     C_R   0.068299 0.562035 0.452040 -0.148202
C7    C     C_R   0.521723 0.957427 0.581526 0.440284
C8    C     C_R   0.485738 0.042500 0.419020 0.498776
C9    C     C_R   0.506413 0.913009 0.501845 -0.053185
C10   C     C_R   0.500218 0.086937 0.498750 -0.048421
C11   C     C_R   0.488810 0.954857 0.421415 -0.288291
C12   C     C_R   0.518082 0.045100 0.579181 -0.327644
C13   C     C_1   0.505182 0.824094 0.501057 0.103898
C14   C     C_1   0.499226 0.175858 0.499542 0.107861
C15   C     C_1   0.500036 0.250674 0.500013 -0.037657
C16   C     C_1   0.502220 0.749298 0.500285 -0.013146
C17   C     C_R   0.454945 0.427755 0.954012 0.308617
C18   C     C_R   0.521218 0.578210 0.045708 0.219799
C19   C     C_R   0.486772 0.502099 0.905058 -0.340910
C20   C     C_R   0.486575 0.504331 0.094838 -0.333792
C21   C     C_R   0.509422 0.578990 0.950949 0.283524
C22   C     C_R   0.442668 0.431824 0.048758 0.312441
C23   C     C_R   0.259786 0.498193 0.500529 0.991503
C24   C     C_R   0.740486 0.501185 0.499563 0.963456
C25   C     C_1   0.494548 0.500514 0.807006 0.415500
C26   C     C_1   0.494624 0.502195 0.192988 0.399760
C27   C     C_R   0.245948 0.762338 0.384883 -0.228708
C28   C     C_R   0.762112 0.233167 0.610985 -0.238443
C29   C     C_R   0.181242 0.703510 0.438406 0.424871
C30   C     C_R   0.823538 0.294410 0.558505 0.396392
C31   C     C_R   0.142387 0.625757 0.400821 0.061472
C32   C     C_R   0.859051 0.372188 0.597659 0.067719
C33   C     C_R   0.171571 0.608292 0.311657 -0.085521
C34   C     C_R   0.830379 0.387159 0.687356 -0.109717
C35   C     C_R   0.238925 0.666590 0.260332 -0.090366
C36   C     C_R   0.767987 0.325948 0.738028 -0.036235
C37   C     C_R   0.275652 0.743627 0.296819 -0.088461
C38   C     C_R   0.733707 0.249120 0.699888 -0.091121
C39   C     C_R   0.939316 0.563337 0.450042 0.440792
C40   C     C_R   0.061901 0.436247 0.550908 0.416158
H1    H     H_    0.326440 0.789359 0.256678 0.214576
H2    H     H_    0.686195 0.201395 0.739535 0.182237
H3    H     H_    0.273294 0.823202 0.410999 0.184791
H4    H     H_    0.737500 0.172267 0.583621 0.183014
H5    H     H_    0.142228 0.549144 0.282129 0.189615
H6    H     H_    0.858008 0.446060 0.718203 0.165581
H7    H     H_    0.261548 0.652273 0.191944 0.180863
H8    H     H_    0.747470 0.337806 0.807273 0.181722
H9    H     H_    0.529242 0.081100 0.639657 0.194076
H10   H     H_    0.477100 0.918883 0.360966 0.216111
N1    N     N_1   0.499960 0.500020 0.270550 -0.054438
N2    N     N_1   0.500040 0.499980 0.729450 -0.052254
O1    O     O_R   0.500000 0.378020 0.573650 -0.586992
O2    O     O_R   0.500000 0.621980 0.426350 -0.606280
O3    O     O_R   0.500060 0.378020 0.426320 -0.602098
O4    O     O_R   0.499940 0.621980 0.573680 -0.560700
O5    O     O_R   0.316730 0.500010 0.573660 -0.554088
O6    O     O_R   0.683270 0.499990 0.426340 -0.550717
O7    O     O_R   0.316790 0.500010 0.426330 -0.632324
O8    O     O_R   0.683210 0.499990 0.573670 -0.652316
Zn1   Zn    Zn3+2 0.499960 0.500000 0.598370 1.122877
Zn2   Zn    Zn3+2 0.500040 0.500000 0.401630 1.108723
S1    S     S_3+6 0.428687 0.330481 0.895958 0.092056
O9    O     O_2   0.292214 0.321257 0.878425 -0.197980
O10   O     O_2   0.496990 0.328321 0.808706 -0.347000
O11   O     O_3   0.476575 0.247720 0.956394 -0.469921
H11   H     H_    0.447439 0.197146 0.923796 0.399176
S2    S     S_3+6 0.578171 0.669589 0.102981 0.105058
O12   O     O_2   0.473207 0.729951 0.116677 -0.236957
O13   O     O_2   0.629925 0.648313 0.192169 -0.261653
O14   O     O_3   0.691404 0.718153 0.043852 -0.412826
H12   H     H_    0.757921 0.675715 0.038584 0.370174
S3    S     S_3+6 0.144333 0.730727 0.549414 0.070027
O15   O     O_2   0.188629 0.818923 0.569517 -0.218717
O16   O     O_2   0.006071 0.726322 0.563183 -0.235845
O17   O     O_3   0.212992 0.663335 0.619577 -0.525675
H13   H     H_    0.145003 0.628303 0.645523 0.378048
S4    S     S_3+6 0.864121 0.269230 0.447582 0.080783
O18   O     O_2   0.002872 0.265515 0.438862 -0.153116
O19   O     O_2   0.810223 0.184794 0.422114 -0.259086
O20   O     O_3   0.812461 0.343625 0.377689 -0.525097
H14   H     H_    0.725543 0.327111 0.365245 0.379394
S5    S     S_3+6 0.859706 0.641233 0.385783 0.087866
O21   O     O_2   0.807861 0.597732 0.305758 -0.232541
O22   O     O_2   0.755672 0.676560 0.440445 -0.304741
O23   O     O_3   0.947797 0.723244 0.350603 -0.524234
H15   H     H_    0.892865 0.757005 0.312315 0.411567
S6    S     S_3+6 0.142993 0.356629 0.612670 0.081282
O24   O     O_2   0.240618 0.319396 0.553448 -0.292989
O25   O     O_2   0.204148 0.397632 0.690926 -0.248468
O26   O     O_3   0.054048 0.276363 0.651058 -0.525927
H16   H     H_    0.111469 0.239251 0.683608 0.410596
S7    S     S_3+6 0.544748 0.904852 0.683817 0.102472
O27   O     O_2   0.431352 0.852604 0.706058 -0.143251
O28   O     O_2   0.654151 0.847206 0.675647 -0.272634
O29   O     O_3   0.569697 0.974335 0.766099 -0.492754
H17   H     H_    0.654411 0.997101 0.754888 0.359986
S8    S     S_3+6 0.464145 0.094957 0.316577 0.070344
O30   O     O_2   0.350554 0.148932 0.323006 -0.239921
O31   O     O_2   0.575337 0.150393 0.297255 -0.239399
O32   O     O_3   0.446611 0.024764 0.233992 -0.517854
H18   H     H_    0.435524 0.059481 0.179905 0.402520
S9    S     S_3+6 0.370797 0.347805 0.111687 0.122410
O33   O     O_2   0.307816 0.381256 0.193579 -0.283289
O34   O     O_2   0.274417 0.301765 0.058567 -0.184538
O35   O     O_3   0.481414 0.280017 0.142631 -0.458739
H19   H     H_    0.436355 0.226904 0.157511 0.416831
S10   S     S_3+6 0.522753 0.674959 0.887208 0.131845
O36   O     O_2   0.442325 0.670729 0.806422 -0.237245
O37   O     O_2   0.484067 0.750928 0.939610 -0.132048
O38   O     O_3   0.671348 0.687021 0.854162 -0.522265
H20   H     H_    0.675616 0.743622 0.825999 0.432277

loop_
_geom_bond_atom_site_label_1
_geom_bond_atom_site_label_2
_ccdc_geom_bond_type
O6    Zn2   S    
S1    O10   D    
S7    O27   D    
C27   C29   A    
C18   C21   A    
C33   H5    S    
S3    O15   D    
O38   H20   S    
C35   H7    S    
C12   H9    S    
C23   O7    A    
O32   H18   S    
C35   C37   A    
C38   H2    S    
N2    Zn1   S    
S2    O14   S    
S4    O19   D    
C29   S3    S    
O35   H19   S    
C18   S2    S    
O3    Zn2   S    
C9    C13   S    
S10   O36   D    
C7    C9    A    
C1    O1    A    
C8    S8    S    
C17   C19   A    
O1    Zn1   S    
C4    C40   A    
S2    O12   D    
C31   C33   A    
C36   H8    S    
C1    C15   S    
C2    C16   S    
C18   C20   A    
C5    C32   S    
O11   H11   S    
S1    O11   S    
C3    C39   A    
S7    O28   D    
S3    O16   D    
C3    C24   S    
N1    Zn2   S    
O20   H14   S    
C7    C12   A    
C7    S7    S    
C24   O6    A    
O17   H13   S    
C4    C6    A    
C10   C14   S    
O26   H16   S    
C4    C23   S    
O23   H15   S    
O2    Zn2   S    
C28   H4    S    
C22   S9    S    
O8    Zn1   S    
C32   C34   A    
S5    O21   D    
S6    O26   S    
C28   C38   A    
C24   O8    A    
C6    C39   A    
O29   H17   S    
S9    O34   D    
C9    C11   A    
C10   C12   A    
C34   H6    S    
C8    C10   A    
S5    O22   D    
S6    O25   D    
S7    O29   S    
S8    O31   D    
C2    O2    A    
S3    O17   S    
C5    C40   A    
C23   O5    A    
O7    Zn2   S    
C19   C21   A    
C14   C15   T    
C20   C22   A    
C3    C5    A    
O5    Zn1   S    
S8    O32   S    
C17   C22   A    
S10   O38   S    
C40   S6    S    
C28   C30   A    
C1    O3    A    
C25   N2    T    
C39   S5    S    
O14   H12   S    
C29   C31   A    
C11   H10   S    
C2    O4    A    
C26   N1    T    
C17   S1    S    
C30   C32   A    
S4    O18   D    
S4    O20   S    
C20   C26   S    
C27   C37   A    
C8    C11   A    
C36   C38   A    
C33   C35   A    
S10   O37   D    
C6    C31   S    
S9    O35   S    
C34   C36   A    
C37   H1    S    
C19   C25   S    
C21   S10   S    
S1    O9    D    
C30   S4    S    
C27   H3    S    
S5    O23   S    
S6    O24   D    
S2    O13   D    
S8    O30   D    
C13   C16   T    
S9    O33   D    
O4    Zn1   S    
