data_mof_unit_41712.cif
_audit_creation_date              2012-12-11T17:07:57-0500
_audit_creation_method            fapswitch 2.2
_symmetry_space_group_name_H-M    P1
_symmetry_Int_Tables_number       1
_space_group_crystal_system       triclinic
_cell_length_a                    17.130195
_cell_length_b                    17.130193
_cell_length_c                    17.243451
_cell_angle_alpha                 89.999972
_cell_angle_beta                  89.999989
_cell_angle_gamma                 90.0
_cell_volume                      5059.97941495

loop_
_atom_site_label
_atom_site_type_symbol
_atom_type_description
_atom_site_fract_x
_atom_site_fract_y
_atom_site_fract_z
_atom_type_partial_charge
C1    C     C_R   0.423381 0.330411 0.855493 -0.147197
C2    C     C_R   0.169590 0.923380 0.355493 -0.147197
C3    C     C_R   0.680200 0.772926 0.351374 -0.203202
C4    C     C_R   0.227073 0.319800 0.648626 -0.203205
C5    C     C_R   0.226987 0.865376 0.801723 -0.199525
C6    C     C_R   0.772926 0.680200 0.648626 -0.203204
C7    C     C_R   0.773013 0.134624 0.801723 -0.199525
C8    C     C_R   0.727073 0.180200 0.851374 -0.203204
C9    C     C_R   0.726987 0.634624 0.698276 -0.199525
C10   C     C_R   0.272927 0.819800 0.851374 -0.203204
C11   C     C_R   0.273013 0.365376 0.698277 -0.199525
C12   C     C_R   0.634624 0.726986 0.301724 -0.199524
C13   C     C_R   0.106022 0.198358 0.399127 -0.157142
C14   C     C_R   0.819800 0.272926 0.148625 -0.203204
C15   C     C_R   0.365376 0.273013 0.301723 -0.199525
C16   C     C_R   0.180200 0.727073 0.148626 -0.203204
C17   C     C_R   0.830410 0.076620 0.355494 -0.147197
C18   C     C_R   0.923380 0.169590 0.644507 -0.147197
C19   C     C_R   0.198358 0.106022 0.600873 -0.157142
C20   C     C_R   0.076619 0.830410 0.644507 -0.147197
C21   C     C_R   0.801642 0.893978 0.600873 -0.157142
C22   C     C_3   0.896255 0.310881 0.751224 -0.522797
C23   C     C_3   0.652515 0.859383 0.694452 -0.525598
C24   C     C_3   0.103745 0.689119 0.751224 -0.522797
C25   C     C_R   0.698358 0.393977 0.899127 -0.157142
C26   C     C_3   0.347484 0.140618 0.694453 -0.525597
C27   C     C_3   0.859385 0.652516 0.305545 -0.525582
C28   C     C_3   0.689119 0.103747 0.248777 -0.522799
C29   C     C_3   0.140618 0.347485 0.305549 -0.525596
C30   C     C_3   0.310881 0.896255 0.248776 -0.522797
C31   C     C_3   0.359383 0.847485 0.194451 -0.525594
C32   C     C_3   0.189119 0.396255 0.251225 -0.522798
C33   C     C_3   0.640617 0.152516 0.194452 -0.525598
C34   C     C_3   0.810883 0.603746 0.251221 -0.522784
C35   C     C_3   0.396255 0.189119 0.748777 -0.522800
C36   C     C_R   0.576619 0.669590 0.855493 -0.147198
C37   C     C_3   0.152515 0.640617 0.805549 -0.525596
C38   C     C_3   0.603746 0.810881 0.748776 -0.522798
C39   C     C_3   0.847485 0.359382 0.805549 -0.525596
C40   C     C_R   0.392507 0.698000 0.897786 -0.140972
C41   C     C_R   0.328844 0.420339 0.855724 -0.126048
C42   C     C_R   0.607492 0.302000 0.897786 -0.140973
C43   C     C_R   0.671156 0.579662 0.855724 -0.126049
C44   C     C_R   0.420338 0.328844 0.144276 -0.126050
C45   C     C_R   0.302000 0.607492 0.102214 -0.140972
C46   C     C_R   0.579662 0.671156 0.144276 -0.126049
C47   C     C_R   0.301642 0.606022 0.899127 -0.157142
C48   C     C_R   0.698000 0.392507 0.102214 -0.140973
C49   C     C_R   0.920338 0.171156 0.355724 -0.126050
C50   C     C_R   0.802000 0.892508 0.397785 -0.140972
C51   C     C_R   0.079662 0.828844 0.355724 -0.126050
C52   C     C_R   0.198000 0.107492 0.397786 -0.140972
C53   C     C_R   0.892508 0.802000 0.602214 -0.140972
C54   C     C_R   0.828844 0.079662 0.644276 -0.126050
C55   C     C_R   0.107492 0.198000 0.602215 -0.140972
C56   C     C_R   0.171156 0.920338 0.644276 -0.126049
C57   C     C_R   0.362864 0.360992 0.811932 0.072689
C58   C     C_R   0.393978 0.698358 0.100873 -0.157143
C59   C     C_R   0.685519 0.316360 0.882756 0.083174
C60   C     C_R   0.637137 0.639009 0.811932 0.072690
C61   C     C_R   0.314480 0.683640 0.882756 0.083173
C62   C     C_R   0.316360 0.685519 0.117244 0.083174
C63   C     C_R   0.639009 0.637137 0.188068 0.072690
C64   C     C_R   0.683640 0.314480 0.117243 0.083173
C65   C     C_R   0.360991 0.362863 0.188068 0.072690
C66   C     C_R   0.816361 0.814481 0.382755 0.083173
C67   C     C_R   0.139009 0.862862 0.311932 0.072690
C68   C     C_R   0.183640 0.185519 0.382756 0.083174
C69   C     C_R   0.669589 0.576619 0.144507 -0.147198
C70   C     C_R   0.860991 0.137137 0.311932 0.072690
C71   C     C_R   0.862863 0.139009 0.688068 0.072690
C72   C     C_R   0.185519 0.183640 0.617244 0.083172
C73   C     C_R   0.137137 0.860991 0.688068 0.072690
C74   C     C_R   0.814481 0.816360 0.617244 0.083173
C75   C     C_R   0.820511 0.284494 0.841354 0.162783
C76   C     C_R   0.634535 0.739901 0.708058 0.166488
C77   C     C_R   0.179489 0.715506 0.841354 0.162783
C78   C     C_R   0.365465 0.260099 0.708059 0.166488
C79   C     C_R   0.739902 0.634535 0.291941 0.166481
C80   C     C_R   0.606022 0.301642 0.100873 -0.157142
C81   C     C_R   0.715505 0.179489 0.158646 0.162784
C82   C     C_R   0.260099 0.365465 0.291942 0.166488
C83   C     C_R   0.284494 0.820511 0.158646 0.162783
C84   C     C_R   0.239901 0.865465 0.208058 0.166488
C85   C     C_R   0.215506 0.320511 0.341354 0.162785
C86   C     C_R   0.760099 0.134535 0.208059 0.166488
C87   C     C_R   0.784496 0.679489 0.341352 0.162779
C88   C     C_R   0.320511 0.215506 0.658647 0.162785
C89   C     C_R   0.134535 0.760099 0.791942 0.166488
C90   C     C_R   0.679489 0.784494 0.658646 0.162784
C91   C     C_R   0.330410 0.423380 0.144507 -0.147197
C92   C     C_R   0.865465 0.239901 0.791942 0.166488
C93   C     C_R   0.745791 0.259440 0.862753 0.030896
C94   C     C_R   0.662951 0.668705 0.736657 0.032149
C95   C     C_R   0.254209 0.740560 0.862753 0.030896
C96   C     C_R   0.337049 0.331296 0.736657 0.032149
C97   C     C_R   0.668705 0.662951 0.263342 0.032149
C98   C     C_R   0.740559 0.254209 0.137247 0.030896
C99   C     C_R   0.331295 0.337048 0.263342 0.032149
C100  C     C_R   0.259441 0.745791 0.137247 0.030896
C101  C     C_R   0.168705 0.837048 0.236658 0.032149
C102  C     C_R   0.893978 0.801642 0.399127 -0.157142
C103  C     C_R   0.240559 0.245791 0.362753 0.030895
C104  C     C_R   0.831295 0.162952 0.236658 0.032149
C105  C     C_R   0.759441 0.754209 0.362752 0.030896
C106  C     C_R   0.245791 0.240559 0.637248 0.030896
C107  C     C_R   0.162952 0.831295 0.763343 0.032149
C108  C     C_R   0.754209 0.759441 0.637247 0.030896
C109  C     C_R   0.837048 0.168705 0.763342 0.032149
C110  C     C_R   0.134624 0.773013 0.198277 -0.199525
C111  C     C_R   0.319800 0.227073 0.351374 -0.203204
C112  C     C_R   0.865376 0.226986 0.198276 -0.199525
H1    H     H_    0.960017 0.318918 0.760292 0.192411
H2    H     H_    0.181083 0.460017 0.260293 0.192411
H3    H     H_    0.608302 0.199631 0.225121 0.199530
H4    H     H_    0.818922 0.539984 0.260288 0.192407
H5    H     H_    0.460017 0.181082 0.739708 0.192411
H6    H     H_    0.199628 0.608302 0.774880 0.199529
H7    H     H_    0.539983 0.818918 0.739709 0.192411
H8    H     H_    0.800371 0.391698 0.774880 0.199529
H9    H     H_    0.419979 0.754566 0.902684 0.083525
H10   H     H_    0.280614 0.457505 0.839575 0.093137
H11   H     H_    0.580021 0.245434 0.902684 0.083525
H12   H     H_    0.699629 0.891699 0.725121 0.199529
H13   H     H_    0.719386 0.542495 0.839574 0.093137
H14   H     H_    0.457505 0.280614 0.160425 0.093137
H15   H     H_    0.245434 0.580021 0.097316 0.083525
H16   H     H_    0.542495 0.719386 0.160425 0.093137
H17   H     H_    0.754566 0.419979 0.097316 0.083525
H18   H     H_    0.957504 0.219386 0.339575 0.093137
H19   H     H_    0.745434 0.919979 0.402684 0.083525
H20   H     H_    0.042495 0.780614 0.339575 0.093137
H21   H     H_    0.254566 0.080021 0.402684 0.083525
H22   H     H_    0.919979 0.745434 0.597316 0.083525
H23   H     H_    0.039982 0.681082 0.760293 0.192411
H24   H     H_    0.780614 0.042495 0.660425 0.093137
H25   H     H_    0.080021 0.254566 0.597316 0.083525
H26   H     H_    0.219386 0.957505 0.660425 0.093137
H27   H     H_    0.464867 0.286519 0.838560 0.111556
H28   H     H_    0.754187 0.421865 0.907846 0.100178
H29   H     H_    0.535134 0.713482 0.838561 0.111556
H30   H     H_    0.245813 0.578135 0.907846 0.100178
H31   H     H_    0.421865 0.754187 0.092154 0.100178
H32   H     H_    0.713481 0.535133 0.161440 0.111557
H33   H     H_    0.578135 0.245813 0.092154 0.100178
H34   H     H_    0.300371 0.108302 0.725123 0.199530
H35   H     H_    0.286518 0.464866 0.161439 0.111556
H36   H     H_    0.921865 0.745813 0.407845 0.100178
H37   H     H_    0.213482 0.964866 0.338561 0.111556
H38   H     H_    0.078135 0.254187 0.407845 0.100178
H39   H     H_    0.786518 0.035134 0.338561 0.111556
H40   H     H_    0.964866 0.213482 0.661439 0.111556
H41   H     H_    0.254187 0.078135 0.592155 0.100178
H42   H     H_    0.035133 0.786518 0.661439 0.111556
H43   H     H_    0.745813 0.921865 0.592155 0.100178
H44   H     H_    0.876169 0.316050 0.690099 0.200004
H45   H     H_    0.891700 0.699632 0.274876 0.199525
H46   H     H_    0.616831 0.894927 0.653788 0.189689
H47   H     H_    0.123831 0.683950 0.690099 0.200004
H48   H     H_    0.383168 0.105073 0.653789 0.189689
H49   H     H_    0.894931 0.616831 0.346208 0.189684
H50   H     H_    0.683950 0.123833 0.309902 0.200005
H51   H     H_    0.105073 0.383170 0.346214 0.189688
H52   H     H_    0.316050 0.876168 0.309901 0.200004
H53   H     H_    0.394927 0.883170 0.153786 0.189688
H54   H     H_    0.183950 0.376169 0.190100 0.200004
H55   H     H_    0.605072 0.116832 0.153789 0.189689
H56   H     H_    0.681081 0.039985 0.239710 0.192411
H57   H     H_    0.816050 0.623834 0.190095 0.200002
H58   H     H_    0.376169 0.183951 0.809902 0.200005
H59   H     H_    0.116830 0.605073 0.846213 0.189689
H60   H     H_    0.623832 0.816050 0.809902 0.200005
H61   H     H_    0.883169 0.394927 0.846213 0.189688
H62   H     H_    0.077084 0.752254 0.213852 0.126711
H63   H     H_    0.343983 0.172625 0.372058 0.124912
H64   H     H_    0.922916 0.247745 0.213851 0.126711
H65   H     H_    0.656017 0.827374 0.372059 0.124911
H66   H     H_    0.172626 0.343983 0.627942 0.124912
H67   H     H_    0.108301 0.300372 0.274880 0.199529
H68   H     H_    0.247747 0.922915 0.786148 0.126711
H69   H     H_    0.827374 0.656017 0.627941 0.124912
H70   H     H_    0.752253 0.077085 0.786147 0.126711
H71   H     H_    0.672625 0.156017 0.872058 0.124912
H72   H     H_    0.747745 0.577084 0.713851 0.126711
H73   H     H_    0.327375 0.843983 0.872059 0.124912
H74   H     H_    0.252255 0.422916 0.713851 0.126711
H75   H     H_    0.577084 0.747745 0.286149 0.126710
H76   H     H_    0.843983 0.327373 0.127940 0.124912
H77   H     H_    0.422916 0.252254 0.286148 0.126711
H78   H     H_    0.318918 0.960017 0.239708 0.192411
H79   H     H_    0.156017 0.672626 0.127941 0.124912
H80   H     H_    0.391699 0.800371 0.225120 0.199528
N1    N     N_R   0.425360 0.368540 0.922560 -0.041779
N2    N     N_R   0.131460 0.925360 0.422560 -0.041779
N3    N     N_R   0.074640 0.131460 0.422560 -0.035711
N4    N     N_R   0.868540 0.074640 0.422560 -0.041779
N5    N     N_R   0.925360 0.131460 0.577440 -0.041779
N6    N     N_R   0.131460 0.074640 0.577440 -0.035711
N7    N     N_R   0.074640 0.868540 0.577440 -0.041779
N8    N     N_R   0.868540 0.925360 0.577440 -0.035711
N9    N     N_R   0.425340 0.631500 0.922560 -0.036374
N10   N     N_R   0.368500 0.425340 0.922560 -0.041455
N11   N     N_R   0.574660 0.368500 0.922560 -0.036374
N12   N     N_R   0.631460 0.425360 0.922560 -0.035711
N13   N     N_R   0.631500 0.574660 0.922560 -0.041455
N14   N     N_R   0.425340 0.368500 0.077440 -0.041455
N15   N     N_R   0.368500 0.574660 0.077440 -0.036374
N16   N     N_R   0.574660 0.631500 0.077440 -0.041455
N17   N     N_R   0.631500 0.425340 0.077440 -0.036374
N18   N     N_R   0.925340 0.131500 0.422560 -0.041455
N19   N     N_R   0.868500 0.925340 0.422560 -0.036374
N20   N     N_R   0.074660 0.868500 0.422560 -0.041455
N21   N     N_R   0.131500 0.074660 0.422560 -0.036374
N22   N     N_R   0.925340 0.868500 0.577440 -0.036374
N23   N     N_R   0.574640 0.631460 0.922560 -0.041779
N24   N     N_R   0.868500 0.074660 0.577440 -0.041455
N25   N     N_R   0.074660 0.131500 0.577440 -0.036374
N26   N     N_R   0.131500 0.925340 0.577440 -0.041455
N27   N     N_R   0.368540 0.574640 0.922560 -0.035711
N28   N     N_R   0.425360 0.631460 0.077440 -0.035711
N29   N     N_R   0.631460 0.574640 0.077440 -0.041779
N30   N     N_R   0.574640 0.368540 0.077440 -0.035711
N31   N     N_R   0.368540 0.425360 0.077440 -0.041779
N32   N     N_R   0.925360 0.868540 0.422560 -0.035711
Ni1   Ni    Ni4+2 0.500000 0.369720 0.000000 0.207972
Ni2   Ni    Ni4+2 0.630280 0.500000 0.000000 0.207972
Ni3   Ni    Ni4+2 0.500000 0.630280 0.000000 0.207972
Ni4   Ni    Ni4+2 0.369720 0.500000 0.000000 0.207972
Ni5   Ni    Ni4+2 1.000000 0.869720 0.500000 0.207972
Ni6   Ni    Ni4+2 0.130280 0.000000 0.500000 0.207972
Ni7   Ni    Ni4+2 0.000000 0.130280 0.500000 0.207972
Ni8   Ni    Ni4+2 0.869720 0.000000 0.500000 0.207972

loop_
_geom_bond_atom_site_label_1
_geom_bond_atom_site_label_2
_ccdc_geom_bond_type
C11   C96   A    
C58   C62   A    
N11   N12   A    
C67   C101  S    
C53   N22   A    
C84   C101  A    
C32   H54   S    
C43   N13   A    
C11   H74   S    
C82   C99   A    
C29   H51   S    
C1    N1    A    
C53   C74   A    
C68   C103  S    
C30   H52   S    
C39   H61   S    
C25   N12   A    
C86   C104  A    
C24   C89   S    
C43   H13   S    
C6    C9    A    
C56   N26   A    
C42   N11   A    
C24   H47   S    
C102  N32   A    
C7    C8    A    
C55   N25   A    
C22   H44   S    
C3    C105  A    
C69   H32   S    
C14   C112  A    
C40   H9    S    
C47   H30   S    
C44   H14   S    
N15   N28   A    
C56   H26   S    
C20   H42   S    
C66   C102  A    
C111  H63   S    
C46   H16   S    
C13   H38   S    
C29   C32   S    
C36   N23   A    
C5    C107  A    
C30   C31   S    
C70   C104  S    
C92   C109  A    
C73   C107  S    
C41   C57   A    
C81   C98   A    
C28   H50   S    
C34   H4    S    
C39   H8    S    
C23   H46   S    
C71   C109  S    
C45   C62   A    
C10   H73   S    
C31   C83   S    
C103  C111  A    
C26   H34   S    
N2    Ni6   S    
N26   Ni6   S    
C3    C12   A    
C102  H36   S    
C33   C81   S    
C20   N7    A    
C58   N28   A    
C51   N20   A    
C22   H1    S    
C37   H6    S    
N4    Ni8   S    
C78   C96   A    
C57   C96   S    
C49   N18   A    
N8    N22   A    
N18   Ni7   S    
C26   H48   S    
C39   C75   S    
N27   Ni4   S    
C29   C85   S    
C81   C86   A    
C52   C68   A    
C76   C94   A    
C2    H37   S    
C64   C98   S    
C15   H77   S    
C17   C70   A    
C45   N15   A    
C3    H65   S    
C52   H21   S    
C64   C80   A    
C44   C65   A    
C17   H39   S    
N7    N26   A    
N17   N30   A    
N14   Ni1   S    
C18   H40   S    
C58   H31   S    
C79   C87   A    
C90   C108  A    
C42   H11   S    
C14   C98   A    
N5    Ni7   S    
C27   C34   S    
C53   H22   S    
C33   H3    S    
N19   Ni8   S    
C54   C71   A    
C6    H69   S    
C16   C110  A    
C63   C69   A    
C25   H28   S    
C19   C72   A    
C65   C99   S    
C2    C67   A    
C4    H66   S    
C104  C112  A    
C28   H56   S    
C88   C106  A    
C16   C100  A    
C38   C76   S    
C91   H35   S    
N30   Ni1   S    
N16   N29   A    
N7    Ni5   S    
C12   H75   S    
C47   N27   A    
C31   H80   S    
C77   C95   A    
N1    N10   A    
C7    C109  A    
N28   Ni3   S    
C2    N2    A    
C41   H10   S    
C54   N24   A    
C36   H29   S    
C5    H68   S    
C47   C61   A    
C16   H79   S    
C1    C57   A    
C34   C79   S    
C14   H76   S    
N15   Ni4   S    
C83   C84   A    
C87   C105  A    
N14   N31   A    
C54   H24   S    
C89   C107  A    
C18   N5    A    
C44   N14   A    
C24   C37   S    
C21   H43   S    
C23   C90   S    
N3    Ni7   S    
N13   Ni2   S    
N9    Ni3   S    
C40   N9    A    
C4    C11   A    
C27   C87   S    
C50   C66   A    
N9    N27   A    
C12   C97   A    
N5    N24   A    
C43   C60   A    
N4    N18   A    
C62   C100  S    
C38   H7    S    
C75   C92   A    
C8    H71   S    
C26   C88   S    
C80   H33   S    
C112  H64   S    
C72   C106  S    
C28   C33   S    
C49   C70   A    
C28   C86   S    
C19   H41   S    
C48   H17   S    
C35   H5    S    
N6    N25   A    
N17   Ni2   S    
C66   C105  S    
C91   N31   A    
C21   C74   A    
N6    Ni6   S    
N11   Ni1   S    
C75   C93   A    
C80   N30   A    
C1    H27   S    
C46   N16   A    
C78   C88   A    
C18   C71   A    
C65   C91   A    
C37   C77   S    
C19   N6    A    
C6    C108  A    
C56   C73   A    
C7    H70   S    
N31   Ni4   S    
C22   C39   S    
C79   C97   A    
C8    C93   A    
C55   C72   A    
C15   C99   A    
C34   H57   S    
C36   C60   A    
C85   C103  A    
C42   C59   A    
C37   H59   S    
N10   Ni4   S    
C51   H20   S    
C61   C95   S    
C31   H53   S    
C23   H12   S    
C77   C89   A    
C27   H45   S    
C82   C85   A    
C32   C82   S    
C49   H18   S    
N25   Ni7   S    
C35   C78   S    
C55   H25   S    
C23   C38   S    
C46   C63   A    
C83   C100  A    
C59   C93   S    
C101  C110  A    
N1    Ni1   S    
C5    C10   A    
N16   Ni3   S    
C9    H72   S    
N32   Ni5   S    
C27   H49   S    
C29   H67   S    
N20   Ni5   S    
N22   Ni5   S    
C51   C67   A    
C110  H62   S    
C4    C106  A    
C10   C95   A    
C45   H15   S    
N19   N32   A    
N29   Ni2   S    
C52   N21   A    
N24   Ni8   S    
C20   C73   A    
N23   Ni3   S    
C30   H78   S    
C30   C84   S    
N3    N21   A    
N2    N20   A    
C48   C64   A    
C50   H19   S    
C40   C61   A    
C74   C108  S    
C26   C35   S    
N8    Ni8   S    
C48   N17   A    
N13   N23   A    
C63   C97   S    
C13   N3    A    
C35   H58   S    
C22   C92   S    
C33   H55   S    
C17   N4    A    
C25   C59   A    
C21   N8    A    
C69   N29   A    
C32   H2    S    
C41   N10   A    
C24   H23   S    
C50   N19   A    
N12   Ni2   S    
C9    C94   A    
C13   C68   A    
C38   H60   S    
N21   Ni6   S    
C76   C90   A    
C15   C111  A    
C60   C94   S    
