data_mof_unit_34686.cif
_audit_creation_date              2012-12-10T17:55:52-0500
_audit_creation_method            fapswitch 2.2
_symmetry_space_group_name_H-M    P1
_symmetry_Int_Tables_number       1
_space_group_crystal_system       triclinic
_cell_length_a                    11.235854
_cell_length_b                    10.867695
_cell_length_c                    9.630811
_cell_angle_alpha                 91.92535
_cell_angle_beta                  101.890455
_cell_angle_gamma                 93.844104
_cell_volume                      1146.82091975

loop_
_atom_site_label
_atom_site_type_symbol
_atom_type_description
_atom_site_fract_x
_atom_site_fract_y
_atom_site_fract_z
_atom_type_partial_charge
C1    C     C_R   0.505222 0.262552 0.498784 0.875389
C2    C     C_R   0.491702 0.736937 0.500549 0.899646
C3    C     C_R   0.264420 0.496512 0.443935 0.802164
C4    C     C_R   0.736776 0.496575 0.556101 0.812971
C5    C     C_R   0.408721 0.436295 0.047337 -0.139628
C6    C     C_R   0.589055 0.568468 0.951576 -0.149979
C7    C     C_R   0.411504 0.432703 0.899646 0.543733
C8    C     C_R   0.584057 0.573376 0.099212 0.511787
C9    C     C_2   0.132462 0.475773 0.419747 -0.181621
C10   C     C_2   0.871177 0.486604 0.581327 -0.281519
C11   C     C_2   0.068923 0.532785 0.506210 -0.135077
C12   C     C_2   0.934689 0.513482 0.477566 -0.193072
C13   C     C_R   0.460622 0.055755 0.370099 0.440301
C14   C     C_R   0.526697 0.943557 0.629663 0.439628
C15   C     C_R   0.434345 0.928483 0.375749 -0.200923
C16   C     C_R   0.555976 0.070081 0.622726 -0.292149
C17   C     C_R   0.479573 0.870932 0.503034 -0.254612
C18   C     C_R   0.511183 0.127725 0.495762 -0.260657
Cu1   Cu    Cu3+1 0.500000 0.500020 0.640660 1.074570
Cu2   Cu    Cu3+1 0.500000 0.499980 0.359340 1.058760
N1    N     N_R   0.500030 0.500030 0.852080 -0.255009
N2    N     N_R   0.499970 0.499970 0.147920 -0.251836
O1    O     O_R   0.499990 0.319660 0.618740 -0.589660
O2    O     O_R   0.500010 0.680340 0.381260 -0.571796
O3    O     O_R   0.499990 0.319630 0.381170 -0.522142
O4    O     O_R   0.500010 0.680370 0.618830 -0.522473
O5    O     O_R   0.320690 0.500020 0.575130 -0.523355
O6    O     O_R   0.679310 0.499980 0.424870 -0.537318
O7    O     O_R   0.320680 0.499990 0.337560 -0.564377
O8    O     O_R   0.679320 0.500010 0.662440 -0.543408
C19   C     C_2   0.877384 0.527824 0.327077 1.031793
O9    O     O_2   0.904900 0.620369 0.268563 -0.534095
O10   O     O_R   0.806827 0.427724 0.248795 -0.711185
H1    H     H_    0.786634 0.439722 0.143122 0.373135
C20   C     C_2   0.125203 0.637568 0.606839 0.899298
O11   O     O_2   0.156278 0.620614 0.733383 -0.496978
O12   O     O_R   0.142467 0.755849 0.558483 -0.749024
H2    H     H_    0.110994 0.759711 0.452431 0.338521
C21   C     C_2   0.295529 0.385751 0.083574 0.945289
O13   O     O_2   0.199953 0.430100 0.032975 -0.523591
O14   O     O_R   0.295444 0.283821 0.166876 -0.703715
H3    H     H_    0.210704 0.245612 0.166100 0.342919
C22   C     C_2   0.696588 0.633656 0.912051 0.952379
O15   O     O_2   0.684604 0.705909 0.817415 -0.529611
O16   O     O_R   0.813296 0.618029 0.989845 -0.684628
H4    H     H_    0.879163 0.670529 0.956637 0.362916
C23   C     C_2   0.933219 0.433203 0.715456 1.003522
O17   O     O_2   0.892843 0.443352 0.823332 -0.508150
O18   O     O_R   0.033297 0.363294 0.715323 -0.669496
H5    H     H_    0.061150 0.323104 0.808671 0.376353
C24   C     C_2   0.077309 0.367026 0.326744 0.858424
O19   O     O_2   0.039708 0.378244 0.199843 -0.518759
O20   O     O_R   0.066674 0.252148 0.385758 -0.720418
H6    H     H_    0.026689 0.184830 0.312299 0.343470
O21   O     O_3   0.319092 0.368829 0.800816 -0.513158
C25   C     C_3   0.330635 0.240516 0.809022 -0.240286
H7    H     H_    0.283465 0.201899 0.890100 0.171050
H8    H     H_    0.427076 0.216389 0.831114 0.118839
H9    H     H_    0.285474 0.194748 0.705044 0.213366
O22   O     O_3   0.665376 0.650827 0.196535 -0.528503
C26   C     C_3   0.640872 0.775292 0.174929 -0.228123
H10   H     H_    0.675544 0.829622 0.276512 0.183051
H11   H     H_    0.541919 0.787653 0.142878 0.136688
H12   H     H_    0.689734 0.814753 0.095803 0.182636
O23   O     O_3   0.432239 0.110423 0.241727 -0.512478
C27   C     C_3   0.537123 0.118638 0.182315 -0.144230
H13   H     H_    0.619620 0.160065 0.258523 0.166585
H14   H     H_    0.520134 0.180119 0.092010 0.174156
H15   H     H_    0.555139 0.026359 0.141690 0.135051
O24   O     O_3   0.548328 0.890729 0.759831 -0.554169
C28   C     C_3   0.436477 0.876334 0.805455 -0.192849
H16   H     H_    0.452937 0.833501 0.909599 0.187752
H17   H     H_    0.367541 0.814266 0.731312 0.218521
H18   H     H_    0.398187 0.966703 0.819054 0.132370
C29   C     C_2   0.348139 0.859588 0.254426 0.914532
O25   O     O_2   0.339015 0.892991 0.132947 -0.588016
O26   O     O_R   0.272881 0.759020 0.280502 -0.767826
H19   H     H_    0.217762 0.720429 0.190645 0.361078
C30   C     C_2   0.651867 0.137101 0.736352 0.989824
O27   O     O_2   0.731429 0.203639 0.701263 -0.553796
O28   O     O_R   0.656768 0.125092 0.881249 -0.718284
H20   H     H_    0.581642 0.080590 0.902471 0.289511

loop_
_geom_bond_atom_site_label_1
_geom_bond_atom_site_label_2
_ccdc_geom_bond_type
C15   C29   S    
O21   C25   S    
O14   H3    S    
C27   H14   S    
Cu1   Cu2   S    
C9    C24   S    
C7    O21   S    
C22   O15   D    
O28   H20   S    
C23   O18   S    
C13   O23   S    
O20   H6    S    
C1    C18   S    
C13   C18   A    
C20   O12   S    
C27   H15   S    
Cu2   O3    S    
C25   H7    S    
C3    O7    A    
C26   H11   S    
Cu1   O4    S    
C5    N2    A    
Cu2   O2    S    
C8    N2    A    
C19   O10   S    
O24   C28   S    
Cu1   O5    S    
O26   H19   S    
C27   H13   S    
C2    C17   S    
C1    O3    A    
C14   O24   S    
C14   C17   A    
C4    O6    A    
Cu2   O7    S    
C24   O19   D    
C23   O17   D    
C21   O14   S    
C21   O13   D    
C5    C7    A    
C6    C8    A    
Cu2   O6    S    
O16   H4    S    
C6    N1    A    
O22   C26   S    
C24   O20   S    
C20   O11   D    
C26   H12   S    
Cu1   O1    S    
C29   O25   D    
O12   H2    S    
C3    C9    S    
C9    C11   D    
C19   O9    D    
C13   C15   A    
O10   H1    S    
C2    O4    A    
C22   O16   S    
C10   C12   D    
Cu2   N2    S    
C1    O1    A    
C6    C22   S    
C5    C21   S    
C12   C19   S    
C2    O2    A    
C14   C16   A    
C4    C10   S    
C30   O28   S    
C15   C17   A    
Cu1   N1    S    
C28   H18   S    
C11   C12   S    
C25   H9    S    
C16   C30   S    
C11   C20   S    
C28   H16   S    
C7    N1    A    
C8    O22   S    
C3    O5    A    
C25   H8    S    
O23   C27   S    
C26   H10   S    
C30   O27   D    
C16   C18   A    
O18   H5    S    
C29   O26   S    
C28   H17   S    
C10   C23   S    
Cu1   O8    S    
C4    O8    A    
