data_mof_unit_18024.cif
_audit_creation_date              2012-12-11T15:32:31-0500
_audit_creation_method            fapswitch 2.2
_symmetry_space_group_name_H-M    P1
_symmetry_Int_Tables_number       1
_space_group_crystal_system       triclinic
_cell_length_a                    8.301185
_cell_length_b                    16.674919
_cell_length_c                    19.124564
_cell_angle_alpha                 108.41253
_cell_angle_beta                  85.799752
_cell_angle_gamma                 96.897136
_cell_volume                      2491.80222644

loop_
_atom_site_label
_atom_site_type_symbol
_atom_type_description
_atom_site_fract_x
_atom_site_fract_y
_atom_site_fract_z
_atom_type_partial_charge
Ba1   Ba    Ba6+2 0.640410 0.457420 0.526150 1.781688
Ba2   Ba    Ba6+2 0.169770 0.542590 0.473910 1.741960
C1    C     C_3   0.815978 0.228392 0.748854 0.384185
C2    C     C_R   0.108220 0.248142 0.481138 -0.347512
C3    C     C_2   0.516045 0.857482 0.560831 0.139115
C4    C     C_3   0.319734 0.221214 0.630291 0.377708
C5    C     C_2   0.548352 0.775670 0.549697 0.050414
C6    C     C_2   0.820315 0.806096 0.492840 -0.020954
C7    C     C_3   0.800470 0.900509 0.522913 0.003971
C8    C     C_3   0.621375 0.913037 0.523047 0.000352
C9    C     C_2   0.907288 0.957056 0.485334 -0.116783
C10   C     C_2   0.893360 0.041100 0.503930 -0.053909
C11   C     C_R   0.147716 0.076110 0.434870 0.037927
C12   C     C_3   0.869239 0.226369 0.670420 0.417357
C13   C     C_R   0.009392 0.103011 0.478256 -0.126023
C14   C     C_R   0.264249 0.132251 0.412646 0.358034
C15   C     C_R   0.247998 0.221115 0.438200 -0.051277
C16   C     C_3   0.302325 0.130541 0.633438 -0.325634
C17   C     C_R   0.986524 0.190028 0.498690 -0.015002
C18   C     C_R   0.088364 0.457088 0.694014 -0.164482
C19   C     C_R   0.961001 0.506647 0.725776 0.140859
C20   C     C_R   0.917132 0.518498 0.801514 0.117690
C21   C     C_R   0.005146 0.484155 0.844652 0.056923
C22   C     C_R   0.139093 0.439863 0.811747 -0.084344
C23   C     C_3   0.950326 0.281894 0.333207 0.290555
C24   C     C_R   0.183357 0.428191 0.737379 0.053020
C25   C     C_R   0.874062 0.416843 0.936693 -0.175560
C26   C     C_R   0.816788 0.417414 0.007966 0.467927
C27   C     C_R   0.840860 0.493052 0.067714 -0.071954
C28   C     C_3   0.465430 0.725307 0.738185 0.556799
C29   C     C_R   0.920940 0.565777 0.054663 -0.150940
C30   C     C_R   0.978103 0.565584 0.984003 0.430713
C31   C     C_R   0.953792 0.490110 0.923042 -0.123904
C32   C     C_R   0.647889 0.542866 0.177091 0.080141
C33   C     C_R   0.603528 0.553173 0.252121 -0.030415
C34   C     C_3   0.953054 0.186381 0.298565 -0.304739
C35   C     C_R   0.832011 0.479213 0.261721 0.023875
C36   C     C_R   0.877180 0.468903 0.187749 -0.088457
C37   C     C_R   0.785030 0.499790 0.144753 0.082356
C38   C     C_R   0.697379 0.521806 0.293225 -0.302335
C39   C     C_3   0.469548 0.802935 0.813666 0.632168
C40   C     C_3   0.474290 0.349565 0.294116 0.325133
C41   C     C_3   0.460162 0.329773 0.211091 -0.083521
C42   C     C_3   0.888438 0.717374 0.656252 0.415625
C43   C     C_3   0.916200 0.813844 0.691204 -0.128772
C44   C     C_3   0.513244 0.765034 0.347058 0.343511
C45   C     C_3   0.555734 0.846544 0.327465 -0.302628
C46   C     C_3   0.969554 0.763551 0.319422 0.296758
C47   C     C_3   0.039719 0.765502 0.244187 -0.289653
C48   C     C_2   0.701167 0.748463 0.506848 -0.148288
H1    H     H_    0.938046 0.288900 0.673805 -0.251201
H2    H     H_    0.914816 0.830597 0.752320 0.205550
H3    H     H_    0.949775 0.174953 0.647141 -0.012098
H4    H     H_    0.924925 0.245101 0.783055 -0.043087
H5    H     H_    0.069027 0.309172 0.358219 -0.001653
H6    H     H_    0.851995 0.293373 0.376676 0.067436
H7    H     H_    0.061005 0.172691 0.260532 0.135139
H8    H     H_    0.958130 0.155785 0.341937 0.044973
H9    H     H_    0.841558 0.158735 0.267241 0.184491
H10   H     H_    0.248901 0.086489 0.582081 0.060705
H11   H     H_    0.439784 0.779188 0.399705 0.075535
H12   H     H_    0.603928 0.359373 0.307346 -0.036739
H13   H     H_    0.628193 0.741115 0.354359 -0.105116
H14   H     H_    0.442909 0.874749 0.324466 0.204393
H15   H     H_    0.633543 0.892130 0.370118 0.080071
H16   H     H_    0.623231 0.833264 0.273331 0.123101
H17   H     H_    0.880674 0.811328 0.338223 -0.025100
H18   H     H_    0.908245 0.698575 0.313254 0.000624
H19   H     H_    0.939771 0.753798 0.205515 0.072208
H20   H     H_    0.123806 0.715571 0.222027 0.154909
H21   H     H_    0.404731 0.224535 0.583538 0.085509
H22   H     H_    0.106846 0.828629 0.248728 0.161999
H23   H     H_    0.414857 0.408153 0.322647 0.043224
H24   H     H_    0.090423 0.314897 0.498296 0.081492
H25   H     H_    0.006297 0.931570 0.448112 0.106246
H26   H     H_    0.794876 0.065209 0.542081 0.149783
H27   H     H_    0.982312 0.435985 0.163430 0.114229
H28   H     H_    0.853825 0.359296 0.890947 0.137143
H29   H     H_    0.199323 0.236906 0.620198 -0.113665
H30   H     H_    0.939612 0.623692 0.100576 0.123352
H31   H     H_    0.210343 0.415539 0.844333 0.101327
H32   H     H_    0.659239 0.525216 0.348970 0.049981
H33   H     H_    0.122796 0.447250 0.636459 0.066188
H34   H     H_    0.508127 0.267995 0.181269 0.172264
H35   H     H_    0.423305 0.111490 0.638707 0.175042
H36   H     H_    0.221810 0.125457 0.681177 0.136394
H37   H     H_    0.589512 0.712781 0.718338 -0.044145
H38   H     H_    0.228381 0.818562 0.803824 0.199662
H39   H     H_    0.256275 0.773516 0.869143 0.293680
H40   H     H_    0.560881 0.709185 0.956604 0.379306
H41   H     H_    0.518003 0.027572 0.871689 0.398939
H42   H     H_    0.228007 0.271529 0.199095 0.219483
H43   H     H_    0.288474 0.322109 0.137392 0.239315
H44   H     H_    0.161916 0.839457 0.694991 0.243134
H45   H     H_    0.534288 0.379574 0.192716 0.099906
H46   H     H_    0.067417 0.914873 0.679746 0.217736
H47   H     H_    0.462090 0.085415 0.761061 0.372572
H48   H     H_    0.319115 0.920402 0.572867 0.188035
H49   H     H_    0.422417 0.946269 0.646900 0.233555
H50   H     H_    0.644756 0.042908 0.373424 0.351160
H51   H     H_    0.747546 0.636158 0.521876 0.190984
H52   H     H_    0.625399 0.624536 0.452300 0.197772
H53   H     H_    0.635754 0.196754 0.950691 0.397344
H54   H     H_    0.705972 0.530139 0.861666 0.184705
H55   H     H_    0.829903 0.621565 0.873993 0.274278
H56   H     H_    0.767624 0.702505 0.632918 -0.188748
H57   H     H_    0.219756 0.760373 0.060735 0.382169
H58   H     H_    0.436088 0.546218 0.132579 0.217603
H59   H     H_    0.554964 0.640104 0.157428 0.201879
H60   H     H_    0.532925 0.586315 0.796344 0.369808
H61   H     H_    0.978414 0.695339 0.610925 0.094484
H62   H     H_    0.732034 0.278266 0.772130 0.048667
H63   H     H_    0.817303 0.842701 0.675126 0.144504
N1    N     N_3   0.305181 0.819012 0.844809 -0.383644
N2    N     N_3   0.291226 0.327255 0.193188 -0.463567
N3    N     N_3   0.069398 0.848964 0.665197 -0.469017
N4    N     N_3   0.379047 0.893066 0.604393 -0.416865
N5    N     N_3   0.723451 0.659995 0.480231 -0.476249
N6    N     N_3   0.784473 0.565890 0.834645 -0.468741
N7    N     N_3   0.555373 0.574578 0.133036 -0.461396
O1    O     O_2   0.558990 0.288510 0.428270 -0.432658
O2    O     O_2   0.264745 0.558155 0.262622 -0.462575
O3    O     O_3   0.422536 0.706520 0.290504 -0.579654
O4    O     O_3   0.341190 0.396600 0.446070 -0.513000
O5    O     O_3   0.948410 0.543360 0.590820 -0.521388
O6    O     O_2   0.117990 0.459640 0.323300 -0.441408
O7    O     O_3   0.921658 0.317105 0.278269 -0.615820
O8    O     O_2   0.153198 0.804230 0.505942 -0.466647
O9    O     O_3   0.095132 0.784832 0.369353 -0.573807
O10   O     O_3   0.809080 0.340350 0.563320 -0.487749
O11   O     O_2   0.650703 0.194221 0.493783 -0.437396
O12   O     O_3   0.891421 0.677438 0.710536 -0.566973
O13   O     O_3   0.400681 0.279753 0.313958 -0.590680
O14   O     O_3   0.732731 0.211412 0.627065 -0.580080
O15   O     O_2   0.692320 0.540420 0.676730 -0.443341
O16   O     O_3   0.406060 0.383660 0.606030 -0.472428
O17   O     O_2   0.525028 0.431150 0.738332 -0.452537
O18   O     O_2   0.736793 0.746202 0.848928 -0.304909
O19   O     O_2   0.637076 0.870716 0.940200 -0.167651
O20   O     O_3   0.479558 0.727013 0.930469 -0.425012
O21   O     O_2   0.727751 0.926553 0.826788 -0.217554
O22   O     O_2   0.565768 0.894011 0.719397 -0.355585
O23   O     O_3   0.380255 0.277019 0.696925 -0.573734
O24   O     O_3   0.441867 0.979151 0.844723 -0.462515
O25   O     O_2   0.720987 0.061870 0.679292 -0.332371
O26   O     O_2   0.802132 0.100429 0.807006 -0.195197
O27   O     O_3   0.523640 0.141383 0.783330 -0.476397
O28   O     O_2   0.341642 0.008849 0.291845 -0.287726
O29   O     O_2   0.523739 0.139851 0.316341 -0.283655
O30   O     O_3   0.536506 0.043813 0.399046 -0.535445
O31   O     O_2   0.781745 0.298722 0.076863 -0.304148
O32   O     O_2   0.534741 0.343855 0.044153 -0.314097
O33   O     O_3   0.703107 0.244744 0.939602 -0.451602
O34   O     O_2   0.251320 0.711540 0.571760 -0.427360
O35   O     O_2   0.164867 0.648809 0.904170 -0.188776
O36   O     O_2   0.961222 0.725959 0.990003 -0.280275
O37   O     O_3   0.220145 0.697741 0.043829 -0.497243
O38   O     O_2   0.182854 0.647929 0.763358 -0.338959
O39   O     O_2   0.370485 0.562130 0.675538 -0.335115
O40   O     O_3   0.422540 0.599648 0.814036 -0.458833
O41   O     O_3   0.469110 0.603410 0.553990 -0.480158
O42   O     O_3   0.001220 0.659660 0.436740 -0.436034
O43   O     O_3   0.377901 0.744450 0.686381 -0.622054
O44   O     O_3   0.861890 0.456640 0.409240 -0.502798
O45   O     O_3   0.404240 0.616350 0.394030 -0.511687
P1    P     P_3+3 0.391560 0.302240 0.409860 1.056971
P2    P     P_3+3 0.873530 0.566630 0.670640 1.107049
P3    P     P_3+3 0.373280 0.381420 0.696447 1.066215
P4    P     P_3+3 0.418740 0.697770 0.590200 1.098179
P5    P     P_3+3 0.423375 0.605571 0.299375 0.975658
P6    P     P_3+3 0.795697 0.231286 0.544278 0.986527
P7    P     P_3+3 0.931729 0.427700 0.316453 0.981551
P8    P     P_3+3 0.016746 0.767642 0.451421 0.993952
S1    S     S_3+6 0.587134 0.786844 0.884013 0.018178
S2    S     S_3+6 0.558309 0.901441 0.799195 -0.012946
S3    S     S_3+6 0.717208 0.128534 0.753504 -0.013646
S4    S     S_3+6 0.419518 0.082297 0.351632 -0.060763
S5    S     S_3+6 0.705911 0.324852 0.019495 -0.061668
S6    S     S_3+6 0.081593 0.661768 0.978042 -0.039034
S7    S     S_3+6 0.356832 0.631158 0.747591 -0.083835

loop_
_geom_bond_atom_site_label_1
_geom_bond_atom_site_label_2
_ccdc_geom_bond_type
C39   S1    S    
O28   S4    D    
Ba2   P4    S    
H58   N7    S    
C43   N3    S    
C23   H6    S    
C39   N1    S    
C25   H28   S    
Ba2   O42   S    
C35   P7    S    
C29   H30   S    
O42   P8    S    
C25   C31   A    
C13   C17   A    
O1    P1    D    
O11   P6    D    
O8    P8    D    
C16   H36   S    
H48   N4    S    
C40   O13   S    
H51   N5    S    
C26   C27   A    
O5    P2    S    
Ba1   O5    S    
C32   C33   A    
C35   C38   A    
C34   H8    S    
C15   P1    S    
H43   N2    S    
C36   C37   A    
C1    H4    S    
Ba1   P2    S    
Ba1   Ba2   S    
O37   S6    S    
O39   S7    D    
O38   S7    D    
O40   S7    S    
C41   N2    S    
O33   S5    S    
C2    C17   A    
H53   O33   S    
C29   C30   A    
Ba1   O44   S    
C6    C7    S    
C21   C31   S    
C47   H22   S    
O26   S3    D    
O18   S1    D    
C41   H45   S    
C21   C22   A    
O12   P2    S    
C30   S6    S    
Ba1   O16   S    
C7    C8    S    
C40   H12   S    
C45   H16   S    
C2    H24   S    
H52   N5    S    
H54   N6    S    
O41   P4    S    
C34   H9    S    
C39   S2    S    
Ba1   O41   S    
Ba2   O34   S    
C47   H19   S    
C19   C20   A    
O32   S5    D    
C41   H34   S    
H47   O27   S    
O9    P8    S    
C20   N6    S    
C28   O43   S    
O43   P4    S    
Ba2   O41   S    
H57   O37   S    
O35   S6    D    
C32   N7    S    
C4    H21   S    
C4    C16   S    
C16   H35   S    
C44   H11   S    
C32   C37   A    
C38   H32   S    
Ba1   O10   S    
Ba2   O44   S    
C45   H14   S    
C3    C5    D    
H44   N3    S    
O27   S3    S    
C14   C15   A    
O31   S5    D    
O16   P3    S    
C43   H2    S    
H50   O30   S    
O7    P7    S    
C4    O23   S    
O34   P4    D    
C3    N4    S    
C22   H31   S    
Ba2   O5    S    
C35   C36   A    
H49   N4    S    
C12   H1    S    
O25   S3    D    
C1    H62   S    
C24   P3    S    
C27   C37   S    
O29   S4    D    
C28   C39   S    
C44   C45   S    
C46   H18   S    
C7    C9    S    
Ba2   O45   S    
C1    C12   S    
O30   S4    S    
O4    P1    S    
C2    C15   A    
Ba2   O6    S    
C16   H10   S    
C46   C47   S    
C34   H7    S    
C10   C13   S    
C42   H56   S    
C47   H20   S    
C5    P4    S    
C10   H26   S    
C46   O9    S    
O44   P7    S    
C40   C41   S    
C6    C48   D    
H60   O40   S    
C14   S4    S    
O10   P6    S    
H41   O24   S    
O45   P5    S    
H39   N1    S    
C40   H23   S    
O15   P2    D    
C48   N5    S    
H46   N3    S    
C42   C43   S    
C23   H5    S    
C5    C48   S    
C17   P6    S    
C18   H33   S    
H40   O20   S    
C9    C10   D    
O22   S2    D    
C36   H27   S    
Ba2   O4    S    
C42   O12   S    
C12   O14   S    
C19   P2    S    
C44   H13   S    
O14   P6    S    
C30   C31   A    
C11   C13   A    
C33   C38   A    
C23   O7    S    
Ba1   O4    S    
C3    C8    S    
C27   C29   A    
C9    H25   S    
O13   P1    S    
C22   C24   A    
C4    H29   S    
C18   C24   A    
Ba1   P1    S    
O24   S2    S    
O36   S6    D    
C46   H17   S    
H38   N1    S    
C44   O3    S    
H42   N2    S    
Ba1   O1    S    
O23   P3    S    
O3    P5    S    
O6    P7    D    
C23   C34   S    
C42   H61   S    
C43   H63   S    
C1    S3    S    
C12   H3    S    
C18   C19   A    
O20   S1    S    
C11   C14   A    
C25   C26   A    
O21   S2    D    
C33   P5    S    
C28   S7    S    
C20   C21   A    
H55   N6    S    
O19   S1    D    
C6    P8    S    
O2    P5    D    
C28   H37   S    
Ba1   O15   S    
C26   S5    S    
C45   H15   S    
O17   P3    D    
H59   N7    S    
