data_mof_unit_62177.cif
_audit_creation_date              2012-12-10T16:55:19-0500
_audit_creation_method            fapswitch 2.2
_symmetry_space_group_name_H-M    P1
_symmetry_Int_Tables_number       1
_space_group_crystal_system       triclinic
_cell_length_a                    29.346069
_cell_length_b                    30.541139
_cell_length_c                    21.507657
_cell_angle_alpha                 90.625833
_cell_angle_beta                  133.590389
_cell_angle_gamma                 89.127351
_cell_volume                      13960.1095601

loop_
_atom_site_label
_atom_site_type_symbol
_atom_type_description
_atom_site_fract_x
_atom_site_fract_y
_atom_site_fract_z
_atom_type_partial_charge
C1    C     C_R   0.308257 0.190544 0.117806 0.795871
C2    C     C_R   0.633279 0.873296 0.689616 0.065339
C3    C     C_R   0.239805 0.888213 0.103641 -0.157784
C4    C     C_R   0.793821 0.689317 0.237706 -0.156999
C5    C     C_R   0.261855 0.363872 0.866252 -0.154563
C6    C     C_R   0.259904 0.612338 0.896078 -0.155015
C7    C     C_R   0.740656 0.388319 0.104000 -0.157892
C8    C     C_R   0.290451 0.190934 0.299075 -0.133298
C9    C     C_R   0.709561 0.809072 0.700939 -0.133833
C10   C     C_R   0.789474 0.072281 0.907487 -0.139253
C11   C     C_R   0.210521 0.927712 0.092520 -0.139188
C12   C     C_R   0.789847 0.690664 0.298379 -0.134026
C13   C     C_R   0.659599 0.084206 0.764546 0.059538
C14   C     C_R   0.296447 0.390528 0.860081 -0.130391
C15   C     C_R   0.289021 0.572629 0.908037 -0.140633
C16   C     C_R   0.711500 0.427936 0.092605 -0.140422
C17   C     C_R   0.324736 0.161227 0.366162 -0.142128
C18   C     C_R   0.675274 0.838778 0.633850 -0.142422
C19   C     C_R   0.754295 0.038136 0.849789 -0.132338
C20   C     C_R   0.245698 0.961858 0.150217 -0.132217
C21   C     C_R   0.824102 0.660965 0.365473 -0.142314
C22   C     C_R   0.266359 0.423359 0.798984 -0.166111
C23   C     C_R   0.253554 0.538237 0.851349 -0.136481
C24   C     C_R   0.340398 0.915792 0.235455 0.059528
C25   C     C_R   0.746760 0.462079 0.150218 -0.133809
C26   C     C_R   0.362288 0.129548 0.372096 -0.183935
C27   C     C_R   0.637718 0.870454 0.627911 -0.183753
C28   C     C_R   0.690066 0.043863 0.778871 -0.169021
C29   C     C_R   0.309928 0.956134 0.221132 -0.168920
C30   C     C_R   0.861902 0.629401 0.371695 -0.183649
C31   C     C_R   0.201523 0.429573 0.743408 -0.179738
C32   C     C_R   0.189331 0.544052 0.780277 -0.157782
C33   C     C_R   0.810894 0.456198 0.221391 -0.168242
C34   C     C_3   0.429313 0.053357 0.233409 -0.379833
C35   C     C_R   0.866541 0.626626 0.310184 0.065163
C36   C     C_3   0.493371 0.065221 0.266942 -0.784298
C37   C     C_3   0.570665 0.946632 0.766575 -0.380111
C38   C     C_3   0.506596 0.934767 0.733005 -0.783636
C39   C     C_3   0.497081 0.141865 0.601940 -0.384139
C40   C     C_3   0.454652 0.129155 0.616059 -0.806237
C41   C     C_3   0.502921 0.858140 0.398058 -0.383450
C42   C     C_3   0.545345 0.870853 0.383931 -0.807970
C43   C     C_3   0.929478 0.553424 0.233531 -0.379739
C44   C     C_3   0.993546 0.565321 0.267130 -0.783341
C45   C     C_3   0.991260 0.373039 0.629438 -0.370528
C46   C     C_R   0.164017 0.402255 0.746207 0.067250
C47   C     C_3   0.962909 0.356073 0.541937 -0.795981
C48   C     C_3   0.996932 0.642317 0.601029 -0.385227
C49   C     C_3   0.954329 0.629931 0.615007 -0.806099
C50   C     C_3   0.003828 0.357638 0.400940 -0.393635
C51   C     C_3   0.046362 0.366260 0.385371 -0.787728
C52   C     C_R   0.159191 0.584579 0.764772 0.062853
C53   C     C_R   0.841208 0.415696 0.236069 0.061503
C54   C     C_R   0.332993 0.158168 0.243722 0.096186
C55   C     C_R   0.667011 0.841834 0.756283 0.096302
C56   C     C_R   0.694534 0.117720 0.826893 0.097152
C57   C     C_R   0.691743 0.809456 0.882194 0.796181
C58   C     C_R   0.305464 0.882277 0.173109 0.097190
C59   C     C_R   0.832826 0.658085 0.243507 0.096328
C60   C     C_R   0.195911 0.369551 0.810566 0.094082
C61   C     C_R   0.194197 0.618171 0.826684 0.094936
C62   C     C_R   0.806289 0.382254 0.173653 0.096400
C63   C     C_R   0.337496 0.157048 0.182746 -0.131342
C64   C     C_R   0.662503 0.842951 0.817254 -0.131408
C65   C     C_R   0.662847 0.156400 0.816916 -0.141285
C66   C     C_R   0.337153 0.843599 0.183085 -0.141114
C67   C     C_R   0.837518 0.657045 0.182727 -0.131315
C68   C     C_R   0.693484 0.190387 0.882168 0.797394
C69   C     C_R   0.161201 0.342431 0.816998 -0.120316
C70   C     C_R   0.162496 0.656727 0.816627 -0.140479
C71   C     C_R   0.837912 0.343525 0.183728 -0.143256
C72   C     C_R   0.369705 0.123483 0.182250 -0.225273
C73   C     C_R   0.630285 0.876512 0.817742 -0.225144
C74   C     C_R   0.599183 0.162643 0.744424 -0.220017
C75   C     C_R   0.400819 0.837357 0.255576 -0.220070
C76   C     C_R   0.869851 0.623537 0.182357 -0.225236
C77   C     C_R   0.096224 0.344944 0.758732 -0.236267
C78   C     C_R   0.098867 0.663062 0.743889 -0.219431
C79   C     C_R   0.306517 0.809612 0.117832 0.797127
C80   C     C_R   0.901556 0.337059 0.256994 -0.216208
C81   C     C_R   0.401352 0.091123 0.244800 0.141251
C82   C     C_R   0.598637 0.908872 0.755191 0.141271
C83   C     C_R   0.565082 0.131277 0.680275 0.137740
C84   C     C_R   0.434918 0.868724 0.319724 0.137864
C85   C     C_R   0.901458 0.591163 0.244878 0.141136
C86   C     C_R   0.062777 0.375639 0.693183 0.144553
C87   C     C_R   0.064844 0.631722 0.679609 0.136368
C88   C     C_R   0.935695 0.368361 0.321584 0.133913
C89   C     C_R   0.402963 0.093669 0.312256 -0.161140
C90   C     C_R   0.808286 0.690543 0.117802 0.796145
C91   C     C_R   0.597035 0.906330 0.687743 -0.161142
C92   C     C_R   0.595152 0.091749 0.690015 -0.145297
C93   C     C_R   0.404846 0.908251 0.309984 -0.145344
C94   C     C_R   0.902938 0.593658 0.312220 -0.161551
C95   C     C_R   0.096521 0.405975 0.687866 -0.152581
C96   C     C_R   0.094879 0.592098 0.689730 -0.141947
C97   C     C_R   0.905468 0.407961 0.311074 -0.146914
C98   C     C_R   0.939846 0.440258 0.379582 0.805232
C99   C     C_R   0.060310 0.559730 0.620739 0.816765
C100  C     C_R   0.061296 0.440133 0.621248 0.817164
C101  C     C_R   0.191414 0.309313 0.882235 0.796884
C102  C     C_R   0.939907 0.561057 0.381330 0.805741
C103  C     C_R   0.439537 0.940477 0.379001 0.812718
C104  C     C_R   0.560461 0.059524 0.620996 0.812705
C105  C     C_R   0.560086 0.938942 0.618661 0.805654
C106  C     C_R   0.439914 0.061058 0.381340 0.805608
C107  C     C_R   0.334488 0.249905 0.999856 0.784075
C108  C     C_R   0.665531 0.750081 0.000182 0.784969
C109  C     C_R   0.665233 0.250178 0.999578 0.793214
C110  C     C_R   0.334772 0.749827 0.000432 0.792223
C111  C     C_R   0.834468 0.749919 0.999817 0.784947
C112  C     C_R   0.193218 0.690461 0.882118 0.798218
C113  C     C_R   0.165531 0.250079 0.000182 0.782797
C114  C     C_R   0.165228 0.750172 0.999567 0.792051
C115  C     C_R   0.834772 0.249827 0.000432 0.792107
C116  C     C_1   0.385497 0.250051 0.999308 -0.194020
C117  C     C_1   0.614529 0.749967 0.000744 -0.194437
C118  C     C_1   0.613494 0.250601 0.998699 -0.193170
C119  C     C_1   0.386522 0.749420 0.001334 -0.192856
C120  C     C_1   0.885471 0.750033 0.999256 -0.194177
C121  C     C_1   0.114527 0.249963 0.000741 -0.194472
C122  C     C_1   0.113478 0.750580 0.998665 -0.191985
C123  C     C_R   0.806981 0.309623 0.118023 0.796356
C124  C     C_1   0.886521 0.249418 0.001332 -0.192505
C125  C     C_1   0.427815 0.250239 0.998958 -0.003717
C126  C     C_1   0.572219 0.749808 0.001112 -0.003524
C127  C     C_1   0.570877 0.250677 0.998472 -0.002843
C128  C     C_1   0.429148 0.749360 0.001580 -0.002803
C129  C     C_1   0.927781 0.750192 0.998888 -0.003175
C130  C     C_1   0.072216 0.249803 0.001106 -0.003677
C131  C     C_1   0.070852 0.750640 0.998420 -0.002189
C132  C     C_1   0.929146 0.249356 0.001577 -0.002474
C133  C     C_1   0.478066 0.250453 0.998658 -0.001148
C134  C     C_R   0.366725 0.126705 0.310388 0.065324
C135  C     C_1   0.521971 0.749605 0.001418 -0.000894
C136  C     C_1   0.520486 0.250595 0.998502 -0.000439
C137  C     C_1   0.479548 0.749459 0.001568 -0.000404
C138  C     C_1   0.978029 0.750394 0.998582 -0.000398
C139  C     C_1   0.021968 0.249599 0.001412 -0.000734
C140  C     C_1   0.020452 0.750541 0.998432 0.000183
C141  C     C_1   0.979545 0.249453 0.001563 -0.000079
C142  C     C_R   0.294173 0.189486 0.238149 -0.156944
C143  C     C_R   0.705836 0.810519 0.761862 -0.156911
C144  C     C_R   0.760192 0.111782 0.896364 -0.157951
Cu1   Cu    Cu3+1 0.280720 0.280980 0.061500 0.952958
Cu2   Cu    Cu3+1 0.957580 0.500000 0.500070 0.924301
Cu3   Cu    Cu3+1 0.542420 0.000000 0.499930 0.926368
Cu4   Cu    Cu3+1 0.457580 0.000000 0.500070 0.926804
Cu5   Cu    Cu3+1 0.719280 0.719020 0.938500 0.952288
Cu6   Cu    Cu3+1 0.719280 0.280980 0.938500 0.948623
Cu7   Cu    Cu3+1 0.280720 0.719020 0.061500 0.950136
Cu8   Cu    Cu3+1 0.780720 0.780980 0.061500 0.952421
Cu9   Cu    Cu3+1 0.219280 0.219020 0.938500 0.954572
Cu10  Cu    Cu3+1 0.219280 0.780980 0.938500 0.948361
Cu11  Cu    Cu3+1 0.780720 0.219020 0.061500 0.947906
Cu12  Cu    Cu3+1 0.042420 0.500000 0.499930 0.926353
H1    H     H_    0.370100 0.122500 0.132159 0.152729
H2    H     H_    0.734683 0.787324 0.814057 0.140190
H3    H     H_    0.789862 0.137562 0.941983 0.147401
H4    H     H_    0.210137 0.862432 0.058022 0.147377
H5    H     H_    0.765008 0.712511 0.185505 0.140028
H6    H     H_    0.287369 0.338434 0.914430 0.133005
H7    H     H_    0.289678 0.638304 0.941051 0.146714
H8    H     H_    0.710855 0.362553 0.058462 0.147886
H9    H     H_    0.260585 0.215066 0.293937 0.136155
H10   H     H_    0.739431 0.784942 0.706082 0.135464
H11   H     H_    0.839643 0.068081 0.961397 0.135699
H12   H     H_    0.629883 0.877491 0.867826 0.152659
H13   H     H_    0.160351 0.931910 0.038613 0.135630
H14   H     H_    0.759814 0.714715 0.293042 0.135435
H15   H     H_    0.346789 0.385724 0.902964 0.136416
H16   H     H_    0.339181 0.568400 0.961975 0.135366
H17   H     H_    0.661370 0.432223 0.038547 0.134954
H18   H     H_    0.321513 0.162392 0.413321 0.130842
H19   H     H_    0.678497 0.837613 0.586691 0.130213
H20   H     H_    0.776976 0.007221 0.859464 0.137665
H21   H     H_    0.223015 0.992771 0.140545 0.137662
H22   H     H_    0.820657 0.662054 0.412408 0.129966
H23   H     H_    0.575463 0.192401 0.737824 0.161167
H24   H     H_    0.293472 0.444381 0.794664 0.132749
H25   H     H_    0.276087 0.507123 0.862231 0.143510
H26   H     H_    0.724209 0.493099 0.140330 0.137529
H27   H     H_    0.386305 0.107647 0.425376 0.168754
H28   H     H_    0.613699 0.892354 0.574629 0.168700
H29   H     H_    0.664774 0.016219 0.736221 0.143031
H30   H     H_    0.335219 0.983778 0.263782 0.143025
H31   H     H_    0.885947 0.607537 0.425043 0.168832
H32   H     H_    0.183559 0.456275 0.699814 0.163266
H33   H     H_    0.163254 0.516462 0.738491 0.129057
H34   H     H_    0.424540 0.807601 0.262175 0.160960
H35   H     H_    0.836218 0.483855 0.263981 0.143720
H36   H     H_    0.526554 0.074373 0.335845 0.265546
H37   H     H_    0.513251 0.036683 0.259630 0.232163
H38   H     H_    0.488448 0.093117 0.229898 0.239693
H39   H     H_    0.433066 0.022868 0.264292 0.205624
H40   H     H_    0.397221 0.045028 0.164085 0.191753
H41   H     H_    0.486708 0.963302 0.740312 0.232253
H42   H     H_    0.473425 0.925622 0.664100 0.265647
H43   H     H_    0.511503 0.906865 0.770027 0.239690
H44   H     H_    0.602742 0.954953 0.835899 0.191717
H45   H     H_    0.870352 0.622599 0.132365 0.152635
H46   H     H_    0.566926 0.977125 0.735712 0.205663
H47   H     H_    0.404902 0.136592 0.557681 0.224427
H48   H     H_    0.459200 0.093667 0.630143 0.266334
H49   H     H_    0.467379 0.148051 0.670544 0.245420
H50   H     H_    0.491085 0.177510 0.587677 0.197304
H51   H     H_    0.482482 0.125411 0.544648 0.191791
H52   H     H_    0.540715 0.906326 0.369701 0.266475
H53   H     H_    0.595108 0.863484 0.442356 0.224237
H54   H     H_    0.532681 0.851903 0.329534 0.245005
H55   H     H_    0.517520 0.874598 0.455347 0.191824
H56   H     H_    0.071368 0.322085 0.764550 0.140849
H57   H     H_    0.508925 0.822497 0.412333 0.197113
H58   H     H_    0.026689 0.574473 0.336029 0.265337
H59   H     H_    0.013465 0.536798 0.259850 0.232581
H60   H     H_    0.988628 0.593226 0.230106 0.239644
H61   H     H_    0.933228 0.522922 0.264381 0.206283
H62   H     H_    0.897421 0.545102 0.164210 0.191737
H63   H     H_    0.911235 0.352735 0.498728 0.238926
H64   H     H_    0.971694 0.378830 0.511606 0.245032
H65   H     H_    0.983365 0.323476 0.548985 0.242827
H66   H     H_    0.976614 0.350057 0.652584 0.186010
H67   H     H_    0.075156 0.692848 0.737190 0.161137
H68   H     H_    0.969741 0.404729 0.623597 0.219549
H69   H     H_    0.904663 0.637568 0.556649 0.223827
H70   H     H_    0.958538 0.594445 0.628901 0.266772
H71   H     H_    0.967180 0.648858 0.669545 0.245480
H72   H     H_    0.991090 0.677923 0.586531 0.197646
H73   H     H_    0.982393 0.625629 0.543942 0.191066
H74   H     H_    0.042910 0.401166 0.368464 0.262172
H75   H     H_    0.095946 0.358675 0.444523 0.236329
H76   H     H_    0.032809 0.345230 0.332447 0.241187
H77   H     H_    0.021076 0.376430 0.457980 0.204409
H78   H     H_    0.925170 0.307155 0.263956 0.161849
H79   H     H_    0.008301 0.322594 0.418120 0.194720
H80   H     H_    0.265326 0.212682 0.185955 0.140420
O1    O     O_R   0.321010 0.231060 0.142100 -0.579366
O2    O     O_R   0.730960 0.821350 0.961860 -0.578705
O3    O     O_R   0.730960 0.178650 0.961860 -0.583714
O4    O     O_R   0.269040 0.821350 0.038140 -0.583805
O5    O     O_R   0.769040 0.678650 0.038140 -0.578746
O6    O     O_R   0.230960 0.321350 0.961860 -0.580427
O7    O     O_R   0.230960 0.678650 0.961860 -0.582771
O8    O     O_R   0.769040 0.321350 0.038140 -0.583449
O9    O     O_R   0.337910 0.276140 0.051940 -0.567010
O10   O     O_R   0.662090 0.723860 0.948060 -0.558176
O11   O     O_R   0.662090 0.276140 0.948060 -0.573493
O12   O     O_R   0.678990 0.768940 0.857900 -0.579726
O13   O     O_R   0.337910 0.723860 0.051940 -0.573808
O14   O     O_R   0.837910 0.776140 0.051940 -0.558095
O15   O     O_R   0.162090 0.223860 0.948060 -0.562273
O16   O     O_R   0.162090 0.776140 0.948060 -0.574188
O17   O     O_R   0.837910 0.223860 0.051940 -0.573899
O18   O     O_R   0.285940 0.223740 0.947980 -0.562413
O19   O     O_R   0.714060 0.776260 0.052020 -0.572995
O20   O     O_R   0.714060 0.223740 0.052020 -0.557766
O21   O     O_R   0.285940 0.776260 0.947980 -0.557607
O22   O     O_R   0.785940 0.723740 0.947980 -0.573032
O23   O     O_R   0.678990 0.231060 0.857900 -0.578889
O24   O     O_R   0.214060 0.276260 0.052020 -0.569540
O25   O     O_R   0.214060 0.723740 0.052020 -0.557320
O26   O     O_R   0.785940 0.276260 0.947980 -0.557794
O27   O     O_R   0.990910 0.454660 0.410130 -0.580247
O28   O     O_R   0.009090 0.545340 0.589870 -0.585152
O29   O     O_R   0.009090 0.454660 0.589870 -0.581471
O30   O     O_R   0.990910 0.545340 0.410130 -0.574453
O31   O     O_R   0.490910 0.954660 0.410130 -0.588213
O32   O     O_R   0.509090 0.045340 0.589870 -0.588173
O33   O     O_R   0.509090 0.954660 0.589870 -0.574534
O34   O     O_R   0.321010 0.768940 0.142100 -0.578883
O35   O     O_R   0.490910 0.045340 0.410130 -0.574619
O36   O     O_R   0.919170 0.454670 0.410130 -0.586065
O37   O     O_R   0.080830 0.545330 0.589870 -0.592273
O38   O     O_R   0.080830 0.454670 0.589870 -0.607341
O39   O     O_R   0.919170 0.545330 0.410130 -0.606768
O40   O     O_R   0.419170 0.954670 0.410130 -0.584725
O41   O     O_R   0.580830 0.045330 0.589870 -0.584881
O42   O     O_R   0.580830 0.954670 0.589870 -0.606949
O43   O     O_R   0.419170 0.045330 0.410130 -0.606875
O44   O     O_R   0.821010 0.731060 0.142100 -0.579673
O45   O     O_R   0.178990 0.268940 0.857900 -0.575622
O46   O     O_R   0.178990 0.731060 0.857900 -0.579819
O47   O     O_R   0.821010 0.268940 0.142100 -0.579353
O48   O     O_R   0.269040 0.178650 0.038140 -0.579245

loop_
_geom_bond_atom_site_label_1
_geom_bond_atom_site_label_2
_ccdc_geom_bond_type
C34   H39   S    
C61   C70   A    
Cu9   O18   S    
C96   C99   S    
Cu5   O10   S    
Cu10  O4    S    
C70   C78   A    
C44   H59   S    
Cu11  O17   S    
C41   C42   S    
C91   C105  S    
C69   C77   A    
Cu3   Cu4   S    
C121  C130  T    
C43   C44   S    
C122  C131  T    
C93   C103  S    
C54   C63   A    
Cu8   O14   S    
C97   C98   S    
C9    C143  A    
Cu7   O13   S    
Cu7   O34   S    
C76   H45   S    
C36   H37   S    
C111  O14   A    
C66   C79   S    
Cu9   O15   S    
C1    O48   A    
C30   C35   A    
C57   C64   S    
C44   H58   S    
C45   H66   S    
C6    C61   A    
C35   C59   A    
C9    H10   S    
C114  O25   A    
C103  O40   A    
C23   H25   S    
C52   C61   A    
C73   H12   S    
C48   H72   S    
C75   C84   A    
C37   H44   S    
C26   H27   S    
C100  O29   A    
C34   H40   S    
C56   C65   A    
C54   C134  A    
C39   H50   S    
C108  O10   A    
C21   C30   A    
C16   C25   A    
C80   C88   A    
C29   H30   S    
C124  C132  T    
C90   O44   A    
C85   C94   A    
Cu7   Cu10  S    
Cu5   O5    S    
Cu1   O24   S    
C24   C29   A    
C32   C52   A    
Cu3   O35   S    
C131  C140  S    
Cu8   O44   S    
C77   H56   S    
C59   C67   A    
C6    C15   A    
C19   H20   S    
C98   O27   A    
C58   C66   A    
C112  O7    A    
C129  C138  S    
C40   H48   S    
C5    H6    S    
C10   H11   S    
C31   C46   A    
C39   H51   S    
C31   H32   S    
C62   C71   A    
C133  C136  T    
C65   C74   A    
C64   C73   A    
C38   H42   S    
C13   C28   A    
Cu2   O28   S    
C2    C27   A    
C89   C134  A    
C34   C81   S    
C103  O31   A    
C102  O39   A    
C4    C12   A    
C117  C126  T    
C74   C83   A    
C111  O22   A    
Cu12  O38   S    
C57   O2    A    
C42   H54   S    
C50   C88   S    
C78   H67   S    
C84   C93   A    
C13   C56   A    
C81   C89   A    
C119  C128  T    
C26   C134  A    
C142  H80   S    
C47   H65   S    
C110  C119  S    
Cu11  O3    S    
C106  O35   A    
C36   H36   S    
C27   H28   S    
Cu9   O48   S    
C105  O33   A    
C105  O42   A    
C43   H61   S    
C79   O4    A    
C57   O12   A    
C47   H63   S    
C130  C139  S    
C1    C63   S    
C123  O8    A    
Cu3   O41   S    
C109  C118  S    
C71   C123  S    
C36   H38   S    
C20   C29   A    
C45   C47   S    
C110  O13   A    
C99   O37   A    
Cu6   O11   S    
Cu5   O22   S    
C11   C20   A    
C38   H41   S    
C79   O34   A    
C55   C143  A    
C22   C31   A    
C46   C95   A    
C51   H75   S    
C74   H23   S    
C43   C85   S    
C80   H78   S    
C75   H34   S    
C2    C91   A    
C33   C53   A    
C110  O21   A    
C22   H24   S    
Cu2   O39   S    
C86   C95   A    
Cu5   Cu8   S    
C39   C40   S    
C92   C104  S    
C95   C100  S    
C56   C144  A    
C12   H14   S    
C1    O1    A    
C41   C84   S    
Cu9   O45   S    
C12   C21   A    
C67   C90   S    
C82   C91   A    
C120  C129  T    
C107  O18   A    
C100  O38   A    
C111  C120  S    
C114  C122  S    
C89   C106  S    
C50   H77   S    
C128  C137  S    
C7    C62   A    
C37   C38   S    
C83   C92   A    
C115  O26   A    
Cu6   O23   S    
C68   O23   A    
Cu12  O27   S    
C41   H57   S    
C53   C62   A    
C98   O36   A    
C115  O17   A    
C40   H47   S    
C10   C19   A    
C16   H17   S    
C65   C68   S    
C114  O16   A    
C55   C64   A    
Cu4   O40   S    
C50   C51   S    
C5    C14   A    
C48   C87   S    
Cu2   Cu12  S    
Cu2   O29   S    
C112  O46   A    
C127  C136  S    
C144  H3    S    
C42   H52   S    
C19   C28   A    
Cu10  O21   S    
C94   C102  S    
Cu12  O37   S    
C42   H53   S    
C138  C140  T    
Cu6   O26   S    
C48   H73   S    
Cu3   O31   S    
C21   H22   S    
C54   C142  A    
Cu12  O30   S    
C77   C86   A    
C11   H13   S    
Cu5   O12   S    
Cu6   Cu11  S    
C13   C92   A    
C3    H4    S    
C37   C82   S    
Cu10  O46   S    
C116  C125  T    
C49   H71   S    
C118  C127  T    
C17   C26   A    
C49   H69   S    
C101  O6    A    
C78   C87   A    
C73   C82   A    
Cu3   O42   S    
C25   H26   S    
C143  H2    S    
C47   H64   S    
C35   C94   A    
C125  C133  S    
C132  C141  S    
C135  C137  T    
C40   H49   S    
C7    C16   A    
C115  C124  S    
C109  O20   A    
C5    C60   A    
C46   C60   A    
C51   H76   S    
C44   H60   S    
C45   H68   S    
Cu4   O33   S    
C107  O9    A    
C18   C27   A    
C72   C81   A    
C17   H18   S    
C14   H15   S    
C68   O3    A    
C104  O41   A    
C126  C135  S    
Cu8   O19   S    
C71   C80   A    
C87   C96   A    
C9    C18   A    
C20   H21   S    
C106  O43   A    
C69   C101  S    
Cu1   O1    S    
C113  C121  S    
C7    H8    S    
C37   H46   S    
C8    C17   A    
C113  O15   A    
Cu4   O43   S    
Cu1   O9    S    
C2    C55   A    
C53   C97   A    
C30   H31   S    
C14   C22   A    
C23   C32   A    
Cu2   O36   S    
C45   C86   S    
C88   C97   A    
C33   H35   S    
Cu1   O6    S    
C108  O19   A    
C15   C23   A    
C123  O47   A    
C24   C93   A    
C18   H19   S    
C139  C141  T    
Cu4   O32   S    
C99   O28   A    
Cu10  O16   S    
C60   C69   A    
C48   C49   S    
C66   C75   A    
C108  C117  S    
C4    C59   A    
Cu6   O8    S    
C63   C72   A    
Cu1   Cu9   S    
C15   H16   S    
C52   C96   A    
C34   C36   S    
C43   H62   S    
C104  O32   A    
C50   H79   S    
C70   C112  S    
C101  O45   A    
C107  C116  S    
C39   C83   S    
C3    C11   A    
C8    H9    S    
Cu7   O25   S    
Cu7   O7    S    
C41   H55   S    
C3    C58   A    
C32   H33   S    
Cu8   O2    S    
C6    H7    S    
C109  O11   A    
C24   C58   A    
C102  O30   A    
C90   O5    A    
Cu11  O47   S    
C4    H5    S    
C8    C142  A    
C67   C76   A    
C72   H1    S    
C38   H43   S    
C49   H70   S    
C28   H29   S    
C76   C85   A    
C10   C144  A    
C113  O24   A    
C25   C33   A    
C51   H74   S    
Cu11  O20   S    
