data_mof_unit_11405.cif
_audit_creation_date              2013-03-05T17:02:05-0500
_audit_creation_method            fapswitch 2.2
_symmetry_space_group_name_H-M    P1
_symmetry_Int_Tables_number       1
_space_group_crystal_system       triclinic
_cell_length_a                    10.501318
_cell_length_b                    16.168786
_cell_length_c                    16.602279
_cell_angle_alpha                 88.225358
_cell_angle_beta                  90.84004
_cell_angle_gamma                 92.632839
_cell_volume                      2814.38637986

loop_
_atom_site_label
_atom_site_type_symbol
_atom_site_description
_atom_site_fract_x
_atom_site_fract_y
_atom_site_fract_z
_atom_type_partial_charge
O1    O     O_R   0.494440 0.422540 0.612660 -0.633427
O2    O     O_R   0.505560 0.577460 0.387340 -0.645068
O3    O     O_R   0.504420 0.561850 0.618900 -0.577045
O4    O     O_R   0.495580 0.438150 0.381100 -0.570728
C1    C     C_R   0.494363 0.489331 0.653345 0.904955
C2    C     C_R   0.505225 0.510728 0.346644 0.904473
O5    O     O_R   0.681060 0.430360 0.496900 -0.646717
O6    O     O_R   0.318940 0.569640 0.503100 -0.633450
O7    O     O_R   0.691040 0.569670 0.503140 -0.576615
O8    O     O_R   0.308960 0.430330 0.496860 -0.585264
C3    C     C_R   0.742651 0.500117 0.500579 0.887549
C4    C     C_R   0.257348 0.499841 0.499912 0.883311
Zn1   Zn    Zn3+2 0.493340 0.406980 0.495830 0.989810
Zn2   Zn    Zn3+2 0.506660 0.593020 0.504170 0.990059
C5    C     C_3   0.958250 0.462729 0.568489 0.028855
C6    C     C_3   0.041661 0.537224 0.432824 0.034210
C7    C     C_3   0.047797 0.540800 0.564800 -0.206637
C8    C     C_3   0.952245 0.459097 0.436493 -0.205710
H1    H     H_    0.091222 0.573361 0.617078 0.161787
H2    H     H_    0.908896 0.426488 0.384217 0.164886
C9    C     C_3   0.122610 0.499250 0.499919 -0.035015
C10   C     C_3   0.877398 0.500647 0.501287 -0.038471
C11   C     C_3   0.035277 0.420514 0.504389 -0.175727
C12   C     C_3   0.964661 0.579359 0.496930 -0.173154
H3    H     H_    0.068675 0.356328 0.506422 0.183135
H4    H     H_    0.931041 0.643486 0.495087 0.169707
C13   C     C_R   0.472342 0.483614 0.739612 -0.106905
C14   C     C_R   0.525642 0.516856 0.260252 -0.099657
C15   C     C_R   0.437366 0.554276 0.779285 -0.257982
C16   C     C_R   0.561983 0.446860 0.220092 -0.267288
C17   C     C_R   0.417898 0.551145 0.862083 0.306310
C18   C     C_R   0.579993 0.450549 0.137132 0.304206
C19   C     C_R   0.439538 0.476398 0.905331 0.231392
C20   C     C_R   0.555637 0.525142 0.094344 0.233495
C21   C     C_R   0.464552 0.404537 0.864989 -0.199196
C22   C     C_R   0.528912 0.596418 0.135111 -0.200007
C23   C     C_R   0.480344 0.407865 0.782129 -0.242002
C24   C     C_R   0.514486 0.592552 0.218054 -0.243637
N1    N     N_2   0.455033 0.475083 0.989276 -0.121191
N2    N     N_2   0.539824 0.526690 0.010446 -0.117904
H5    H     H_    0.577409 0.389447 0.253410 0.213917
H6    H     H_    0.424227 0.611854 0.745733 0.217461
H7    H     H_    0.479921 0.347246 0.898528 0.193267
H8    H     H_    0.511376 0.653593 0.101910 0.191140
H9    H     H_    0.504448 0.352299 0.752022 0.180839
H10   H     H_    0.489023 0.647600 0.248522 0.168759
N3    N     N_R   0.515540 0.716920 0.509720 -0.137528
N4    N     N_R   0.484460 0.283080 0.490280 -0.138210
C25   C     C_R   0.444586 0.748241 0.447372 -0.116656
C26   C     C_R   0.586280 0.252385 0.531489 -0.118053
C27   C     C_R   0.424820 0.833276 0.437508 -0.106261
C28   C     C_R   0.602145 0.167040 0.542133 -0.105702
C29   C     C_R   0.478654 0.888757 0.493506 0.230197
C30   C     C_R   0.509976 0.110401 0.511121 0.233651
C31   C     C_R   0.550619 0.855473 0.558489 -0.326584
C32   C     C_R   0.403963 0.142753 0.469374 -0.334868
C33   C     C_R   0.568575 0.769066 0.566011 0.403323
C34   C     C_R   0.392554 0.229640 0.458925 0.412727
N5    N     N_2   0.458291 0.975905 0.481950 -0.159229
N6    N     N_2   0.528584 0.023128 0.523184 -0.158770
H11   H     H_    0.655655 0.294669 0.558660 0.182001
H12   H     H_    0.399193 0.706255 0.405241 0.178947
H13   H     H_    0.593037 0.896180 0.603032 0.203173
H14   H     H_    0.330931 0.101080 0.444560 0.201494
N7    N     N_R   0.640961 0.737205 0.633061 0.205897
O9    O     O_R   0.650661 0.777528 0.699672 -0.384706
O10   O     O_R   0.708910 0.672930 0.625234 -0.392603
N8    N     N_R   0.284506 0.260627 0.415877 0.201874
O11   O     O_R   0.176988 0.217300 0.414266 -0.447887
O12   O     O_R   0.297302 0.326701 0.369687 -0.376758
C35   C     C_R   0.905973 0.425006 0.645787 0.094935
C36   C     C_R   0.920148 0.340983 0.665853 -0.148160
C37   C     C_R   0.870499 0.306695 0.737773 -0.134017
C38   C     C_R   0.808118 0.356378 0.790617 -0.101225
C39   C     C_R   0.795198 0.440373 0.771517 -0.103595
C40   C     C_R   0.843059 0.474494 0.699111 -0.157311
H15   H     H_    0.969642 0.302066 0.626185 0.132250
H16   H     H_    0.880975 0.241721 0.752731 0.155452
H17   H     H_    0.770042 0.329893 0.846400 0.171389
H18   H     H_    0.747520 0.478980 0.812644 0.174759
H19   H     H_    0.831867 0.539526 0.684814 0.187255
C41   C     C_R   0.092543 0.575265 0.355309 0.099395
C42   C     C_R   0.155688 0.526107 0.301782 -0.161522
C43   C     C_R   0.200024 0.559965 0.228384 -0.105883
C44   C     C_R   0.182472 0.643230 0.208197 -0.103840
C45   C     C_R   0.119626 0.692487 0.261182 -0.137691
C46   C     C_R   0.075127 0.658882 0.334640 -0.140611
H20   H     H_    0.169485 0.461459 0.316620 0.187741
H21   H     H_    0.247935 0.521615 0.187133 0.173317
H22   H     H_    0.217085 0.669460 0.151419 0.168520
H23   H     H_    0.104349 0.756587 0.245118 0.156490
H24   H     H_    0.026611 0.698111 0.374685 0.128309
N9    N     N_R   0.620571 0.378822 0.096808 0.212289
O13   O     O_R   0.684725 0.387196 0.030337 -0.394895
O14   O     O_R   0.604017 0.305235 0.130077 -0.372822
N10   N     N_R   0.378771 0.623598 0.901821 0.211847
O15   O     O_R   0.313085 0.616260 0.967741 -0.399421
O16   O     O_R   0.398271 0.696924 0.868492 -0.360412
C47   C     C_R   0.718140 0.138206 0.584025 0.130761
C48   C     C_R   0.708613 0.086865 0.653727 -0.135673
C49   C     C_R   0.818614 0.058453 0.691855 -0.125032
C50   C     C_R   0.938635 0.080954 0.660697 -0.121546
C51   C     C_R   0.948899 0.132110 0.591488 -0.147989
C52   C     C_R   0.839179 0.161072 0.553437 -0.147528
H25   H     H_    0.616198 0.068999 0.678511 0.143588
H26   H     H_    0.810796 0.018908 0.745520 0.161371
H27   H     H_    0.023670 0.058846 0.690239 0.146500
H28   H     H_    0.041906 0.149652 0.567500 0.166040
H29   H     H_    0.848490 0.200664 0.499804 0.154263
C53   C     C_R   0.350377 0.863042 0.366695 0.140746
C54   C     C_R   0.244400 0.911657 0.376557 -0.133765
C55   C     C_R   0.176944 0.941284 0.309245 -0.129528
C56   C     C_R   0.214396 0.922476 0.231730 -0.108203
C57   C     C_R   0.318689 0.873355 0.221410 -0.136921
C58   C     C_R   0.386163 0.843378 0.288552 -0.154186
H30   H     H_    0.213972 0.926532 0.436252 0.141244
H31   H     H_    0.095660 0.978890 0.317182 0.157957
H32   H     H_    0.162105 0.945489 0.179696 0.150589
H33   H     H_    0.347100 0.858339 0.161384 0.153224
H34   H     H_    0.467340 0.805881 0.279606 0.127348

loop_
_geom_bond_atom_site_label_1
_geom_bond_atom_site_label_2
_geom_bond_distance
_ccdc_geom_bond_type
O5    Zn1   1.990026 S    
C6    C9    1.522586 S    
C42   H20   1.082218 S    
C15   H6    1.083255 S    
C13   C15   1.402282 A    
C37   C38   1.397495 A    
C54   C55   1.398200 A    
O7    Zn2   1.990065 S    
C57   C58   1.398030 A    
C29   N5    1.441440 S    
N3    C25   1.364817 A    
C30   N6    1.440893 S    
C44   C45   1.397277 A    
O5    C3    1.276818 A    
C48   H25   1.083136 S    
N9    O13   1.301627 A    
C20   N2    1.399923 S    
C21   C23   1.387139 A    
C12   H4    1.109954 S    
C45   H23   1.080713 S    
C52   H29   1.083395 S    
C17   N10   1.441001 S    
O4    Zn1   1.955378 S    
C53   C54   1.406032 A    
C7    H1    1.110441 S    
C1    C13   1.453564 S    
C5    C10   1.522915 S    
C2    C14   1.453020 S    
C42   C43   1.397600 A    
N8    O11   1.301502 A    
N7    O10   1.298194 A    
C31   H13   1.082615 S    
C26   C28   1.402978 A    
C37   H16   1.082169 S    
C17   C19   1.412283 A    
C16   H5    1.083218 S    
C54   H30   1.083175 S    
C21   H7    1.083214 S    
C39   H18   1.082455 S    
C20   C22   1.395924 A    
C57   H33   1.082346 S    
C5    C11   1.540678 S    
C18   N9    1.441057 S    
N5    N6    1.249942 D    
N9    O14   1.301557 A    
C46   H24   1.081501 S    
O2    C2    1.290522 A    
C55   C56   1.397639 A    
C28   C30   1.404890 A    
C29   C31   1.414987 A    
C30   C32   1.414856 A    
C7    C12   1.548611 S    
C38   C39   1.397280 A    
C8    C11   1.548448 S    
C49   C50   1.397797 A    
C43   C44   1.397094 A    
O4    C2    1.289876 A    
N1    N2    1.246342 D    
C45   C46   1.397594 A    
C25   C27   1.404120 A    
C4    C9    1.414529 S    
C41   C42   1.403800 A    
C7    C9    1.531975 S    
N10   O16   1.301585 A    
C27   C29   1.406526 A    
C18   C20   1.412310 A    
C39   C40   1.397574 A    
C36   H15   1.079612 S    
N3    C33   1.372907 A    
C47   C48   1.405181 A    
C14   C24   1.400065 A    
O6    C4    1.276885 A    
N10   O15   1.301628 A    
C6    C41   1.503643 S    
C50   H27   1.082289 S    
C6    C8    1.539179 S    
C19   N1    1.400385 S    
O7    C3    1.272748 A    
C51   H28   1.082562 S    
O3    Zn2   1.955379 S    
O8    C4    1.272709 A    
C34   N8    1.433718 S    
C58   H34   1.083095 S    
C27   C53   1.482394 S    
C38   H17   1.082386 S    
C31   C33   1.419759 A    
C10   C12   1.534206 S    
C22   H8    1.083254 S    
O1    Zn1   1.963403 S    
C43   H21   1.082459 S    
C23   H9    1.083292 S    
C22   C24   1.386734 A    
O1    C1    1.291426 A    
C56   C57   1.397674 A    
C49   H26   1.082326 S    
C5    C7    1.539255 S    
O6    Zn2   1.990023 S    
C25   H12   1.080393 S    
C28   C47   1.480570 S    
C8    C10   1.531139 S    
C26   H11   1.079526 S    
C33   N7    1.434579 S    
C36   C37   1.398432 A    
O3    C1    1.289147 A    
O8    Zn1   1.990065 S    
C40   H19   1.082051 S    
Zn1   N4    2.006107 S    
C44   H22   1.082443 S    
N4    C34   1.373161 A    
Zn2   N3    2.006107 S    
C5    C35   1.503910 S    
C3    C10   1.414535 S    
C55   H31   1.082423 S    
C9    C11   1.534989 S    
C14   C16   1.401753 A    
C15   C17   1.391742 A    
C16   C18   1.392075 A    
C32   H14   1.082756 S    
C35   C40   1.403606 A    
C13   C23   1.399825 A    
N4    C26   1.365256 A    
C48   C49   1.398363 A    
C19   C21   1.396064 A    
C32   C34   1.420493 A    
C47   C52   1.405111 A    
C8    H2    1.110473 S    
C11   H3    1.110001 S    
C50   C51   1.397362 A    
O2    Zn2   1.963403 S    
C24   H10   1.083182 S    
C56   H32   1.082238 S    
C35   C36   1.402815 A    
C6    C12   1.539957 S    
N7    O9    1.301426 A    
C51   C52   1.398511 A    
N8    O12   1.298674 A    
C53   C58   1.405798 A    
C41   C46   1.403993 A    
