data_mof_unit_47165.cif
_audit_creation_date              2012-12-10T21:07:46-0500
_audit_creation_method            fapswitch 2.2
_symmetry_space_group_name_H-M    P1
_symmetry_Int_Tables_number       1
_space_group_crystal_system       triclinic
_cell_length_a                    8.583338
_cell_length_b                    17.249516
_cell_length_c                    16.933034
_cell_angle_alpha                 89.378784
_cell_angle_beta                  99.736861
_cell_angle_gamma                 93.687989
_cell_volume                      2465.8465099

loop_
_atom_site_label
_atom_site_type_symbol
_atom_type_description
_atom_site_fract_x
_atom_site_fract_y
_atom_site_fract_z
_atom_type_partial_charge
C1    C     C_R   0.506573 0.352256 0.500915 0.977078
C2    C     C_R   0.407565 0.443626 0.244326 0.346842
C3    C     C_R   0.584880 0.560522 0.840199 -0.202351
C4    C     C_R   0.432142 0.431420 0.163947 -0.211113
C5    C     C_R   0.497231 0.503283 0.876877 -0.042607
C6    C     C_R   0.509883 0.491022 0.124876 -0.010278
C7    C     C_1   0.500655 0.498388 0.964438 0.166791
C8    C     C_1   0.505458 0.494105 0.037190 0.168889
C9    C     C_R   0.200472 0.498575 0.478749 0.966909
C10   C     C_R   0.799350 0.499781 0.521249 1.000001
C11   C     C_2   0.034458 0.496718 0.467577 -0.266386
C12   C     C_R   0.499207 0.647233 0.499341 0.841654
C13   C     C_2   0.965055 0.499615 0.532389 -0.235409
C14   C     C_R   0.554528 0.865796 0.519328 0.480340
C15   C     C_R   0.352128 0.154005 0.432192 0.349242
C16   C     C_R   0.589228 0.786806 0.521949 -0.219380
C17   C     C_R   0.438862 0.225548 0.429241 -0.154397
C18   C     C_R   0.467647 0.729685 0.494704 -0.229002
C19   C     C_R   0.495954 0.266194 0.501557 -0.089070
C20   C     C_R   0.311482 0.750147 0.465842 -0.021874
C21   C     C_R   0.510610 0.225901 0.575606 -0.115689
C22   C     C_R   0.275029 0.828595 0.464869 -0.073825
C23   C     C_1   0.359036 0.964082 0.499804 0.096631
C24   C     C_R   0.439072 0.150244 0.578091 -0.155352
C25   C     C_R   0.395549 0.884891 0.495324 -0.125003
C26   C     C_R   0.360765 0.114989 0.506028 0.007295
C27   C     C_2   0.749572 0.762021 0.554315 0.622805
C28   C     C_2   0.488604 0.251756 0.352581 0.576364
C29   C     C_2   0.184908 0.688278 0.442437 0.532191
C30   C     C_2   0.609691 0.260514 0.649168 0.501559
C31   C     C_2   0.114366 0.853557 0.429301 0.548897
C32   C     C_2   0.453017 0.106460 0.655302 0.499623
C33   C     C_2   0.650464 0.632790 0.884238 0.592263
C34   C     C_1   0.345992 0.032293 0.503311 0.242072
C35   C     C_2   0.380963 0.355338 0.124027 0.542899
C36   C     C_R   0.406278 0.448134 0.827325 -0.242962
C37   C     C_R   0.584974 0.552684 0.171421 -0.276032
C38   C     C_R   0.399653 0.448941 0.743334 0.463033
C39   C     C_R   0.586704 0.555663 0.254949 0.493281
C40   C     C_R   0.603267 0.550717 0.758402 0.386371
H1    H     H_    0.970027 0.493719 0.406492 0.226137
H2    H     H_    0.579582 0.248311 0.707839 0.101054
H3    H     H_    0.075417 0.908416 0.446441 0.132709
H4    H     H_    0.555361 0.116814 0.701909 0.082187
H5    H     H_    0.219431 0.252806 0.714552 0.405143
H6    H     H_    0.601347 0.751532 0.335344 0.391040
H7    H     H_    0.009373 0.645556 0.790465 0.399588
H8    H     H_    0.064236 0.393046 0.150043 0.375566
H9    H     H_    0.667706 0.685805 0.850829 0.124497
H10   H     H_    0.358406 0.304853 0.160136 0.124454
H11   H     H_    0.029564 0.502930 0.593399 0.230196
H12   H     H_    0.334535 0.404842 0.854477 0.239612
H13   H     H_    0.642742 0.599368 0.141639 0.236651
H14   H     H_    0.735529 0.061387 0.502301 0.391511
H15   H     H_    0.062705 0.016395 0.313621 0.409185
H16   H     H_    0.799783 0.717236 0.523858 0.116186
H17   H     H_    0.413913 0.239989 0.295392 0.125399
H18   H     H_    0.196842 0.645906 0.397432 0.099384
N1    N     N_R   0.500040 0.500030 0.707230 -0.197580
N2    N     N_R   0.499960 0.499970 0.292770 -0.179017
O1    O     O_R   0.500000 0.389130 0.566570 -0.565472
O2    O     O_2   0.869129 0.915898 0.537629 -0.263278
O3    O     O_3   0.673753 0.015489 0.475891 -0.546077
O4    O     O_2   0.154640 0.171666 0.292219 -0.224193
O5    O     O_2   0.352389 0.074357 0.297134 -0.267930
O6    O     O_3   0.105999 0.042439 0.365240 -0.551984
O7    O     O_2   0.822269 0.787603 0.617908 -0.441552
O8    O     O_2   0.619606 0.283896 0.352490 -0.538696
O9    O     O_2   0.068467 0.683483 0.475146 -0.547889
O10   O     O_2   0.729526 0.301435 0.644871 -0.501810
O11   O     O_2   0.026523 0.815223 0.377858 -0.487183
O12   O     O_R   0.500000 0.610870 0.433430 -0.565185
O13   O     O_2   0.348731 0.058720 0.667952 -0.498947
O14   O     O_2   0.099482 0.393233 0.716245 -0.234396
O15   O     O_2   0.237991 0.367405 0.606869 -0.288503
O16   O     O_3   0.306638 0.290567 0.737669 -0.580815
O17   O     O_2   0.776522 0.628144 0.382275 -0.280436
O18   O     O_2   0.791757 0.679858 0.250028 -0.239760
O19   O     O_3   0.542164 0.704598 0.309740 -0.531231
O20   O     O_2   0.879750 0.511412 0.725445 -0.244038
O21   O     O_2   0.776238 0.629972 0.660804 -0.303030
O22   O     O_3   0.906474 0.635523 0.809005 -0.551754
O23   O     O_R   0.499990 0.389100 0.433480 -0.586112
O24   O     O_2   0.227856 0.363617 0.340690 -0.262806
O25   O     O_2   0.124989 0.480500 0.273328 -0.290842
O26   O     O_3   0.109671 0.355659 0.191080 -0.516623
O27   O     O_2   0.685418 0.634610 0.957160 -0.542639
O28   O     O_2   0.365214 0.347331 0.051524 -0.540809
O29   O     O_R   0.500010 0.610900 0.566520 -0.588365
O30   O     O_R   0.271750 0.500010 0.550980 -0.599748
O31   O     O_R   0.728250 0.499990 0.449020 -0.602902
O32   O     O_R   0.271740 0.499980 0.417890 -0.562699
O33   O     O_R   0.728260 0.500020 0.582110 -0.531723
O34   O     O_2   0.705371 0.971778 0.624793 -0.268143
S1    S     S_3+6 0.707474 0.942253 0.541813 0.069163
S2    S     S_3+6 0.240831 0.110751 0.343176 0.051863
S3    S     S_3+6 0.257444 0.376326 0.695692 0.049162
S4    S     S_3+6 0.681499 0.642322 0.301491 0.085293
S5    S     S_3+6 0.792739 0.582417 0.735751 0.057662
S6    S     S_3+6 0.216657 0.410483 0.265115 0.054270
Zn1   Zn    Zn3+2 0.500010 0.500020 0.588860 1.107061
Zn2   Zn    Zn3+2 0.499990 0.499980 0.411140 1.106893

loop_
_geom_bond_atom_site_label_1
_geom_bond_atom_site_label_2
_ccdc_geom_bond_type
O23   Zn2   S    
O22   S5    S    
O19   S4    S    
O1    Zn1   S    
C40   S5    S    
C7    C8    T    
C28   H17   S    
C31   H3    S    
H5    O16   S    
C19   C21   A    
C24   C26   A    
H6    O19   S    
C2    N2    A    
H14   O3    S    
C3    C33   S    
C33   H9    S    
C5    C36   A    
O3    S1    S    
O15   S3    D    
H7    O22   S    
C13   H11   S    
C26   C34   S    
O5    S2    D    
C22   C25   A    
O18   S4    D    
O26   S6    S    
C18   C20   A    
C36   H12   S    
O32   Zn2   S    
C37   H13   S    
C16   C27   S    
C31   O11   D    
C12   O12   A    
C4    C35   S    
C2    S6    S    
C40   N1    A    
O2    S1    D    
C38   S3    S    
N2    Zn2   S    
C9    O32   A    
C30   O10   D    
O14   S3    D    
C29   O9    D    
C20   C29   S    
C1    C19   S    
C22   C31   S    
N1    Zn1   S    
C12   O29   A    
O4    S2    D    
C4    C6    A    
O33   Zn1   S    
C32   O13   D    
C5    C7    S    
C27   H16   S    
C15   C26   A    
C6    C8    S    
O21   S5    D    
C10   O33   A    
C3    C5    A    
O16   S3    S    
O24   S6    D    
C2    C4    A    
C24   C32   S    
O30   Zn1   S    
C35   O28   D    
C23   C34   T    
C35   H10   S    
C32   H4    S    
C6    C37   A    
O17   S4    D    
C9    C11   S    
C20   C22   A    
C3    C40   A    
O20   S5    D    
H8    O26   S    
O31   Zn2   S    
C14   S1    S    
C15   S2    S    
H15   O6    S    
O6    S2    S    
C15   C17   A    
O29   Zn1   S    
C17   C28   S    
C39   S4    S    
C28   O8    D    
C10   C13   S    
C1    O1    A    
C9    O30   A    
C10   O31   A    
C1    O23   A    
C21   C30   S    
C36   C38   A    
C33   O27   D    
C37   C39   A    
O25   S6    D    
C11   C13   D    
O12   Zn2   S    
C39   N2    A    
C17   C19   A    
C11   H1    S    
C14   C16   A    
C23   C25   S    
C14   C25   A    
O34   S1    D    
C27   O7    D    
C38   N1    A    
C29   H18   S    
C16   C18   A    
C21   C24   A    
C12   C18   S    
C30   H2    S    
