data_mof_unit_59173.cif
_audit_creation_date              2013-03-05T15:40:33-0500
_audit_creation_method            fapswitch 2.2
_symmetry_space_group_name_H-M    P1
_symmetry_Int_Tables_number       1
_space_group_crystal_system       triclinic
_cell_length_a                    14.932802
_cell_length_b                    8.677744
_cell_length_c                    7.514576
_cell_angle_alpha                 103.459864
_cell_angle_beta                  93.618766
_cell_angle_gamma                 92.579203
_cell_volume                      943.338135812

loop_
_atom_site_label
_atom_site_type_symbol
_atom_site_description
_atom_site_fract_x
_atom_site_fract_y
_atom_site_fract_z
_atom_type_partial_charge
O1    O     O_R   0.506510 0.286130 0.619770 -0.568149
O2    O     O_R   0.493490 0.713870 0.380230 -0.568167
O3    O     O_R   0.489600 0.256770 0.308360 -0.583504
O4    O     O_R   0.510400 0.743230 0.691640 -0.583495
C1    C     C_R   0.497274 0.199838 0.453010 0.847994
C2    C     C_R   0.502726 0.800162 0.546990 0.847980
O5    O     O_R   0.378710 0.514640 0.655720 -0.548088
O6    O     O_R   0.621290 0.485360 0.344280 -0.548095
O7    O     O_R   0.361800 0.485290 0.344300 -0.546127
O8    O     O_R   0.638200 0.514710 0.655700 -0.546121
C3    C     C_R   0.329339 0.499534 0.503141 0.784187
C4    C     C_R   0.670661 0.500466 0.496859 0.784178
Cu1   Cu    Cu3+1 0.510010 0.517380 0.684380 1.113886
Cu2   Cu    Cu3+1 0.489990 0.482620 0.315620 1.113871
C5    C     C_R   0.818600 0.641589 0.570896 -0.121376
C6    C     C_R   0.181400 0.358410 0.429104 -0.121371
C7    C     C_R   0.766805 0.502356 0.489862 -0.036188
C8    C     C_R   0.233194 0.497644 0.510138 -0.036185
C9    C     C_R   0.806460 0.363915 0.408217 -0.123144
C10   C     C_R   0.193540 0.636084 0.591783 -0.123149
C11   C     C_R   0.899728 0.361553 0.414156 0.062311
C12   C     C_R   0.100272 0.638447 0.585845 0.062313
C13   C     C_R   0.953065 0.501854 0.495753 0.021046
C14   C     C_R   0.046935 0.498146 0.504247 0.021046
C15   C     C_R   0.912329 0.645459 0.568983 -0.002374
C16   C     C_R   0.087671 0.354541 0.431017 -0.002375
C17   C     C_R   0.939955 0.219667 0.344743 -0.146526
C18   C     C_R   0.060045 0.780332 0.655257 -0.146527
C19   C     C_R   0.033516 0.213062 0.356679 0.348187
C20   C     C_R   0.966484 0.786938 0.643322 0.348188
H1    H     H_    0.784755 0.744831 0.637168 0.187240
H2    H     H_    0.215245 0.255169 0.362832 0.187237
H3    H     H_    0.764591 0.256849 0.347109 0.151532
H4    H     H_    0.235408 0.743151 0.652891 0.151530
H5    H     H_    0.898182 0.111998 0.286836 0.210136
H6    H     H_    0.101818 0.888002 0.713164 0.210135
C21   C     C_2   0.496009 0.031364 0.427237 -0.300096
C22   C     C_2   0.503990 0.968636 0.572764 -0.300086
H7    H     H_    0.488528 0.958708 0.287544 0.201306
H8    H     H_    0.511471 0.041293 0.712457 0.201310
N1    N     N_2   0.474890 0.456420 0.038520 0.016633
N2    N     N_2   0.525110 0.543580 0.961480 0.016642
N3    N     N_R   0.071604 0.061326 0.300744 0.129619
O9    O     O_R   0.031887 0.952616 0.166266 -0.311132
O10   O     O_R   0.134505 0.020497 0.405451 -0.374595
N4    N     N_R   0.928396 0.938673 0.699256 0.129620
O11   O     O_R   0.968113 0.047384 0.833735 -0.311132
O12   O     O_R   0.865495 0.979503 0.594550 -0.374597
N5    N     N_R   0.387861 0.422873 0.959190 0.264053
O13   O     O_R   0.360395 0.276153 0.885681 -0.352741
O14   O     O_R   0.328709 0.529095 0.997735 -0.324082
N6    N     N_R   0.612138 0.577127 0.040805 0.264056
O15   O     O_R   0.639615 0.723853 0.114230 -0.352735
O16   O     O_R   0.671283 0.470893 0.002285 -0.324081

loop_
_geom_bond_atom_site_label_1
_geom_bond_atom_site_label_2
_geom_bond_distance
_ccdc_geom_bond_type
C4    C7    1.439483 S    
O5    C3    1.299979 A    
O7    Cu2   1.940367 S    
C2    C22   1.428450 S    
C3    C8    1.439483 S    
C5    H1    1.082086 S    
C21   C22   1.331512 D    
C1    C21   1.428450 S    
C17   C19   1.398946 A    
N3    O10   1.301274 A    
N1    N2    1.295069 D    
O6    C4    1.299980 A    
N3    O9    1.301187 A    
C10   H4    1.085282 S    
N5    O14   1.301941 A    
C18   C20   1.398946 A    
C11   C17   1.398586 A    
C21   H7    1.087516 S    
C6    C8    1.393835 A    
C12   C18   1.398585 A    
Cu1   Cu2   2.712455 S    
C19   N3    1.440094 S    
C22   H8    1.087518 S    
O7    C3    1.297971 A    
O2    C2    1.296973 A    
O3    Cu2   1.947628 S    
O8    C4    1.297970 A    
Cu2   N1    2.038181 S    
O1    C1    1.296973 A    
N1    N5    1.384349 S    
Cu1   N2    2.038181 S    
C9    C11   1.391880 A    
N6    O16   1.301923 A    
C8    C10   1.391784 A    
C13   C15   1.420221 A    
C11   C13   1.412865 A    
C6    C16   1.399584 A    
O2    Cu2   1.949156 S    
C12   C14   1.412865 A    
C5    C15   1.399585 A    
C6    H2    1.082085 S    
C10   C12   1.391880 A    
C13   C14   1.401327 A    
C7    C9    1.391784 A    
N4    O12   1.301275 A    
O5    Cu1   1.957375 S    
O1    Cu1   1.949156 S    
N6    O15   1.300501 A    
C18   H6    1.084186 S    
C16   C19   1.416927 A    
O4    C2    1.295419 A    
N5    O13   1.300534 A    
C9    H3    1.085282 S    
O4    Cu1   1.947628 S    
C5    C7    1.393835 A    
N4    O11   1.301187 A    
C15   C20   1.416926 A    
O6    Cu2   1.957375 S    
C17   H5    1.084186 S    
C20   N4    1.440093 S    
C14   C16   1.420221 A    
N2    N6    1.384322 S    
O3    C1    1.295418 A    
O8    Cu1   1.940367 S    
