data_mof_unit_8264.cif
_audit_creation_date              2012-12-10T17:14:25-0500
_audit_creation_method            fapswitch 2.2
_symmetry_space_group_name_H-M    P1
_symmetry_Int_Tables_number       1
_space_group_crystal_system       triclinic
_cell_length_a                    15.395742
_cell_length_b                    14.516234
_cell_length_c                    10.132506
_cell_angle_alpha                 89.40057
_cell_angle_beta                  82.742571
_cell_angle_gamma                 90.280133
_cell_volume                      2246.18666666

loop_
_atom_site_label
_atom_site_type_symbol
_atom_type_description
_atom_site_fract_x
_atom_site_fract_y
_atom_site_fract_z
_atom_type_partial_charge
C1    C     C_R   0.391508 0.124358 0.553083 0.865916
C2    C     C_2   0.505205 0.970740 0.070486 -0.044593
C3    C     C_2   0.991676 0.476651 0.929880 -0.050339
C4    C     C_2   0.008581 0.477640 0.070999 -0.049744
C5    C     C_2   0.304578 0.822254 0.586745 0.283787
C6    C     C_2   0.668024 0.202121 0.402456 0.214120
C7    C     C_2   0.693471 0.820948 0.416424 0.274972
C8    C     C_2   0.347521 0.210657 0.581903 0.275523
C9    C     C_2   0.831768 0.295621 0.586344 0.277037
C10   C     C_2   0.167745 0.706598 0.426618 0.214671
C11   C     C_2   0.178993 0.307355 0.415338 0.271105
C12   C     C_R   0.616451 0.881651 0.445591 0.736406
C13   C     C_2   0.830084 0.704713 0.570932 0.205932
C14   C     C_2   0.233385 0.839163 0.522276 0.023825
C15   C     C_2   0.742147 0.206201 0.454903 -0.098821
C16   C     C_2   0.767426 0.840064 0.472774 0.026325
C17   C     C_2   0.266789 0.219337 0.551665 -0.099951
C18   C     C_2   0.761068 0.292862 0.522272 -0.127705
C19   C     C_2   0.163876 0.769501 0.525882 -0.030717
C20   C     C_2   0.242434 0.307632 0.494605 -0.130780
C21   C     C_2   0.836588 0.770287 0.472811 -0.018996
C22   C     C_2   0.370662 0.043788 0.146641 0.556863
C23   C     C_R   0.610684 0.123912 0.444362 0.805929
C24   C     C_2   0.634296 0.032624 0.852845 0.558931
C25   C     C_2   0.864970 0.530846 0.149701 0.570814
C26   C     C_2   0.133620 0.536011 0.849391 0.564204
C27   C     C_2   0.816659 0.149169 0.391964 0.493856
C28   C     C_2   0.221205 0.923732 0.441688 0.444237
C29   C     C_2   0.200633 0.143690 0.583225 0.362093
C30   C     C_2   0.783183 0.928902 0.538558 0.419297
C31   C     C_2   0.087846 0.778305 0.631538 0.479750
C32   C     C_2   0.709544 0.378810 0.504986 0.313393
C33   C     C_2   0.915296 0.781900 0.372084 0.485579
C34   C     C_R   0.382988 0.882019 0.555386 0.736333
C35   C     C_2   0.278891 0.396811 0.537576 0.382568
C36   C     C_3   0.587669 0.275345 0.252911 0.154759
C37   C     C_3   0.602027 0.355093 0.153743 -0.811781
C38   C     C_3   0.385278 0.712009 0.689281 0.150004
C39   C     C_3   0.376142 0.615188 0.747924 -0.825600
C40   C     C_3   0.460249 0.304006 0.630908 0.045834
C41   C     C_3   0.489741 0.364509 0.738676 -0.758433
C42   C     C_3   0.609982 0.696010 0.365089 0.136154
C43   C     C_3   0.619712 0.598333 0.312823 -0.804232
C44   C     C_3   0.208368 0.700654 0.199953 0.186856
C45   C     C_R   0.887774 0.623294 0.552263 0.785168
C46   C     C_3   0.276409 0.742323 0.093782 -0.712623
C47   C     C_3   0.939106 0.217914 0.692449 0.054415
C48   C     C_3   0.962320 0.122292 0.739172 -0.667584
C49   C     C_3   0.776535 0.676828 0.792158 0.199756
C50   C     C_3   0.702897 0.706611 0.897343 -0.758599
C51   C     C_3   0.089319 0.223922 0.285095 0.036599
C52   C     C_3   0.080347 0.128557 0.227628 -0.669173
C53   C     C_R   0.112755 0.378599 0.445474 0.822380
C54   C     C_R   0.111573 0.623950 0.447163 0.799265
C55   C     C_R   0.889638 0.375743 0.554538 0.852483
C56   C     C_2   0.489867 0.977083 0.928092 -0.091359
H1    H     H_    0.567314 0.943632 0.092755 0.188072
H2    H     H_    0.261365 0.984368 0.447231 0.109147
H3    H     H_    0.137511 0.146547 0.546813 0.112641
H4    H     H_    0.742156 0.988015 0.528025 0.091141
H5    H     H_    0.027003 0.742117 0.624672 0.015877
H6    H     H_    0.664485 0.382812 0.431734 0.098618
H7    H     H_    0.975127 0.745046 0.381698 0.001091
H8    H     H_    0.295580 0.404816 0.637428 0.118827
H9    H     H_    0.549280 0.301201 0.345469 0.055000
H10   H     H_    0.548519 0.221997 0.208802 0.191787
H11   H     H_    0.635652 0.330386 0.057239 0.278097
H12   H     H_    0.426209 0.958014 0.902114 0.215576
H13   H     H_    0.538026 0.385165 0.137304 0.213491
H14   H     H_    0.642921 0.409333 0.192264 0.239961
H15   H     H_    0.416351 0.755767 0.759764 0.161683
H16   H     H_    0.428237 0.708007 0.592345 0.115363
H17   H     H_    0.347513 0.568735 0.678359 0.268981
H18   H     H_    0.441669 0.589152 0.764271 0.205914
H19   H     H_    0.333281 0.615395 0.844613 0.266039
H20   H     H_    0.458925 0.346782 0.539475 0.131052
H21   H     H_    0.509018 0.248254 0.610951 0.140230
H22   H     H_    0.496495 0.322324 0.828877 0.262394
H23   H     H_    0.073171 0.458884 0.093905 0.163909
H24   H     H_    0.553828 0.397006 0.702809 0.237842
H25   H     H_    0.440897 0.419361 0.765123 0.245198
H26   H     H_    0.559988 0.731637 0.313228 0.154453
H27   H     H_    0.587111 0.691348 0.473927 0.135884
H28   H     H_    0.668973 0.560925 0.363609 0.272414
H29   H     H_    0.556033 0.561261 0.332419 0.215595
H30   H     H_    0.641151 0.599655 0.203989 0.250767
H31   H     H_    0.145160 0.736876 0.193826 0.180280
H32   H     H_    0.201006 0.626327 0.178343 0.195979
H33   H     H_    0.339337 0.704939 0.091680 0.228117
H34   H     H_    0.927594 0.455128 0.907635 0.168909
H35   H     H_    0.253269 0.737389 0.994642 0.261934
H36   H     H_    0.287264 0.816036 0.115412 0.285711
H37   H     H_    0.937756 0.265152 0.778378 0.178165
H38   H     H_    0.990797 0.239234 0.610930 0.098726
H39   H     H_    0.967743 0.073896 0.654383 0.278288
H40   H     H_    0.026011 0.124834 0.779686 0.216903
H41   H     H_    0.911043 0.096855 0.818334 0.282871
H42   H     H_    0.838533 0.709067 0.815999 0.183633
H43   H     H_    0.781393 0.600455 0.796510 0.191138
H44   H     H_    0.640334 0.673459 0.879368 0.236512
H45   H     H_    0.351265 0.106386 0.199532 0.082264
H46   H     H_    0.717917 0.686161 0.997792 0.257804
H47   H     H_    0.695388 0.782653 0.893785 0.251062
H48   H     H_    0.085672 0.275292 0.203848 0.180200
H49   H     H_    0.033834 0.232585 0.365648 0.108224
H50   H     H_    0.079381 0.075798 0.307819 0.284334
H51   H     H_    0.018143 0.123689 0.183209 0.218730
H52   H     H_    0.136020 0.115054 0.149444 0.285156
H53   H     H_    0.687784 0.027627 0.772836 0.088431
H54   H     H_    0.811513 0.519112 0.228555 0.063014
H55   H     H_    0.187815 0.526065 0.771718 0.062581
H56   H     H_    0.883123 0.162693 0.411355 0.072649
N1    N     N_2   0.549450 0.000000 0.831550 -0.180610
N2    N     N_2   0.450550 0.000000 0.168450 -0.170099
N3    N     N_2   0.049450 0.500000 0.831550 -0.168925
N4    N     N_2   0.950550 0.500000 0.168450 -0.164666
O1    O     O_R   0.398960 0.091100 0.433300 -0.683550
O2    O     O_R   0.569290 0.908910 0.353790 -0.576954
O3    O     O_R   0.569290 0.091090 0.353790 -0.573098
O4    O     O_R   0.430710 0.908910 0.646210 -0.594600
O5    O     O_R   0.930710 0.591090 0.646210 -0.611226
O6    O     O_R   0.069290 0.408910 0.353790 -0.627228
O7    O     O_R   0.069290 0.591090 0.353790 -0.611962
O8    O     O_R   0.930710 0.408910 0.646210 -0.625495
O9    O     O_2   0.320153 0.008590 0.077937 -0.590279
O10   O     O_2   0.647148 0.071586 0.955011 -0.567950
O11   O     O_2   0.851613 0.575982 0.051975 -0.630147
O12   O     O_R   0.601040 0.908900 0.566700 -0.640938
O13   O     O_2   0.144688 0.583791 0.944401 -0.628042
O14   O     O_2   0.804674 0.087330 0.315200 -0.548069
O15   O     O_2   0.164113 0.926578 0.368352 -0.567720
O16   O     O_2   0.213977 0.079995 0.657694 -0.578665
O17   O     O_2   0.843990 0.937168 0.604233 -0.570482
O18   O     O_2   0.092196 0.828349 0.726646 -0.491013
O19   O     O_2   0.715777 0.445681 0.575536 -0.592239
O20   O     O_2   0.914226 0.834813 0.277821 -0.492848
O21   O     O_2   0.288791 0.462696 0.461048 -0.582513
O22   O     O_3   0.670015 0.239168 0.274441 -0.568333
O23   O     O_R   0.601040 0.091100 0.566700 -0.653207
O24   O     O_3   0.301388 0.746183 0.673326 -0.586135
O25   O     O_3   0.375763 0.269193 0.675665 -0.611255
O26   O     O_3   0.691502 0.742177 0.339187 -0.587585
O27   O     O_3   0.237759 0.710555 0.325414 -0.607685
O28   O     O_3   0.855945 0.214254 0.647918 -0.627902
O29   O     O_3   0.756398 0.705306 0.666166 -0.618448
O30   O     O_3   0.171051 0.230967 0.333832 -0.635560
O31   O     O_R   0.398960 0.908900 0.433300 -0.624630
O32   O     O_R   0.898960 0.591100 0.433300 -0.608430
O33   O     O_R   0.101040 0.408900 0.566700 -0.637946
O34   O     O_R   0.101040 0.591100 0.566700 -0.610551
O35   O     O_R   0.898960 0.408900 0.433300 -0.623123
O36   O     O_R   0.430710 0.091090 0.646210 -0.551074
Zn1   Zn    Zn3+2 0.478810 0.000000 0.357840 0.953889
Zn2   Zn    Zn3+2 0.521190 0.000000 0.642160 0.952465
Zn3   Zn    Zn3+2 0.978810 0.500000 0.357840 0.951946
Zn4   Zn    Zn3+2 0.021190 0.500000 0.642160 0.948114

loop_
_geom_bond_atom_site_label_1
_geom_bond_atom_site_label_2
_ccdc_geom_bond_type
C15   C18   S    
C24   O10   D    
C54   O7    A    
C16   C21   S    
C48   H39   S    
C37   H13   S    
N3    Zn4   S    
C45   O32   A    
C17   C29   S    
O6    Zn3   S    
C31   H5    S    
C42   H26   S    
C13   O29   S    
N1    Zn2   S    
C19   C31   S    
C41   H24   S    
C2    H1    S    
C54   O34   A    
C46   H33   S    
O7    Zn3   S    
C48   H41   S    
C22   H45   S    
O2    Zn1   S    
C3    H34   S    
C23   O23   A    
C36   C37   S    
O5    Zn4   S    
O33   Zn4   S    
C53   O6    A    
C23   O3    A    
C38   C39   S    
C36   H10   S    
C29   O16   D    
C21   C33   S    
C16   C30   S    
C1    C8    S    
C17   C20   S    
C1    O36   A    
C39   H18   S    
C26   N3    S    
N4    Zn3   S    
C49   H42   S    
C38   H15   S    
C20   C35   S    
C24   N1    S    
C29   H3    S    
C52   H51   S    
C30   H4    S    
C42   O26   S    
C56   N1    D    
C8    O25   S    
C9    C55   S    
O32   Zn3   S    
O35   Zn3   S    
C44   H31   S    
N2    Zn1   S    
C11   C53   S    
O12   Zn2   S    
C6    C15   D    
C52   H50   S    
C50   H47   S    
O3    Zn1   S    
O34   Zn4   S    
C40   O25   S    
C53   O33   A    
C43   H28   S    
C31   O18   D    
O31   Zn1   S    
C9    O28   S    
C44   C46   S    
C34   O4    A    
C7    C12   S    
C38   H16   S    
C11   C20   D    
C42   H27   S    
C13   C21   D    
C51   C52   S    
C43   H29   S    
C4    H23   S    
C25   N4    S    
C41   H22   S    
C36   H9    S    
C22   O9    D    
C46   H35   S    
O23   Zn2   S    
C45   O5    A    
C51   H48   S    
C56   H12   S    
C47   O28   S    
C40   H20   S    
C6    O22   S    
C49   H43   S    
C34   O31   A    
C15   C27   S    
C47   C48   S    
C10   C19   D    
C33   H7    S    
C30   O17   D    
C41   H25   S    
C5    C34   S    
O4    Zn2   S    
C47   H37   S    
C49   O29   S    
C1    O1    A    
C5    C14   D    
C35   H8    S    
C26   O13   D    
C25   H54   S    
C12   O2    A    
C7    C16   D    
O36   Zn2   S    
C27   H56   S    
C50   H46   S    
C39   H19   S    
O8    Zn4   S    
O1    Zn1   S    
C18   C32   S    
C42   C43   S    
C3    C4    S    
C5    O24   S    
C55   O8    A    
C40   C41   S    
C48   H40   S    
C43   H30   S    
C14   C19   S    
C4    N4    D    
C24   H53   S    
C32   O19   D    
C11   O30   S    
C55   O35   A    
C12   O12   A    
C28   H2    S    
C50   H44   S    
C8    C17   D    
C51   O30   S    
C28   O15   D    
C25   O11   D    
C32   H6    S    
C3    N3    D    
C35   O21   D    
C13   C45   S    
C2    N2    D    
C33   O20   D    
C44   O27   S    
C6    C23   S    
C37   H11   S    
C47   H38   S    
C44   H32   S    
C10   O27   S    
C39   H17   S    
C10   C54   S    
C51   H49   S    
C9    C18   D    
C22   N2    S    
C46   H36   S    
C52   H52   S    
C49   C50   S    
C27   O14   D    
C38   O24   S    
C40   H21   S    
C2    C56   S    
C14   C28   S    
C37   H14   S    
C36   O22   S    
C26   H55   S    
C7    O26   S    
