data_mof_unit_56251.cif
_audit_creation_date              2012-12-10T17:32:20-0500
_audit_creation_method            fapswitch 2.2
_symmetry_space_group_name_H-M    P1
_symmetry_Int_Tables_number       1
_space_group_crystal_system       triclinic
_cell_length_a                    12.314865
_cell_length_b                    13.180592
_cell_length_c                    15.063023
_cell_angle_alpha                 77.46121
_cell_angle_beta                  101.378615
_cell_angle_gamma                 116.621652
_cell_volume                      2119.59214835

loop_
_atom_site_label
_atom_site_type_symbol
_atom_type_description
_atom_site_fract_x
_atom_site_fract_y
_atom_site_fract_z
_atom_type_partial_charge
C1    C     C_R   0.854864 0.286611 0.507203 0.778614
C2    C     C_R   0.903724 0.510180 0.797124 -0.246605
C3    C     C_R   0.998442 0.498330 0.768227 -0.073896
C4    C     C_R   0.999366 0.499427 0.671240 0.813974
C5    C     C_R   0.092516 0.485144 0.832286 -0.238817
C6    C     C_R   0.271556 0.023867 0.381985 -0.177232
C7    C     C_R   0.227728 0.835016 0.467447 -0.048317
C8    C     C_R   0.815936 0.083750 0.560448 -0.184183
C9    C     C_R   0.737498 0.968209 0.574901 -0.141903
C10   C     C_R   0.613882 0.931369 0.543412 -0.175678
C11   C     C_R   0.566366 0.009944 0.493356 0.081164
C12   C     C_R   0.093602 0.484680 0.110913 0.102247
C13   C     C_R   0.649588 0.125056 0.468643 0.064975
C14   C     C_R   0.439285 0.977686 0.466367 0.062319
C15   C     C_R   0.398015 0.056919 0.407559 0.107014
C16   C     C_R   0.145125 0.713546 0.486483 0.801755
C17   C     C_R   0.484084 0.166158 0.374315 -0.049502
C18   C     C_R   0.607856 0.197840 0.403032 -0.238004
C19   C     C_R   0.351645 0.868984 0.497871 -0.235748
C20   C     C_R   0.187324 0.913438 0.411045 -0.192478
C21   C     C_R   0.772966 0.163677 0.509451 -0.093927
C22   C     C_R   0.345378 0.327193 0.647342 -0.105979
C23   C     C_R   0.808948 0.521707 0.011537 -0.204921
C24   C     C_R   0.758623 0.644947 0.375587 0.073934
C25   C     C_R   0.661405 0.675852 0.348716 -0.247099
C26   C     C_R   0.558263 0.620795 0.395593 -0.184774
C27   C     C_R   0.550949 0.533469 0.470569 0.009237
C28   C     C_R   0.000123 0.499801 0.328820 0.807713
C29   C     C_R   0.653107 0.504872 0.495496 0.292784
C30   C     C_R   0.446821 0.473862 0.521686 -0.045201
C31   C     C_R   0.446774 0.386692 0.596339 0.119048
C32   C     C_R   0.547937 0.360748 0.618891 -0.278180
C33   C     C_R   0.648000 0.418421 0.570053 -0.195802
C34   C     C_R   0.808653 0.521581 0.918963 -0.204704
C35   C     C_R   0.342051 0.497055 0.502150 0.013903
C36   C     C_R   0.246033 0.355113 0.623968 0.021782
C37   C     C_R   0.093562 0.485495 0.203231 -0.238887
C38   C     C_R   0.999601 0.498624 0.232036 -0.074701
C39   C     C_R   0.904747 0.510495 0.168140 -0.244687
C40   C     C_R   0.903405 0.509749 0.075638 0.106875
C41   C     C_R   0.998278 0.497018 0.046809 0.064478
C42   C     C_1   0.448600 0.248771 0.311144 0.229964
C43   C     C_1   0.340320 0.237616 0.723620 0.198097
C44   C     C_R   0.902843 0.509547 0.889599 0.109054
C45   C     C_R   0.997993 0.496920 0.953748 0.064614
C46   C     C_R   0.093038 0.484481 0.924907 0.104151
C47   C     C_R   0.187156 0.471918 0.989059 -0.204542
C48   C     C_R   0.187446 0.472024 0.081622 -0.201765
Cu1   Cu    Cu3+1 0.098270 0.475420 0.521130 0.936915
Cu2   Cu    Cu3+1 0.901730 0.524580 0.478870 0.926139
H1    H     H_    0.167023 0.476412 0.252442 0.159914
H2    H     H_    0.831682 0.520181 0.190217 0.159360
H3    H     H_    0.334272 0.561507 0.446862 0.125493
H4    H     H_    0.838299 0.688183 0.338852 0.124454
H5    H     H_    0.485990 0.648402 0.371642 0.134440
H6    H     H_    0.666003 0.742776 0.291333 0.147119
H7    H     H_    0.719768 0.391892 0.593950 0.209045
H8    H     H_    0.735527 0.531360 0.032993 0.148304
H9    H     H_    0.735016 0.531118 0.870345 0.147419
H10   H     H_    0.830584 0.519787 0.747839 0.159306
H11   H     H_    0.165857 0.475898 0.810213 0.157849
H12   H     H_    0.237107 0.081981 0.337500 0.149457
H13   H     H_    0.260562 0.462230 0.967612 0.149794
H14   H     H_    0.261049 0.462409 0.130242 0.163265
H15   H     H_    0.091262 0.888319 0.386809 0.150011
H16   H     H_    0.377188 0.808019 0.546303 0.147742
H17   H     H_    0.910152 0.110764 0.590843 0.155916
H18   H     H_    0.558863 0.840393 0.557553 0.128036
H19   H     H_    0.772004 0.907033 0.613267 0.145297
H20   H     H_    0.671215 0.279491 0.371142 0.179393
H21   H     H_    0.167540 0.310542 0.662117 0.129978
H22   H     H_    0.551135 0.295093 0.675439 0.170063
N1    N     N_R   0.246280 0.438190 0.553160 -0.187055
N2    N     N_R   0.754320 0.561190 0.447410 -0.207789
N3    N     N_1   0.420424 0.315061 0.260767 -0.304525
N4    N     N_1   0.336194 0.165918 0.784669 -0.277768
O1    O     O_R   0.972510 0.318130 0.526570 -0.578631
O2    O     O_R   0.806530 0.359650 0.490890 -0.604615
O3    O     O_R   0.082980 0.479210 0.647590 -0.585683
O4    O     O_R   0.917000 0.520730 0.611900 -0.602854
O5    O     O_R   0.193470 0.640350 0.509110 -0.587658
O6    O     O_R   0.027490 0.681870 0.473430 -0.585508
O7    O     O_R   0.083000 0.479270 0.388100 -0.585090
O8    O     O_R   0.917020 0.520790 0.352410 -0.597696

loop_
_geom_bond_atom_site_label_1
_geom_bond_atom_site_label_2
_ccdc_geom_bond_type
C18   H20   S    
C23   H8    S    
C1    C21   S    
C35   H3    S    
C1    O1    A    
C25   H6    S    
C12   C48   A    
C24   N2    A    
C26   H5    S    
Cu2   O8    S    
C32   H22   S    
C45   C46   A    
C42   N3    T    
C37   C38   A    
C13   C18   A    
C9    H19   S    
C4    O4    A    
Cu2   N2    S    
C47   H13   S    
C30   C31   A    
C37   H1    S    
C11   C14   A    
C2    H10   S    
C48   H14   S    
C28   O8    A    
C24   H4    S    
C23   C40   A    
C29   C33   A    
C27   C29   A    
C19   H16   S    
Cu1   O5    S    
C12   C37   A    
C17   C42   S    
C6    C15   A    
C31   C32   A    
C2    C44   A    
C8    C9    A    
C9    C10   A    
C36   H21   S    
C39   H2    S    
C27   C30   A    
C1    O2    A    
Cu2   O2    S    
C8    C21   A    
C22   C31   A    
C5    H11   S    
C20   H15   S    
C34   C44   A    
C24   C25   A    
C4    O3    A    
C36   N1    A    
C39   C40   A    
C29   N2    A    
C25   C26   A    
Cu1   O3    S    
C12   C41   A    
C47   C48   A    
C28   C38   S    
C23   C34   A    
C16   O6    A    
C17   C18   A    
C26   C27   A    
C13   C21   A    
C30   C35   A    
C7    C16   S    
Cu1   Cu2   S    
C7    C19   A    
C34   H9    S    
Cu1   N1    S    
C3    C4    S    
C22   C36   A    
C44   C45   A    
Cu2   O6    S    
C43   N4    T    
C15   C17   A    
C46   C47   A    
C35   N1    A    
C33   H7    S    
C14   C19   A    
C3    C5    A    
Cu2   O4    S    
C10   H18   S    
C6    C20   A    
C5    C46   A    
C32   C33   A    
Cu1   O7    S    
C2    C3    A    
C11   C13   A    
C6    H12   S    
C38   C39   A    
C16   O5    A    
Cu1   O1    S    
C10   C11   A    
C8    H17   S    
C7    C20   A    
C41   C45   A    
C14   C15   A    
C40   C41   A    
C22   C43   S    
C28   O7    A    
