data_mof_unit_33396.cif
_audit_creation_date              2012-12-11T17:47:27-0500
_audit_creation_method            fapswitch 2.2
_symmetry_space_group_name_H-M    P1
_symmetry_Int_Tables_number       1
_space_group_crystal_system       triclinic
_cell_length_a                    14.890447
_cell_length_b                    14.904506
_cell_length_c                    15.156822
_cell_angle_alpha                 110.581494
_cell_angle_beta                  109.150294
_cell_angle_gamma                 108.678361
_cell_volume                      2589.00327227

loop_
_atom_site_label
_atom_site_type_symbol
_atom_type_description
_atom_site_fract_x
_atom_site_fract_y
_atom_site_fract_z
_atom_type_partial_charge
C1    C     C_R   0.906155 0.193274 0.990216 -0.140377
C2    C     C_R   0.826710 0.956939 0.910253 -0.226935
C3    C     C_R   0.064267 0.059902 0.684088 -0.096857
C4    C     C_R   0.847235 0.975570 0.204496 -0.147676
C5    C     C_R   0.989579 0.998900 0.705141 -0.188354
C6    C     C_R   0.881076 0.965504 0.127733 -0.165900
C7    C     C_R   0.671411 0.331388 0.205725 -0.121360
C8    C     C_R   0.389759 0.688562 0.889555 -0.130530
C9    C     C_R   0.777487 0.396012 0.294459 -0.126115
C10   C     C_R   0.304054 0.609259 0.784435 -0.129644
C11   C     C_R   0.842944 0.348176 0.316127 0.128049
C12   C     C_R   0.027344 0.752877 0.939569 -0.122714
C13   C     C_R   0.261487 0.641048 0.710711 0.121845
C14   C     C_R   0.801014 0.235126 0.247980 -0.192577
C15   C     C_R   0.312112 0.752802 0.741411 -0.168350
C16   C     C_R   0.294821 0.806085 0.205325 -0.130807
C17   C     C_R   0.684500 0.240912 0.774656 -0.127164
C18   C     C_R   0.695167 0.170990 0.158806 -0.104782
C19   C     C_R   0.400637 0.831684 0.845818 -0.108287
C20   C     C_R   0.630279 0.219119 0.137744 -0.109436
C21   C     C_R   0.438159 0.799835 0.920492 -0.102548
C22   C     C_R   0.965186 0.417803 0.505474 -0.274402
C23   C     C_R   0.295168 0.872297 0.296749 0.025735
C24   C     C_R   0.148053 0.555796 0.511070 -0.288892
C25   C     C_R   0.063959 0.490676 0.602395 0.071519
C26   C     C_R   0.046605 0.487634 0.415618 0.096307
C27   C     C_R   0.157522 0.560064 0.606908 0.043940
C28   C     C_R   0.954489 0.416119 0.411808 0.029906
C29   C     C_R   0.026212 0.003437 0.805104 0.112746
C30   C     C_R   0.811395 0.877222 0.020173 0.111025
C31   C     C_R   0.213468 0.116517 0.855313 -0.147922
C32   C     C_R   0.675629 0.809526 0.068358 -0.135434
C33   C     C_R   0.083320 0.975140 0.387373 -0.155182
C34   C     C_R   0.675486 0.212395 0.672367 0.028027
C35   C     C_R   0.769012 0.983968 0.475440 -0.130282
C36   C     C_R   0.186371 0.022078 0.397521 -0.164336
C37   C     C_R   0.684652 0.001277 0.483561 -0.123460
C38   C     C_R   0.275481 0.029442 0.476280 0.104319
C39   C     C_R   0.663838 0.078318 0.460729 0.096884
C40   C     C_R   0.224460 0.407589 0.973708 -0.130244
C41   C     C_R   0.786088 0.590877 0.091255 -0.144915
C42   C     C_R   0.261640 0.996211 0.549197 -0.186919
C43   C     C_R   0.725524 0.134775 0.425846 -0.188785
C44   C     C_R   0.158048 0.948378 0.537744 -0.041745
C45   C     C_R   0.325788 0.499953 0.048246 0.015504
C46   C     C_R   0.813190 0.120882 0.423128 -0.051666
C47   C     C_R   0.068675 0.936633 0.456024 -0.077649
C48   C     C_R   0.835402 0.046162 0.448567 -0.066049
C49   C     C_R   0.476378 0.135652 0.564449 -0.243009
C50   C     C_R   0.474370 0.026277 0.372605 -0.226431
C51   C     C_R   0.574890 0.149008 0.566770 0.073591
C52   C     C_R   0.377867 0.989404 0.376638 0.058831
C53   C     C_R   0.573090 0.094091 0.467870 0.016325
C54   C     C_R   0.376849 0.053424 0.470663 0.035859
C55   C     C_R   0.176154 0.118519 0.758960 -0.110118
C56   C     C_R   0.693284 0.498310 0.057213 0.028248
C57   C     C_R   0.744604 0.896965 0.174928 -0.100078
C58   C     C_R   0.840141 0.880586 0.937372 0.023631
C59   C     C_R   0.947570 0.955971 0.836399 0.025281
C60   C     C_R   0.138755 0.059981 0.878990 -0.153957
C61   C     C_R   0.707886 0.799341 0.990336 -0.157439
C62   C     C_R   0.902767 0.835550 0.906282 0.060998
C63   C     C_R   0.897897 0.010637 0.882034 0.057227
C64   C     C_R   0.052249 0.590464 0.314228 0.524460
C65   C     C_R   0.005420 0.407402 0.702486 0.484187
C66   C     C_3   0.493208 0.392700 0.022003 -0.177472
C67   C     C_R   0.034890 0.496609 0.322145 -0.121517
C68   C     C_3   0.535306 0.602428 0.114902 -0.164939
C69   C     C_3   0.433319 0.440091 0.965435 -0.144393
C70   C     C_3   0.596058 0.555068 0.171850 -0.150524
C71   C     C_3   0.427136 0.499336 0.067178 0.200000
C72   C     C_3   0.600843 0.496203 0.069409 0.192801
C73   C     C_3   0.485390 0.451531 0.124010 -0.166589
C74   C     C_3   0.541314 0.542939 0.012727 -0.155321
C75   C     C_R   0.315366 0.592355 0.065393 -0.134579
C76   C     C_R   0.696431 0.407341 0.998400 -0.125762
C77   C     C_R   0.972370 0.406523 0.218833 -0.174323
C78   C     C_R   0.058746 0.497261 0.696745 -0.104321
C79   C     C_R   0.088743 0.590334 0.788490 -0.195146
C80   C     C_R   0.206283 0.805394 0.297679 -0.082277
C81   C     C_R   0.780010 0.250482 0.687451 -0.106565
C82   C     C_R   0.997949 0.196615 0.900906 -0.132288
C83   C     C_R   0.932514 0.750094 0.027967 -0.141356
C84   C     C_R   0.934956 0.129168 0.924460 0.056555
C85   C     C_R   0.949577 0.779635 0.954751 0.055381
C86   C     C_R   0.937911 0.861197 0.838643 -0.238371
H1    H     H_    0.846808 0.165207 0.014039 0.096086
H2    H     H_    0.416198 0.663067 0.947154 0.109833
H3    H     H_    0.808450 0.482938 0.346459 0.108896
H4    H     H_    0.267127 0.523618 0.762443 0.113173
H5    H     H_    0.851461 0.197620 0.261924 0.110716
H6    H     H_    0.280406 0.779461 0.686291 0.108746
H7    H     H_    0.663679 0.084173 0.105921 0.112383
H8    H     H_    0.438114 0.917847 0.869827 0.101101
H9    H     H_    0.893085 0.367576 0.504395 0.139536
H10   H     H_    0.218089 0.608673 0.511370 0.140238
H11   H     H_    0.903196 0.955082 0.648157 0.115375
H12   H     H_    0.062917 0.765483 0.890673 0.094589
H13   H     H_    0.959947 0.028415 0.150931 0.116795
H14   H     H_    0.459512 0.414306 0.169293 0.112532
H15   H     H_    0.564281 0.575567 0.963375 0.116339
H16   H     H_    0.341554 0.831995 0.169023 0.090337
H17   H     H_    0.619229 0.224370 0.793532 0.092688
H18   H     H_    0.168116 0.062970 0.956058 0.115030
H19   H     H_    0.651589 0.733262 0.906849 0.120694
H20   H     H_    0.987966 0.897234 0.445560 0.096822
H21   H     H_    0.902309 0.034456 0.444674 0.084043
H22   H     H_    0.014115 0.964377 0.323421 0.126759
H23   H     H_    0.035431 0.063294 0.610692 0.125050
H24   H     H_    0.782347 0.921884 0.489175 0.097200
H25   H     H_    0.195304 0.046052 0.339896 0.118712
H26   H     H_    0.634809 0.954084 0.506508 0.113973
H27   H     H_    0.329018 0.999816 0.609448 0.113393
H28   H     H_    0.708616 0.192502 0.405516 0.123753
H29   H     H_    0.146546 0.917723 0.590415 0.120179
H30   H     H_    0.864984 0.168887 0.402720 0.097140
H31   H     H_    0.476227 0.182145 0.637643 0.124169
H32   H     H_    0.476796 0.985248 0.299553 0.123226
H33   H     H_    0.975111 0.820200 0.802183 0.126570
H34   H     H_    0.900652 0.044953 0.286347 0.101222
H35   H     H_    0.777971 0.989727 0.934001 0.127309
H36   H     H_    0.365361 0.393093 0.880276 0.112172
H37   H     H_    0.665704 0.601674 0.255974 0.108795
H38   H     H_    0.478737 0.307151 0.984239 0.096783
H39   H     H_    0.552363 0.688734 0.155597 0.100360
H40   H     H_    0.205455 0.322592 0.938655 0.121579
H41   H     H_    0.812810 0.675049 0.148206 0.112153
H42   H     H_    0.379084 0.677558 0.114939 0.095683
H43   H     H_    0.642105 0.322630 0.970024 0.091240
H44   H     H_    0.944003 0.321108 0.194976 0.137357
H45   H     H_    0.299901 0.161010 0.912956 0.110343
H46   H     H_    0.141108 0.674827 0.814660 0.137755
H47   H     H_    0.173360 0.828819 0.348968 0.189026
H48   H     H_    0.805968 0.253103 0.630178 0.158820
H49   H     H_    0.019561 0.174828 0.839206 0.142307
H50   H     H_    0.877497 0.755922 0.057990 0.124867
H51   H     H_    0.233830 0.165223 0.742181 0.113606
H52   H     H_    0.716992 0.903980 0.233336 0.119231
H53   H     H_    0.112845 0.697585 0.464706 0.308327
H54   H     H_    0.025367 0.303834 0.601936 0.307591
H55   H     H_    0.595777 0.751945 0.046012 0.106791
H56   H     H_    0.548218 0.169526 0.068825 0.092732
H57   H     H_    0.504034 0.861553 0.002437 0.106697
H58   H     H_    0.621018 0.368322 0.190075 0.117851
N1    N     N_R   0.947560 0.293820 0.002910 -0.041839
N2    N     N_R   0.789450 0.443190 0.997090 -0.039723
N3    N     N_R   0.945970 0.443180 0.152110 -0.065549
N4    N     N_R   0.054030 0.556820 0.847890 -0.066672
N5    N     N_R   0.151530 0.706170 0.208880 -0.049087
N6    N     N_R   0.848470 0.293830 0.791120 -0.039378
N7    N     N_R   0.004980 0.293810 0.946140 -0.043728
N8    N     N_R   0.995020 0.706190 0.053860 -0.043951
N9    N     N_R   0.052440 0.706180 0.997090 -0.041556
N10   N     N_R   0.208960 0.706170 0.152110 -0.045155
N11   N     N_R   0.791040 0.293830 0.847890 -0.044002
N12   N     N_R   0.154330 0.443160 0.946140 -0.036223
N13   N     N_R   0.845670 0.556840 0.053860 -0.042852
N14   N     N_R   0.002190 0.556820 0.208880 -0.071870
N15   N     N_R   0.997810 0.443180 0.791120 -0.072023
N16   N     N_R   0.210550 0.556810 0.002910 -0.040823
Ni1   Ni    Ni4+2 0.869690 0.369690 0.000000 0.208372
Ni2   Ni    Ni4+2 0.130310 0.630310 0.000000 0.202870
Ni3   Ni    Ni4+2 0.001390 0.369680 0.869810 0.257317
Ni4   Ni    Ni4+2 0.998610 0.630320 0.130190 0.235077
O1    O     O_3   0.093079 0.696026 0.395064 -0.804361
O2    O     O_3   0.992504 0.304071 0.649180 -0.785627

loop_
_geom_bond_atom_site_label_1
_geom_bond_atom_site_label_2
_ccdc_geom_bond_type
C75   N16   A    
C1    H1    S    
C73   H14   S    
C58   C62   A    
C56   C76   A    
C45   C71   S    
C22   H9    S    
C14   C18   A    
C1    N1    A    
C67   C77   A    
C24   C27   A    
C12   N9    A    
C65   N15   A    
C81   H48   S    
N2    N13   A    
C26   C28   A    
N11   Ni1   S    
C1    C84   A    
C15   C19   A    
N6    Ni3   S    
C62   C86   A    
C34   C51   S    
C12   C85   A    
C26   C67   S    
C11   C28   S    
C19   C21   A    
C24   C26   A    
C32   C61   A    
C38   C42   A    
C24   H10   S    
C43   H28   S    
C11   C14   A    
C66   C69   S    
C68   C74   S    
C81   N6    A    
C33   C36   A    
C69   C71   S    
C75   H42   S    
C82   H49   S    
H53   O1    S    
C41   H41   S    
C37   H26   S    
C31   H45   S    
C15   H6    S    
C3    C55   A    
C70   H37   S    
C66   C72   S    
C29   C59   S    
N12   Ni3   S    
C49   C51   A    
C22   C25   A    
C4    C57   A    
C50   C52   A    
C86   H33   S    
C34   C81   A    
C23   C80   A    
C61   H19   S    
C77   N3    A    
C12   H12   S    
C82   N7    A    
C44   C47   A    
N14   Ni4   S    
C76   N2    A    
C22   C28   A    
C40   C45   A    
C33   H22   S    
C42   C44   A    
C32   C57   A    
C36   H25   S    
C35   C48   A    
C7    H58   S    
N2    Ni1   S    
C52   C54   A    
C5    C29   A    
H54   O2    S    
C80   N5    A    
C62   C85   S    
C46   C48   A    
C50   C53   A    
C25   C78   S    
C64   C67   A    
C20   H56   S    
N12   N16   A    
C44   H29   S    
C72   C74   S    
N3    Ni1   S    
C9    H3    S    
C71   C73   S    
C78   C79   A    
C39   C43   A    
C56   C72   S    
C66   C73   S    
C65   O2    S    
C80   H47   S    
C51   C53   A    
N4    N15   A    
N16   Ni2   S    
C31   C60   A    
N5    N10   A    
C41   C56   A    
C64   O1    S    
C76   H43   S    
C42   H27   S    
C40   N12   A    
C38   C54   S    
C29   C60   A    
C47   H20   S    
C40   H40   S    
C70   C73   S    
C8    C21   A    
C32   H55   S    
C69   C74   S    
N5    Ni4   S    
N1    N7    A    
C9    C11   A    
N13   Ni4   S    
C21   H57   S    
C83   H50   S    
N8    Ni4   S    
C35   H24   S    
C74   H15   S    
C41   N13   A    
C4    C6    A    
C83   C85   A    
C5    H11   S    
C16   C23   A    
N7    Ni3   S    
N6    N11   A    
C13   C15   A    
C16   N10   A    
C33   C47   A    
C66   H38   S    
C49   H31   S    
C17   C34   A    
C17   N11   A    
C2    C63   A    
C35   C37   A    
C83   N8    A    
C2    H35   S    
C16   H16   S    
C7    C9    A    
C65   C78   A    
C6    C30   A    
C50   H32   S    
C59   C63   A    
N10   Ni2   S    
C8    C10   A    
C13   C27   S    
C3    C5    A    
C10   C13   A    
C2    C58   A    
C79   N4    A    
C25   C27   A    
C63   C84   S    
C82   C84   A    
C55   H51   S    
C46   H30   S    
N9    Ni2   S    
C45   C75   A    
N4    Ni2   S    
C6    H13   S    
C31   C55   A    
C36   C38   A    
C17   H17   S    
C59   C86   A    
C37   C39   A    
C23   C52   S    
C39   C53   S    
N1    Ni1   S    
C69   H36   S    
C3    H23   S    
C68   C71   S    
C79   H46   S    
C30   C58   S    
N15   Ni3   S    
C57   H52   S    
C68   H39   S    
C18   C20   A    
C77   H44   S    
C43   C46   A    
C14   H5    S    
C48   H21   S    
N8    N9    A    
C10   H4    S    
C68   C70   S    
C7    C20   A    
C30   C61   A    
C64   N14   A    
C18   H7    S    
C4    H34   S    
C70   C72   S    
C8    H2    S    
C60   H18   S    
N3    N14   A    
C19   H8    S    
C49   C54   A    
