data_mof_unit_22980.cif
_audit_creation_date              2012-12-11T14:08:10-0500
_audit_creation_method            fapswitch 2.2
_symmetry_space_group_name_H-M    P1
_symmetry_Int_Tables_number       1
_space_group_crystal_system       triclinic
_cell_length_a                    10.920999
_cell_length_b                    10.945322
_cell_length_c                    18.681754
_cell_angle_alpha                 90.440691
_cell_angle_beta                  89.982778
_cell_angle_gamma                 60.444538
_cell_volume                      1942.4487113

loop_
_atom_site_label
_atom_site_type_symbol
_atom_type_description
_atom_site_fract_x
_atom_site_fract_y
_atom_site_fract_z
_atom_type_partial_charge
C1    C     C_R   0.237609 0.644897 0.609117 0.545655
C2    C     C_3   0.705216 0.528759 0.800487 -0.249567
C3    C     C_3   0.695600 0.672130 0.814285 0.058477
C4    C     C_3   0.666102 0.644631 0.678592 0.055756
C5    C     C_3   0.792332 0.668630 0.689747 -0.254077
C6    C     C_3   0.690831 0.511212 0.720240 -0.215988
C7    C     C_2   0.675419 0.156078 0.670543 -0.125348
C8    C     C_2   0.689461 0.166447 0.827734 -0.118691
C9    C     C_2   0.801162 0.121740 0.783735 -0.176150
C10   C     C_2   0.782543 0.154088 0.706834 -0.178685
C11   C     C_2   0.187585 0.658327 0.682657 -0.139016
C12   C     C_R   0.651658 0.619763 0.602807 0.544187
C13   C     C_2   0.197193 0.662925 0.839957 -0.060203
C14   C     C_2   0.214958 0.550508 0.801896 0.050164
C15   C     C_2   0.241525 0.543208 0.724287 -0.172864
C16   C     C_2   0.649646 0.646251 0.317198 -0.092632
C17   C     C_2   0.633421 0.665381 0.159497 -0.107256
C18   C     C_2   0.706652 0.545882 0.195276 -0.162103
C19   C     C_2   0.687724 0.537044 0.271782 -0.148039
C20   C     C_2   0.633073 0.196793 0.318565 -0.101740
C21   C     C_2   0.637303 0.202394 0.163967 -0.109119
C22   C     C_2   0.522681 0.230561 0.201157 -0.165684
C23   C     C_R   0.628235 0.227605 0.601932 0.545474
C24   C     C_2   0.517206 0.257752 0.277103 -0.152107
C25   C     C_2   0.122056 0.680275 0.344954 -0.109325
C26   C     C_2   0.113940 0.691340 0.190707 -0.086265
C27   C     C_2   0.042572 0.803851 0.234222 -0.147100
C28   C     C_2   0.074554 0.799565 0.309566 -0.166858
C29   C     C_R   0.703429 0.102043 0.897513 0.546995
C30   C     C_R   0.721129 0.686552 0.889655 0.539160
C31   C     C_R   0.120341 0.705680 0.907845 0.566376
C32   C     C_R   0.673151 0.114366 0.101277 0.555705
C33   C     C_R   0.692289 0.688653 0.094693 0.552705
C34   C     C_R   0.215542 0.651090 0.404544 0.556095
C35   C     C_R   0.086842 0.713363 0.115288 0.552086
C36   C     C_R   0.641302 0.620969 0.392616 0.552025
C37   C     C_R   0.614282 0.233263 0.393434 0.551446
C38   C     C_3   0.548871 0.790266 0.789448 -0.239093
C39   C     C_3   0.530812 0.772929 0.709309 -0.234808
C40   C     C_3   0.810822 0.683451 0.770121 -0.220202
Cr1   Cr    Cr6+3 0.393010 0.398050 0.501480 1.015863
Cr2   Cr    Cr6+3 0.398820 0.707980 0.501630 1.019421
Cr3   Cr    Cr6+3 0.708140 0.393940 0.496850 1.013285
Cr4   Cr    Cr6+3 0.937950 0.938450 0.008940 1.015788
Cr5   Cr    Cr6+3 0.626180 0.937030 0.994750 1.018657
Cr6   Cr    Cr6+3 0.937790 0.625760 0.001410 1.037971
H1    H     H_    0.538464 0.895626 0.798722 0.144791
H2    H     H_    0.789197 0.417900 0.701190 0.139746
H3    H     H_    0.917311 0.600162 0.786084 0.145678
H4    H     H_    0.890302 0.578936 0.667404 0.134661
H5    H     H_    0.907471 0.056757 0.803532 0.150170
H6    H     H_    0.855577 0.179762 0.680644 0.145310
H7    H     H_    0.583687 0.232583 0.807483 0.099413
H8    H     H_    0.608509 0.121562 0.696260 0.103801
H9    H     H_    0.306759 0.439328 0.701081 0.154046
H10   H     H_    0.219617 0.739387 0.815221 0.064952
H11   H     H_    0.463841 0.786089 0.820360 0.115939
H12   H     H_    0.121562 0.762811 0.704883 0.095232
H13   H     H_    0.793002 0.454180 0.169845 0.151800
H14   H     H_    0.718907 0.432896 0.292063 0.153342
H15   H     H_    0.541743 0.754213 0.183464 0.111839
H16   H     H_    0.617180 0.751763 0.298932 0.095699
H17   H     H_    0.438394 0.217365 0.178296 0.156977
H18   H     H_    0.412854 0.322998 0.299916 0.157948
H19   H     H_    0.717408 0.223008 0.186268 0.096570
H20   H     H_    0.738391 0.131299 0.297136 0.083140
H21   H     H_    0.969881 0.906634 0.212714 0.152515
H22   H     H_    0.438088 0.757584 0.701853 0.144420
H23   H     H_    0.077533 0.889585 0.332536 0.153986
H24   H     H_    0.188107 0.587308 0.209957 0.086180
H25   H     H_    0.110372 0.594059 0.323301 0.107392
H26   H     H_    0.509291 0.870332 0.680662 0.123147
H27   H     H_    0.805296 0.786342 0.780844 0.121374
H28   H     H_    0.774345 0.765303 0.661540 0.115265
H29   H     H_    0.807820 0.441472 0.819222 0.140299
H30   H     H_    0.620294 0.522203 0.830228 0.115576
H31   H     H_    0.602274 0.489977 0.710817 0.123929
O1    O     O_R   0.507110 0.256280 0.580300 -0.522045
O2    O     O_R   0.524640 0.695370 0.425100 -0.490498
O3    O     O_R   0.735890 0.504390 0.415980 -0.513059
O4    O     O_R   0.690560 0.277820 0.422350 -0.503139
O5    O     O_3   0.499990 0.499990 0.499980 -0.252028
O6    O     O_R   0.089190 0.825870 0.932320 -0.533866
O7    O     O_R   0.819070 0.053960 0.931440 -0.497344
O8    O     O_R   0.607070 0.076440 0.916460 -0.519879
O9    O     O_R   0.647110 0.806550 0.917690 -0.512091
O10   O     O_R   0.837080 0.593860 0.915300 -0.521734
O11   O     O_R   0.064770 0.636080 0.932550 -0.454898
O12   O     O_R   0.280830 0.527190 0.577940 -0.499720
O13   O     O_R   0.068250 0.829200 0.092940 -0.515348
O14   O     O_R   0.799650 0.057040 0.080330 -0.509566
O15   O     O_R   0.586130 0.079760 0.077080 -0.509337
O16   O     O_R   0.627700 0.809630 0.066580 -0.496767
O17   O     O_R   0.816140 0.597180 0.075920 -0.512313
O18   O     O_R   0.045360 0.639170 0.081440 -0.494774
O19   O     O_3   0.833980 0.833750 0.001700 -0.255187
O20   O     O_R   0.261360 0.738990 0.584270 -0.520564
O21   O     O_R   0.532590 0.694780 0.574370 -0.509400
O22   O     O_R   0.744470 0.503750 0.577000 -0.528368
O23   O     O_R   0.698520 0.277230 0.571620 -0.498881
O24   O     O_R   0.498530 0.256920 0.419280 -0.512621
O25   O     O_R   0.272880 0.527780 0.428680 -0.507698
O26   O     O_R   0.252780 0.739630 0.423250 -0.508646
N1    N     N_3   0.212598 0.434629 0.836056 -0.588792
H32   H     H_    0.311814 0.346050 0.829081 0.220559
H33   H     H_    0.140279 0.414696 0.809227 0.222498

loop_
_geom_bond_atom_site_label_1
_geom_bond_atom_site_label_2
_ccdc_geom_bond_type
C7    C10   D    
Cr1   O12   S    
C39   H22   S    
C28   H23   S    
Cr2   O5    S    
Cr4   O6    S    
C10   H6    S    
Cr2   O26   S    
N1    H33   S    
Cr4   O13   S    
Cr1   O25   S    
C25   C28   D    
C26   C27   D    
C34   O25   A    
C6    H2    S    
C8    C29   S    
C20   H20   S    
C26   H24   S    
Cr3   O22   S    
Cr2   O21   S    
C38   C39   S    
C32   O14   A    
C40   H3    S    
C31   O6    A    
C40   H27   S    
C18   C19   S    
C5    H28   S    
Cr5   O15   S    
C12   O22   A    
C17   H15   S    
C22   H17   S    
C11   C15   D    
Cr6   O18   S    
C20   C24   D    
C3    C38   S    
C8    C9    D    
C9    H5    S    
C39   H26   S    
C25   H25   S    
C30   O9    A    
C11   H12   S    
C9    C10   S    
C12   O21   A    
C25   C34   S    
C13   H10   S    
C23   O23   A    
Cr5   O16   S    
Cr2   O2    S    
C24   H18   S    
C21   C22   D    
C33   O17   A    
C37   O4    A    
C2    C6    S    
C17   C33   S    
N1    H32   S    
Cr6   O11   S    
C21   C32   S    
Cr3   O23   S    
C29   O7    A    
C4    C6    S    
C36   O3    A    
Cr2   O20   S    
C1    O20   A    
Cr1   O1    S    
C6    H31   S    
Cr3   O3    S    
C15   H9    S    
C3    C30   S    
Cr5   O8    S    
Cr4   O19   S    
C38   H11   S    
C18   H13   S    
C14   N1    S    
Cr6   O17   S    
C4    C39   S    
C17   C18   D    
C38   H1    S    
Cr4   O14   S    
C3    C40   S    
Cr3   O4    S    
C22   C24   S    
C5    H4    S    
C4    C12   S    
C2    H30   S    
Cr6   O10   S    
C1    O12   A    
C31   O11   A    
C21   H19   S    
C29   O8    A    
C13   C31   S    
C4    C5    S    
Cr4   O7    S    
C36   O2    A    
C33   O16   A    
C8    H7    S    
C35   O18   A    
C19   H14   S    
C34   O26   A    
C2    C3    S    
C16   C36   S    
C37   O24   A    
C20   C37   S    
C32   O15   A    
C16   C19   D    
C7    C23   S    
Cr1   O5    S    
Cr1   O24   S    
Cr5   O9    S    
C23   O1    A    
C27   H21   S    
C35   O13   A    
C26   C35   S    
Cr6   O19   S    
C5    C40   S    
C27   C28   S    
Cr3   O5    S    
C14   C15   S    
C1    C11   S    
C7    H8    S    
C30   O10   A    
C13   C14   D    
Cr5   O19   S    
C16   H16   S    
C2    H29   S    
