data_mof_unit_12943.cif
_audit_creation_date              2012-10-26T20:01:49-0400
_audit_creation_method            fapswitch 2.2
_symmetry_space_group_name_H-M    P1
_symmetry_Int_Tables_number       1
_space_group_crystal_system       triclinic
_cell_length_a                    11.70251
_cell_length_b                    10.778135
_cell_length_c                    9.685166
_cell_angle_alpha                 89.7121
_cell_angle_beta                  89.914582
_cell_angle_gamma                 94.715862
_cell_volume                      1217.44880191

loop_
_atom_site_label
_atom_site_type_symbol
_atom_type_description
_atom_site_fract_x
_atom_site_fract_y
_atom_site_fract_z
_atom_type_partial_charge
C1    C     C_R   0.498095 0.262836 0.500091 0.581283
C2    C     C_R   0.492428 0.870072 0.499590 -0.020292
C3    C     C_R   0.641667 0.676515 0.149500 -0.081559
C4    C     C_R   0.284300 0.499038 0.500084 0.513079
C5    C     C_R   0.700895 0.776430 0.086837 -0.198103
C6    C     C_R   0.702158 0.784667 0.946381 -0.130962
C7    C     C_R   0.647497 0.690074 0.864731 0.289429
C8    C     C_R   0.571021 0.591289 0.926393 0.153211
C9    C     C_R   0.569802 0.588537 0.075958 0.099503
C10   C     C_R   0.434940 0.415184 0.075576 0.081554
C11   C     C_R   0.433820 0.414316 0.929452 0.333931
C12   C     C_R   0.204343 0.038056 0.652537 -0.093830
C13   C     C_R   0.498161 0.736798 0.499751 0.543410
C14   C     C_R   0.715650 0.500032 0.499878 0.580972
C15   C     C_1   0.162490 0.499316 0.500262 -0.019558
C16   C     C_1   0.059951 0.499653 0.500202 -0.035797
C17   C     C_1   0.940043 0.499953 0.499950 -0.030964
C18   C     C_1   0.837484 0.500056 0.499777 0.005368
C19   C     C_R   0.298366 0.111125 0.599795 -0.079668
C20   C     C_R   0.205717 0.909180 0.657478 -0.115393
C21   C     C_R   0.300641 0.852668 0.608390 -0.089442
C22   C     C_R   0.397103 0.925039 0.555000 0.012721
C23   C     C_R   0.396761 0.056054 0.552759 -0.019511
C24   C     C_R   0.493402 0.128242 0.499456 0.048923
C25   C     C_R   0.586351 0.072054 0.442045 0.223654
C26   C     C_R   0.584565 0.942604 0.441801 -0.143115
Cu1   Cu    Cu3+1 0.499990 0.499990 0.640660 1.005781
Cu2   Cu    Cu3+1 0.500010 0.500010 0.359340 0.960003
H1    H     H_    0.754929 0.861299 0.900282 0.112697
H2    H     H_    0.129708 0.081554 0.688474 0.123416
H3    H     H_    0.132295 0.852619 0.697677 0.116430
H4    H     H_    0.381040 0.345691 0.131716 0.149036
H5    H     H_    0.296846 0.752229 0.611105 0.134934
H6    H     H_    0.656353 0.897977 0.399020 0.087858
H7    H     H_    0.656527 0.672702 0.256958 0.188961
H8    H     H_    0.750947 0.845156 0.147783 0.121302
H9    H     H_    0.736095 0.091690 0.352611 0.318623
H10   H     H_    0.731126 0.766535 0.704929 0.293370
H11   H     H_    0.351683 0.342942 0.773429 0.370235
H12   H     H_    0.292120 0.210447 0.593512 0.106221
N1    N     N_R   0.501070 0.501210 0.147910 -0.280703
N2    N     N_R   0.501110 0.501290 0.852040 -0.242917
O1    O     O_R   0.499990 0.319640 0.618810 -0.512621
O2    O     O_3   0.679499 0.691803 0.728971 -0.652940
O3    O     O_3   0.362653 0.321769 0.870371 -0.714432
O4    O     O_R   0.500000 0.319660 0.381240 -0.472406
O5    O     O_R   0.337190 0.500000 0.618790 -0.539161
O6    O     O_R   0.337200 0.500030 0.381210 -0.496715
O7    O     O_R   0.500000 0.680340 0.618760 -0.446364
O8    O     O_R   0.500010 0.680360 0.381190 -0.524589
O9    O     O_R   0.662800 0.499970 0.618790 -0.419457
O10   O     O_R   0.662810 0.500000 0.381210 -0.511744
O11   O     O_3   0.678464 0.145787 0.388815 -0.683661

loop_
_geom_bond_atom_site_label_1
_geom_bond_atom_site_label_2
_ccdc_geom_bond_type
C2    C22   A    
C19   C23   A    
C23   C24   A    
H10   O2    S    
C6    C7    A    
C3    C9    A    
Cu1   O1    S    
C14   C18   S    
C9    N1    A    
C14   O9    A    
C3    H7    S    
H11   O3    S    
H9    O11   S    
C12   C20   A    
C4    C15   S    
C17   C18   T    
C7    C8    A    
C2    C26   A    
C7    O2    S    
C20   C21   A    
C10   N1    A    
Cu2   O10   S    
Cu1   N2    S    
Cu2   O4    S    
C16   C17   S    
C1    C24   S    
C13   O7    A    
C12   C19   A    
Cu1   O9    S    
C25   O11   S    
C4    O6    A    
C5    C6    A    
C1    O4    A    
C11   O3    S    
C26   H6    S    
C21   H5    S    
C19   H12   S    
Cu1   O7    S    
C13   O8    A    
C5    H8    S    
C10   H4    S    
Cu2   N1    S    
C6    H1    S    
C24   C25   A    
C11   N2    A    
C10   C11   A    
Cu1   O5    S    
Cu1   Cu2   S    
C2    C13   S    
C22   C23   A    
Cu2   O6    S    
C12   H2    S    
C25   C26   A    
C21   C22   A    
C4    O5    A    
Cu2   O8    S    
C1    O1    A    
C14   O10   A    
C15   C16   T    
C8    N2    A    
C8    C9    A    
C3    C5    A    
C20   H3    S    
