data_mof_unit_48663.cif
_audit_creation_date              2013-03-05T15:45:02-0500
_audit_creation_method            fapswitch 2.2
_symmetry_space_group_name_H-M    P1
_symmetry_Int_Tables_number       1
_space_group_crystal_system       triclinic
_cell_length_a                    9.933896
_cell_length_b                    11.053538
_cell_length_c                    12.989382
_cell_angle_alpha                 88.370261
_cell_angle_beta                  75.709987
_cell_angle_gamma                 110.923051
_cell_volume                      1280.27124978

loop_
_atom_site_label
_atom_site_type_symbol
_atom_site_description
_atom_site_fract_x
_atom_site_fract_y
_atom_site_fract_z
_atom_type_partial_charge
O1    O     O_R   0.578710 0.332530 0.490040 -0.577298
O2    O     O_R   0.421290 0.667470 0.509960 -0.557807
O3    O     O_R   0.329810 0.295070 0.521560 -0.549943
O4    O     O_R   0.670190 0.704930 0.478440 -0.525236
C1    C     C_R   0.438859 0.253756 0.509772 0.718808
C2    C     C_R   0.561191 0.745916 0.490217 0.780219
O5    O     O_R   0.604230 0.515670 0.637800 -0.550502
O6    O     O_R   0.395770 0.484330 0.362200 -0.556572
O7    O     O_R   0.355330 0.478200 0.669330 -0.539199
O8    O     O_R   0.644670 0.521800 0.330670 -0.533101
C3    C     C_R   0.473804 0.499830 0.702655 0.840702
C4    C     C_R   0.527033 0.503608 0.297067 0.848583
Cu1   Cu    Cu3+1 0.647370 0.522180 0.481340 1.087750
Cu2   Cu    Cu3+1 0.352630 0.477820 0.518660 1.075920
C5    C     C_R   0.545721 0.512707 0.181137 -0.222169
C6    C     C_R   0.461429 0.513477 0.816440 -0.221034
C7    C     C_R   0.323937 0.535006 0.993580 0.218197
C8    C     C_R   0.702413 0.547248 0.998422 0.253038
C9    C     C_R   0.324307 0.501196 0.889595 0.394991
C10   C     C_R   0.680373 0.518814 0.108547 0.385135
C11   C     C_R   0.590506 0.544817 0.851470 -0.184155
C12   C     C_R   0.428809 0.519232 0.142571 -0.188084
C13   C     C_R   0.580638 0.544107 0.960296 -0.070058
C14   C     C_R   0.444265 0.534714 0.032793 -0.050380
H1    H     H_    0.322204 0.503886 0.198821 0.238235
H2    H     H_    0.696683 0.560679 0.794584 0.257049
H3    H     H_    0.379188 0.862534 0.559303 0.243317
H4    H     H_    0.623953 0.135924 0.453918 0.215167
C15   C     C_2   0.401890 0.113070 0.527175 0.181352
C16   C     C_2   0.599123 0.886404 0.479556 0.155442
C17   C     C_2   0.513062 0.068645 0.497799 -0.184759
C18   C     C_2   0.490059 0.931180 0.516950 -0.162760
N1    N     N_2   0.131210 0.444490 0.546730 -0.304800
N2    N     N_2   0.868790 0.555510 0.453270 -0.310804
C19   C     C_2   0.082108 0.521512 0.500274 0.346859
C20   C     C_2   0.916478 0.489538 0.512053 0.337143
H5    H     H_    0.947545 0.628561 0.394959 0.254755
H6    H     H_    0.053232 0.356905 0.588527 0.239313
O9    O     O_3   0.790233 0.496501 0.145259 -0.525193
C21   C     C_3   0.786382 0.369071 0.128038 0.135399
H7    H     H_    0.898258 0.367905 0.125788 0.189879
H8    H     H_    0.765575 0.341238 0.049993 0.136135
C22   C     C_3   0.671107 0.265734 0.219512 -0.459206
H9    H     H_    0.697987 0.291173 0.295953 0.253441
H10   H     H_    0.556764 0.263080 0.224904 0.211736
C23   C     C_3   0.673285 0.130391 0.201894 -0.794188
H11   H     H_    0.647938 0.103425 0.125117 0.263130
H12   H     H_    0.587184 0.056784 0.267988 0.277750
H13   H     H_    0.784961 0.128738 0.200138 0.277129
O10   O     O_3   0.193481 0.462321 0.857713 -0.509280
C24   C     C_3   0.098155 0.334084 0.908008 0.112941
H14   H     H_    0.981265 0.322778 0.912781 0.206774
H15   H     H_    0.100928 0.315145 0.992153 0.095019
C25   C     C_3   0.133300 0.230756 0.842222 -0.393853
H16   H     H_    0.124383 0.247465 0.759804 0.264085
H17   H     H_    0.249391 0.238226 0.836997 0.216013
C26   C     C_3   0.024379 0.093447 0.893402 -0.733339
H18   H     H_    0.032879 0.073663 0.975418 0.256901
H19   H     H_    0.051755 0.020343 0.844560 0.317782
H20   H     H_    0.907459 0.082613 0.897778 0.251560
N3    N     N_R   0.210174 0.578819 0.053555 0.118469
O11   O     O_R   0.099074 0.575180 0.016347 -0.250382
O12   O     O_R   0.238607 0.655197 0.126312 -0.291192
N4    N     N_R   0.848974 0.580913 0.926810 0.158276
O13   O     O_R   0.945885 0.700081 0.913567 -0.248452
O14   O     O_R   0.882122 0.496280 0.868905 -0.321618
N5    N     N_R   0.750840 0.971816 0.426598 0.126436
O15   O     O_R   0.822172 0.944638 0.337730 -0.330454
O16   O     O_R   0.826457 0.058692 0.477517 -0.268279
N6    N     N_R   0.250298 0.027649 0.580545 0.143998
O17   O     O_R   0.220631 0.960048 0.672598 -0.325546
O18   O     O_R   0.140052 0.034526 0.546753 -0.258343
N7    N     N_R   0.810564 0.385474 0.592315 0.129915
O19   O     O_R   0.792831 0.403752 0.692249 -0.336117
O20   O     O_R   0.776670 0.266577 0.569547 -0.344369
N8    N     N_R   0.184893 0.645270 0.441944 0.121260
O21   O     O_R   0.168296 0.750950 0.473541 -0.331169
O22   O     O_R   0.264146 0.650921 0.344826 -0.326357

loop_
_geom_bond_atom_site_label_1
_geom_bond_atom_site_label_2
_geom_bond_distance
_ccdc_geom_bond_type
C11   H2    1.079378 S    
C6    C11   1.396757 A    
N2    H5    1.029201 S    
N7    O19   1.297807 A    
C19   C20   1.520792 S    
C22   H9    1.108783 S    
Cu2   N1    2.030868 S    
O5    C3    1.307587 A    
C23   H13   1.110675 S    
O1    C1    1.304401 A    
N8    O22   1.298160 A    
C26   H19   1.109204 S    
C24   H14   1.108227 S    
O4    Cu1   1.948780 S    
N3    O12   1.300969 A    
N1    C19   1.318930 D    
C25   H16   1.111451 S    
C21   C22   1.531251 S    
C12   H1    1.080182 S    
C13   C14   1.413155 A    
N6    O17   1.301097 A    
N2    C20   1.316366 D    
C16   N5    1.439093 S    
C7    N3    1.447880 S    
C21   H8    1.113928 S    
Cu1   Cu2   2.703430 S    
N7    O20   1.297407 A    
O2    C2    1.303762 A    
C1    C15   1.461299 S    
C5    C12   1.396397 A    
C5    C10   1.411423 A    
C25   H17   1.111038 S    
C19   N8    1.431600 S    
C7    C14   1.411185 A    
C8    C13   1.405903 A    
N8    O21   1.300611 A    
O4    C2    1.293678 A    
O9    C21   1.420971 S    
C10   O9    1.386260 S    
C26   H20   1.110983 S    
N5    O15   1.301088 A    
N5    O16   1.300020 A    
N4    O14   1.298878 A    
O7    Cu2   1.964006 S    
C22   H10   1.110306 S    
C3    C6    1.469209 S    
C17   C18   1.457855 S    
C4    C5    1.467053 S    
O6    C4    1.306968 A    
O10   C24   1.419853 S    
O7    C3    1.298479 A    
O3    Cu2   1.948780 S    
O8    C4    1.298280 A    
C21   H7    1.109227 S    
C2    C16   1.454890 S    
C11   C13   1.392226 A    
C12   C14   1.394805 A    
O1    Cu1   1.949291 S    
C15   N6    1.439346 S    
C23   H11   1.110887 S    
O6    Cu2   1.964398 S    
H3    C18   1.082448 S    
H4    C17   1.082698 S    
O3    C1    1.296493 A    
O8    Cu1   1.964007 S    
N1    H6    1.029048 S    
C24   C25   1.532842 S    
N4    O13   1.300430 A    
Cu1   N2    2.030869 S    
C15   C17   1.340269 D    
C16   C18   1.338501 D    
C9    O10   1.386388 S    
C8    N4    1.431178 S    
C26   H18   1.110965 S    
C6    C9    1.413670 A    
C7    C9    1.411140 A    
C8    C10   1.401279 A    
N3    O11   1.298450 A    
O2    Cu2   1.949290 S    
C22   C23   1.526777 S    
C20   N7    1.429318 S    
C23   H12   1.109658 S    
O5    Cu1   1.964396 S    
N6    O18   1.301043 A    
C24   H15   1.115879 S    
C25   C26   1.526712 S    
