data_mof_unit_65148.cif
_audit_creation_date              2012-12-10T19:01:18-0500
_audit_creation_method            fapswitch 2.2
_symmetry_space_group_name_H-M    P1
_symmetry_Int_Tables_number       1
_space_group_crystal_system       triclinic
_cell_length_a                    15.861979
_cell_length_b                    14.259716
_cell_length_c                    13.381959
_cell_angle_alpha                 90.000187
_cell_angle_beta                  89.981695
_cell_angle_gamma                 90.000073
_cell_volume                      3026.82923103

loop_
_atom_site_label
_atom_site_type_symbol
_atom_type_description
_atom_site_fract_x
_atom_site_fract_y
_atom_site_fract_z
_atom_type_partial_charge
Br1   Br    Br    0.088060 0.667402 0.642443 -0.269601
Br2   Br    Br    0.108755 0.702052 0.420868 -0.295449
Br3   Br    Br    0.891254 0.692215 0.602698 -0.293553
Br4   Br    Br    0.911943 0.681715 0.378348 -0.271216
C1    C     C_R   0.500000 0.326567 0.500000 0.912252
C2    C     C_1   0.500000 0.499979 0.950478 -0.018600
C3    C     C_R   0.336003 0.498744 0.500022 0.934140
C4    C     C_R   0.663997 0.498738 0.499983 0.934299
C5    C     C_R   0.500000 0.673449 0.500000 0.947613
C6    C     C_3   0.048012 0.447704 0.587025 0.148120
C7    C     C_3   0.049264 0.468341 0.401035 0.196727
C8    C     C_3   0.950739 0.457907 0.593735 0.196724
C9    C     C_3   0.951982 0.457492 0.406448 0.148120
C10   C     C_1   0.752041 0.503218 0.499941 -0.158627
C11   C     C_1   0.247959 0.503201 0.500124 -0.158623
C12   C     C_1   0.499999 0.141346 0.500000 0.010568
C13   C     C_3   0.082394 0.511873 0.500893 -0.101327
C14   C     C_3   0.917606 0.511936 0.499881 -0.101318
C15   C     C_3   0.950025 0.617005 0.500410 0.446724
C16   C     C_3   0.049979 0.616304 0.513254 0.446890
C17   C     C_1   0.826643 0.507539 0.499897 0.103522
C18   C     C_1   0.173356 0.507499 0.500422 0.103912
C19   C     C_1   0.499999 0.225913 0.500000 -0.208113
C20   C     C_1   0.499999 0.042285 0.500001 0.033911
C21   C     C_1   0.499999 0.957724 0.500001 0.040717
C22   C     C_1   0.499999 0.858665 0.500001 0.030730
C23   C     C_1   0.499999 0.774099 0.500001 -0.181827
C24   C     C_1   0.500000 0.499979 0.169449 0.107933
C25   C     C_1   0.500000 0.499979 0.830551 0.109907
C26   C     C_1   0.500000 0.499979 0.049522 -0.018988
H1    H     H_    0.922759 0.385872 0.593270 0.061317
H2    H     H_    0.938640 0.381079 0.416996 0.047284
H3    H     H_    0.061348 0.372937 0.567169 0.047371
H4    H     H_    0.077243 0.396732 0.392667 0.061437
H5    H     H_    0.072029 0.481079 0.258799 0.374160
H6    H     H_    0.139707 0.430399 0.682445 0.340217
H7    H     H_    0.860226 0.450717 0.309618 0.340838
H8    H     H_    0.927991 0.455201 0.736590 0.373186
N1    N     N_1   0.500000 0.499980 0.261870 -0.058756
N2    N     N_1   0.500000 0.499980 0.738130 -0.058382
O1    O     O_R   0.500000 0.373720 0.576470 -0.600620
O2    O     O_3   0.086130 0.466324 0.679976 -0.643711
O3    O     O_3   0.913863 0.486036 0.316403 -0.642439
O4    O     O_3   0.926278 0.502975 0.682640 -0.618844
O5    O     O_R   0.500000 0.373720 0.423530 -0.600709
O6    O     O_R   0.377150 0.500010 0.576490 -0.605071
O7    O     O_R   0.377150 0.500010 0.423510 -0.599035
O8    O     O_R   0.622850 0.500010 0.576490 -0.597294
O9    O     O_R   0.622850 0.500010 0.423510 -0.606989
O10   O     O_R   0.500000 0.626290 0.576440 -0.590796
O11   O     O_R   0.500000 0.626290 0.423560 -0.590955
O12   O     O_3   0.073730 0.522709 0.318250 -0.618010
Zn1   Zn    Zn3+2 0.500000 0.500010 0.602090 1.006107
Zn2   Zn    Zn3+2 0.500000 0.500010 0.397910 1.004128

loop_
_geom_bond_atom_site_label_1
_geom_bond_atom_site_label_2
_ccdc_geom_bond_type
H7    O3    S    
C4    O8    A    
Br3   C15   S    
C6    O2    S    
C14   C17   S    
C9    H2    S    
H6    O2    S    
C15   C16   S    
C1    C19   S    
O11   Zn2   S    
C12   C19   T    
C13   C16   S    
C24   C26   S    
C8    O4    S    
H8    O4    S    
C7    C9    S    
O1    Zn1   S    
C22   C23   T    
C6    C8    S    
C9    C14   S    
O7    Zn2   S    
C10   C17   T    
O6    Zn1   S    
C3    C11   S    
C2    C26   T    
O5    Zn2   S    
C14   C15   S    
C6    H3    S    
C11   C18   T    
C8    H1    S    
O8    Zn1   S    
N1    Zn2   S    
C6    C13   S    
Br2   C16   S    
O9    Zn2   S    
O10   Zn1   S    
C3    O6    A    
C9    O3    S    
C2    C25   S    
C20   C21   T    
C5    C23   S    
C12   C20   S    
N2    Zn1   S    
C5    O11   A    
C8    C14   S    
H5    O12   S    
C1    O1    A    
C7    C13   S    
Br1   C16   S    
C4    C10   S    
C7    O12   S    
C24   N1    T    
C25   N2    T    
C21   C22   S    
Br4   C15   S    
C1    O5    A    
C4    O9    A    
C7    H4    S    
C5    O10   A    
C13   C18   S    
C3    O7    A    
