data_mof_unit_48896.cif
_audit_creation_date              2012-12-10T18:01:45-0500
_audit_creation_method            fapswitch 2.2
_symmetry_space_group_name_H-M    P1
_symmetry_Int_Tables_number       1
_space_group_crystal_system       triclinic
_cell_length_a                    10.907823
_cell_length_b                    9.484709
_cell_length_c                    19.383143
_cell_angle_alpha                 90.055805
_cell_angle_beta                  89.497442
_cell_angle_gamma                 90.178716
_cell_volume                      2005.2442463

loop_
_atom_site_label
_atom_site_type_symbol
_atom_type_description
_atom_site_fract_x
_atom_site_fract_y
_atom_site_fract_z
_atom_type_partial_charge
C1    C     C_R   0.261603 0.500200 0.501900 0.899843
C2    C     C_R   0.737786 0.500398 0.500205 0.899407
C3    C     C_R   0.504903 0.496032 0.931731 0.429915
C4    C     C_R   0.502256 0.494428 0.071330 0.429587
C5    C     C_R   0.498991 0.499811 0.367791 0.856921
C6    C     C_R   0.501956 0.499794 0.632978 0.801084
C7    C     C_R   0.061635 0.380664 0.527548 0.360830
C8    C     C_R   0.935876 0.620951 0.480199 0.336844
C9    C     C_R   0.933478 0.387011 0.533369 0.366669
C10   C     C_R   0.062769 0.627190 0.489279 0.356893
C11   C     C_R   0.871062 0.502424 0.504483 -0.377632
C12   C     C_R   0.126986 0.502361 0.506319 -0.385243
C13   C     C_R   0.417698 0.074235 0.461240 -0.016277
C14   C     C_R   0.583166 0.925810 0.537724 -0.065882
C15   C     C_R   0.582990 0.074680 0.538064 -0.027081
C16   C     C_R   0.418000 0.925143 0.461073 -0.027616
C17   C     C_R   0.398244 0.553356 0.255988 -0.002279
C18   C     C_R   0.437028 0.394327 0.747474 0.009851
C19   C     C_R   0.577648 0.597830 0.746802 0.017645
C20   C     C_R   0.601099 0.440262 0.256235 0.002169
C21   C     C_R   0.402874 0.557891 0.183404 0.434419
C22   C     C_R   0.443225 0.390340 0.819927 0.434135
C23   C     C_R   0.570710 0.602168 0.819563 0.436187
C24   C     C_R   0.597369 0.429999 0.183870 0.433521
C25   C     C_R   0.500656 0.493449 0.147325 -0.210326
C26   C     C_R   0.505925 0.496763 0.855885 -0.209984
C27   C     C_R   0.499692 0.498633 0.292251 -0.206572
C28   C     C_R   0.505112 0.498102 0.709902 -0.248838
Cu1   Cu    Cu3+1 0.500000 0.640660 0.500000 0.942734
Cu2   Cu    Cu3+1 0.500000 0.359340 0.500000 0.952605
H1    H     H_    0.351885 0.130345 0.430246 0.142209
H2    H     H_    0.650688 0.869158 0.566677 0.132901
H3    H     H_    0.649184 0.130882 0.568711 0.161727
H4    H     H_    0.352723 0.868535 0.429739 0.157219
N1    N     N_R   0.500000 0.852070 0.500000 -0.158144
N2    N     N_R   0.500000 0.147930 0.500000 -0.159644
N3    N     N_R   0.608578 0.516212 0.035979 -0.190411
N4    N     N_R   0.398627 0.474279 0.967029 -0.189434
N5    N     N_R   0.609945 0.516752 0.967365 -0.193634
N6    N     N_R   0.397380 0.473327 0.035604 -0.178616
O1    O     O_R   0.319640 0.618740 0.500000 -0.560260
O2    O     O_R   0.680360 0.381260 0.500000 -0.546619
O3    O     O_R   0.680360 0.618740 0.500000 -0.570978
O4    O     O_R   0.319640 0.381260 0.500000 -0.546697
O5    O     O_R   0.499980 0.618820 0.400140 -0.585243
O6    O     O_R   0.500020 0.381180 0.599860 -0.578363
O7    O     O_R   0.500020 0.618820 0.599860 -0.583617
O8    O     O_R   0.499980 0.381180 0.400140 -0.589628
O9    O     O_3   0.122223 0.252644 0.533486 -0.545614
C29   C     C_3   0.114257 0.199369 0.601263 -0.268778
H5    H     H_    0.111747 0.283332 0.641416 0.119918
H6    H     H_    0.196210 0.134088 0.610493 0.160893
H7    H     H_    0.034569 0.127272 0.606685 0.200094
O10   O     O_3   0.878621 0.714444 0.435755 -0.554531
C30   C     C_3   0.864500 0.848381 0.466396 -0.147192
H8    H     H_    0.849430 0.843615 0.523217 0.104582
H9    H     H_    0.782849 0.899173 0.443666 0.170881
H10   H     H_    0.943914 0.916919 0.453398 0.199960
O11   O     O_3   0.869715 0.274041 0.561321 -0.553177
C31   C     C_3   0.832068 0.309691 0.629200 -0.372422
H11   H     H_    0.799262 0.212715 0.655542 0.172787
H12   H     H_    0.755016 0.385718 0.628910 0.164530
H13   H     H_    0.908183 0.353759 0.660512 0.141680
O12   O     O_3   0.124075 0.750744 0.473016 -0.546347
C32   C     C_3   0.136818 0.831248 0.534183 -0.318419
H14   H     H_    0.202571 0.782541 0.570425 0.177924
H15   H     H_    0.048434 0.846959 0.561990 0.122046
H16   H     H_    0.172586 0.936952 0.520110 0.203230
C33   C     C_3   0.283181 0.603193 0.293822 -0.343970
C34   C     C_3   0.204401 0.478329 0.317058 -0.775395
H17   H     H_    0.255293 0.409739 0.353138 0.238093
H18   H     H_    0.120719 0.517460 0.343796 0.248591
H19   H     H_    0.176134 0.414934 0.271647 0.261479
H20   H     H_    0.306747 0.669747 0.338852 0.209318
H21   H     H_    0.225708 0.671061 0.260686 0.242597
C35   C     C_3   0.357138 0.285140 0.711953 -0.294924
C36   C     C_3   0.427620 0.148254 0.698211 -0.783717
H22   H     H_    0.386103 0.089595 0.654745 0.225090
H23   H     H_    0.525210 0.169668 0.684995 0.248803
H24   H     H_    0.423757 0.079046 0.744237 0.237913
H25   H     H_    0.274347 0.261014 0.743678 0.211501
H26   H     H_    0.319806 0.327860 0.663426 0.190402
C37   C     C_3   0.671811 0.692235 0.711074 -0.297917
C38   C     C_3   0.629685 0.845447 0.706802 -0.814190
H27   H     H_    0.699206 0.908331 0.678109 0.204763
H28   H     H_    0.539895 0.852311 0.680539 0.258126
H29   H     H_    0.621672 0.894149 0.758360 0.264112
H30   H     H_    0.759502 0.688269 0.739791 0.211680
H31   H     H_    0.695462 0.653814 0.658604 0.169506
C39   C     C_3   0.716576 0.395279 0.293924 -0.297579
C40   C     C_3   0.717361 0.237634 0.310177 -0.771974
H32   H     H_    0.790616 0.215118 0.348018 0.237636
H33   H     H_    0.736989 0.175567 0.262934 0.249418
H34   H     H_    0.628315 0.202691 0.332462 0.259383
H35   H     H_    0.799266 0.421959 0.262599 0.231797
H36   H     H_    0.727277 0.455410 0.342695 0.186267
O13   O     O_3   0.308159 0.619868 0.147410 -0.546654
C41   C     C_3   0.339708 0.761884 0.134391 -0.307459
H37   H     H_    0.421762 0.770123 0.100110 0.156390
H38   H     H_    0.355526 0.821193 0.183133 0.141357
H39   H     H_    0.262302 0.812958 0.107487 0.203383
O14   O     O_3   0.381653 0.284484 0.855516 -0.550444
C42   C     C_3   0.466764 0.182648 0.878012 -0.309334
H40   H     H_    0.416411 0.082981 0.888173 0.177454
H41   H     H_    0.509652 0.215430 0.927216 0.172329
H42   H     H_    0.539729 0.159545 0.839002 0.141252
O15   O     O_3   0.635841 0.704768 0.854956 -0.546637
C43   C     C_3   0.553672 0.806607 0.881804 -0.316502
H43   H     H_    0.515219 0.773100 0.932331 0.179409
H44   H     H_    0.477531 0.831870 0.845878 0.138064
H45   H     H_    0.605581 0.905497 0.890913 0.175652
O16   O     O_3   0.692347 0.363012 0.149161 -0.547629
C44   C     C_3   0.652552 0.227714 0.128170 -0.279137
H46   H     H_    0.597224 0.234100 0.080496 0.163283
H47   H     H_    0.599157 0.171386 0.169030 0.137924
H48   H     H_    0.734445 0.162898 0.116075 0.192149

loop_
_geom_bond_atom_site_label_1
_geom_bond_atom_site_label_2
_ccdc_geom_bond_type
C30   H8    S    
C17   C33   S    
C24   O16   S    
C38   H29   S    
C4    C25   S    
C39   H35   S    
C36   H22   S    
Cu1   O7    S    
C31   H13   S    
Cu2   O8    S    
C38   H28   S    
C16   N1    A    
C43   H43   S    
C31   H12   S    
C23   C26   A    
O9    C29   S    
C16   H4    S    
C5    C27   S    
C38   H27   S    
C6    C28   S    
C20   C24   A    
C3    N4    A    
C32   H15   S    
C29   H6    S    
O15   C43   S    
C34   H17   S    
C44   H48   S    
C37   H30   S    
C3    N5    A    
O11   C31   S    
Cu1   O3    S    
Cu2   O4    S    
O14   C42   S    
C1    C12   S    
C19   C37   S    
C2    C11   S    
O16   C44   S    
Cu2   O6    S    
O13   C41   S    
C36   H23   S    
C7    C12   A    
C37   H31   S    
C5    O8    A    
C29   H7    S    
C6    O7    A    
C17   C27   A    
C4    N6    A    
C18   C28   A    
C24   C25   A    
C7    O9    S    
C13   N2    A    
C8    O10   S    
C40   H32   S    
C5    O5    A    
C17   C21   A    
Cu1   O5    S    
C31   H11   S    
C9    O11   S    
C19   C23   A    
Cu1   Cu2   S    
C40   H33   S    
C21   O13   S    
C1    O4    A    
C37   C38   S    
C2    O3    A    
C32   H16   S    
C23   O15   S    
C34   H19   S    
C29   H5    S    
C33   H20   S    
C42   H41   S    
C35   C36   S    
C19   C28   A    
C9    C11   A    
C10   C12   A    
C1    O1    A    
C41   H37   S    
C41   H38   S    
C30   H9    S    
C13   C16   A    
C35   H26   S    
C15   N2    A    
C14   N1    A    
C44   H46   S    
C36   H24   S    
C7    C9    A    
C21   C25   A    
O10   C30   S    
C18   C35   S    
C6    O6    A    
Cu1   O1    S    
C18   C22   A    
C13   H1    S    
C3    C26   S    
C10   O12   S    
C14   H2    S    
C35   H25   S    
C39   H36   S    
C20   C27   A    
C41   H39   S    
Cu1   N1    S    
C22   O14   S    
C43   H45   S    
Cu2   N2    S    
O12   C32   S    
N3    N5    A    
C40   H34   S    
N4    N6    A    
C39   C40   S    
C20   C39   S    
C2    O2    A    
C8    C11   A    
C43   H44   S    
C33   H21   S    
C42   H42   S    
C33   C34   S    
C4    N3    A    
C8    C10   A    
C32   H14   S    
C22   C26   A    
C30   H10   S    
C42   H40   S    
C14   C15   A    
Cu2   O2    S    
C34   H18   S    
C15   H3    S    
C44   H47   S    
