data_mof_unit_62078.cif
_audit_creation_date              2012-10-26T21:22:58-0400
_audit_creation_method            fapswitch 2.2
_symmetry_space_group_name_H-M    P1
_symmetry_Int_Tables_number       1
_space_group_crystal_system       triclinic
_cell_length_a                    19.479359
_cell_length_b                    18.134928
_cell_length_c                    15.910981
_cell_angle_alpha                 90.000894
_cell_angle_beta                  91.166088
_cell_angle_gamma                 89.901743
_cell_volume                      5619.48951986

loop_
_atom_site_label
_atom_site_type_symbol
_atom_type_description
_atom_site_fract_x
_atom_site_fract_y
_atom_site_fract_z
_atom_type_partial_charge
Br1   Br    Br    0.295401 0.337718 0.544056 -0.410971
Br2   Br    Br    0.290780 0.664063 0.520308 -0.401087
Br3   Br    Br    0.407216 0.685737 0.355299 -0.334138
Br4   Br    Br    0.402483 0.315331 0.360492 -0.342832
Br5   Br    Br    0.596211 0.092639 0.360132 -0.322843
Br6   Br    Br    0.596770 0.907878 0.360002 -0.334242
Br7   Br    Br    0.917368 0.588558 0.352649 -0.406953
Br8   Br    Br    0.916765 0.407287 0.655936 -0.423776
C1    C     C_R   0.367219 0.500023 0.504440 0.591839
C2    C     C_R   0.815886 0.563790 0.520378 -0.048934
C3    C     C_R   0.851374 0.498550 0.502837 0.075090
C4    C     C_R   0.707703 0.499615 0.500617 0.021370
C5    C     C_R   0.963009 0.536633 0.442987 0.150787
C6    C     C_R   0.962756 0.458681 0.567869 0.151870
C7    C     C_R   0.499980 0.499983 0.340156 0.589378
C8    C     C_R   0.034546 0.536485 0.445579 -0.071517
C9    C     C_R   0.034308 0.458331 0.569128 -0.073049
C10   C     C_R   0.070465 0.497359 0.508368 -0.034663
C11   C     C_R   0.926617 0.497874 0.504520 0.025325
C12   C     C_3   0.561768 0.436070 0.951788 0.023461
C13   C     C_R   0.182638 0.432387 0.519444 -0.074162
C14   C     C_R   0.180971 0.564807 0.507821 -0.075359
C15   C     C_R   0.254219 0.432388 0.521133 0.151102
C16   C     C_R   0.252485 0.566714 0.510495 0.152650
C17   C     C_R   0.290977 0.499784 0.511942 0.024334
C18   C     C_R   0.145867 0.498029 0.510853 -0.036743
C19   C     C_R   0.464118 0.726527 0.443144 0.338946
C20   C     C_R   0.462323 0.273711 0.444921 0.348137
C21   C     C_R   0.468409 0.803669 0.446522 -0.092438
C22   C     C_R   0.466545 0.196532 0.448251 -0.085136
C23   C     C_3   0.552614 0.429900 0.053553 -0.017813
C24   C     C_R   0.509947 0.838834 0.507131 -0.016535
C25   C     C_R   0.509407 0.161231 0.507549 -0.021733
C26   C     C_R   0.632404 0.499923 0.500139 0.544274
C27   C     C_R   0.547178 0.794297 0.565496 0.027362
C28   C     C_R   0.547960 0.205702 0.564703 0.025094
C29   C     C_R   0.540668 0.716605 0.559966 0.028753
C30   C     C_R   0.541793 0.283333 0.558826 0.033035
C31   C     C_R   0.478064 0.961270 0.569497 -0.095407
C32   C     C_R   0.477902 0.038650 0.569582 -0.096689
C33   C     C_R   0.512131 0.078530 0.507456 0.029555
C34   C     C_1   0.502926 0.497605 0.824513 0.044770
C35   C     C_R   0.512440 0.921531 0.507265 0.037895
C36   C     C_R   0.547219 0.039220 0.444664 0.218162
C37   C     C_R   0.547375 0.961016 0.444559 0.221717
C38   C     C_R   0.500136 0.499967 0.659857 0.548564
C39   C     C_3   0.534611 0.571410 0.046351 -0.075821
C40   C     C_3   0.429871 0.485699 0.046217 -0.087870
C41   C     C_3   0.433189 0.473377 0.949251 -0.242219
C42   C     C_3   0.519478 0.573672 0.950450 -0.242929
C43   C     C_1   0.501333 0.499508 0.749197 0.061856
C44   C     C_3   0.505152 0.497278 0.083156 -0.076041
C45   C     C_1   0.502766 0.499153 0.175702 0.084851
C46   C     C_3   0.505460 0.494114 0.916785 -0.037461
C47   C     C_2   0.594227 0.826168 0.630904 0.584792
C48   C     C_2   0.595712 0.174259 0.629737 0.584215
C49   C     C_2   0.512571 0.641334 0.091689 0.617762
C50   C     C_2   0.380217 0.546840 0.070449 0.603136
C51   C     C_2   0.623357 0.428961 0.099503 0.608981
C52   C     C_2   0.517288 0.357689 0.083010 0.596245
C53   C     C_2   0.634905 0.460697 0.926389 0.565295
C54   C     C_2   0.554515 0.360054 0.909223 0.637742
C55   C     C_1   0.501175 0.499800 0.250948 0.136629
C56   C     C_R   0.743578 0.434273 0.483329 -0.091953
C57   C     C_R   0.744380 0.564476 0.518823 -0.089391
C58   C     C_R   0.815058 0.433899 0.483977 -0.050443
Cu1   Cu    Cu3+1 0.500000 0.573360 0.499980 1.073777
Cu2   Cu    Cu3+1 0.500000 0.426640 0.499980 1.077610
H1    H     H_    0.473610 0.608190 0.935395 0.208279
H2    H     H_    0.571666 0.318072 0.600926 0.182918
H3    H     H_    0.450816 0.932117 0.617944 0.149440
H4    H     H_    0.450545 0.067694 0.618098 0.149347
H5    H     H_    0.407198 0.435187 0.073689 0.156140
H6    H     H_    0.591284 0.571400 0.052996 0.180116
H7    H     H_    0.421041 0.415134 0.934282 0.210402
H8    H     H_    0.561706 0.602437 0.918293 0.191393
H9    H     H_    0.716455 0.383618 0.468802 0.154736
H10   H     H_    0.717878 0.615457 0.532730 0.150016
H11   H     H_    0.842163 0.383277 0.470053 0.158290
H12   H     H_    0.392868 0.505230 0.914629 0.183182
H13   H     H_    0.843653 0.613974 0.535310 0.157521
H14   H     H_    0.651255 0.912527 0.671392 0.374225
H15   H     H_    0.651684 0.191531 0.736160 0.377599
H16   H     H_    0.520544 0.703083 0.197006 0.376524
H17   H     H_    0.321031 0.633500 0.035395 0.377785
H18   H     H_    0.708082 0.369654 0.130657 0.367638
H19   H     H_    0.449681 0.275223 0.060198 0.372758
H20   H     H_    0.736463 0.437201 0.924587 0.370272
H21   H     H_    0.506005 0.294167 0.824587 0.369332
H22   H     H_    0.062230 0.566126 0.397860 0.170284
H23   H     H_    0.061759 0.428807 0.618583 0.166006
H24   H     H_    0.155399 0.380604 0.524874 0.168437
H25   H     H_    0.152355 0.616110 0.505766 0.169520
H26   H     H_    0.439446 0.836437 0.401174 0.161553
H27   H     H_    0.436380 0.163874 0.404084 0.161722
H28   H     H_    0.569713 0.681874 0.603058 0.168381
N1    N     N_R   0.500020 0.683620 0.499990 -0.236359
N2    N     N_R   0.500020 0.316380 0.499990 -0.238662
O1    O     O_R   0.400180 0.561980 0.499960 -0.440261
O2    O     O_R   0.619760 0.897778 0.622762 -0.638677
O3    O     O_2   0.615212 0.110279 0.625435 -0.454086
O4    O     O_R   0.619432 0.218724 0.696038 -0.684106
O5    O     O_2   0.474972 0.686763 0.057278 -0.452433
O6    O     O_R   0.538053 0.654965 0.173000 -0.643982
O7    O     O_2   0.363001 0.552580 0.143664 -0.458527
O8    O     O_R   0.353247 0.595838 0.010350 -0.669101
O9    O     O_2   0.644369 0.481935 0.139995 -0.504573
O10   O     O_R   0.663266 0.364659 0.097633 -0.562306
O11   O     O_2   0.527768 0.334961 0.154693 -0.438988
O12   O     O_R   0.400180 0.438020 0.499960 -0.439378
O13   O     O_R   0.469614 0.320196 0.031832 -0.692455
O14   O     O_2   0.643956 0.515507 0.883366 -0.519468
O15   O     O_R   0.691886 0.416368 0.946200 -0.595680
O16   O     O_2   0.593291 0.309869 0.930448 -0.385351
O17   O     O_R   0.504401 0.346509 0.846868 -0.692334
O18   O     O_R   0.500000 0.561980 0.379420 -0.455477
O19   O     O_R   0.500000 0.438020 0.379420 -0.465057
O20   O     O_R   0.599810 0.561930 0.500000 -0.515418
O21   O     O_R   0.599810 0.438070 0.500000 -0.519401
O22   O     O_R   0.499990 0.561930 0.620540 -0.515756
O23   O     O_R   0.499990 0.438070 0.620540 -0.498459
O24   O     O_2   0.611826 0.789011 0.691826 -0.492733

loop_
_geom_bond_atom_site_label_1
_geom_bond_atom_site_label_2
_ccdc_geom_bond_type
C26   O20   A    
C13   C18   A    
H21   O17   S    
C8    H22   S    
H15   O4    S    
C19   C21   A    
C56   H9    S    
C10   C18   S    
C23   C44   S    
C30   N2    A    
C29   N1    A    
C1    C17   S    
C44   C45   S    
C58   H11   S    
C3    C11   S    
C42   C46   S    
C27   C29   A    
C42   H1    S    
C48   O3    D    
C54   O16   D    
C21   C24   A    
Cu2   O21   S    
C21   H26   S    
C4    C56   A    
H19   O13   S    
C41   C46   S    
C1    O12   A    
C25   C28   A    
C23   C51   S    
H20   O15   S    
C52   O11   D    
C9    H23   S    
C47   O2    S    
C41   H7    S    
C38   O23   A    
Cu1   O22   S    
C3    C58   A    
Cu1   O1    S    
C34   C43   T    
C47   O24   D    
C1    O1    A    
C6    C9    A    
C6    C11   A    
Br4   C20   S    
C39   C42   S    
Br3   C19   S    
C49   O5    D    
C5    C11   A    
C30   H2    S    
C27   C47   S    
Cu1   Cu2   S    
C24   C27   A    
C16   C17   A    
C12   C46   S    
C31   C32   A    
C31   C35   A    
C38   C43   S    
C51   O9    D    
C7    O19   A    
C29   H28   S    
C50   O8    S    
C56   C58   A    
C23   C52   S    
Cu1   O18   S    
C22   H27   S    
C28   C48   S    
C42   H8    S    
Cu2   O19   S    
C39   C49   S    
Br7   C5    S    
C9    C10   A    
C38   O22   A    
Cu2   O12   S    
C35   C37   A    
C39   C44   S    
C40   C41   S    
Br5   C36   S    
Br1   C15   S    
C13   C15   A    
Br2   C16   S    
H16   O6    S    
C33   C36   A    
C14   C16   A    
C4    C26   S    
H17   O8    S    
C36   C37   A    
C2    C57   A    
C20   N2    A    
C26   O21   A    
C49   O6    S    
C19   N1    A    
Br8   C6    S    
C57   H10   S    
C32   H4    S    
C22   C25   A    
H14   O2    S    
C40   H5    S    
H18   O10   S    
C39   H6    S    
Cu2   O23   S    
C40   C50   S    
Br6   C37   S    
C4    C57   A    
C12   C53   S    
C2    H13   S    
C51   O10   S    
C41   H12   S    
C7    C55   S    
C50   O7    D    
C25   C33   S    
C28   C30   A    
C48   O4    S    
C54   O17   S    
C52   O13   S    
C34   C46   S    
C53   O15   S    
C45   C55   T    
C20   C22   A    
C14   H25   S    
C24   C35   S    
C15   C17   A    
C12   C54   S    
Cu1   O20   S    
Cu2   N2    S    
C2    C3    A    
Cu1   N1    S    
C40   C44   S    
C8    C10   A    
C14   C18   A    
C5    C8    A    
C31   H3    S    
C7    O18   A    
C32   C33   A    
C53   O14   D    
C13   H24   S    
C12   C23   S    
