data_mof_unit_65122.cif
_audit_creation_date              2012-12-10T16:43:22-0500
_audit_creation_method            fapswitch 2.2
_symmetry_space_group_name_H-M    P1
_symmetry_Int_Tables_number       1
_space_group_crystal_system       triclinic
_cell_length_a                    30.206967
_cell_length_b                    31.118705
_cell_length_c                    21.669382
_cell_angle_alpha                 90.049483
_cell_angle_beta                  134.347585
_cell_angle_gamma                 89.873707
_cell_volume                      14566.2663605

loop_
_atom_site_label
_atom_site_type_symbol
_atom_type_description
_atom_site_fract_x
_atom_site_fract_y
_atom_site_fract_z
_atom_type_partial_charge
C1    C     C_R   0.688246 0.808700 0.882402 0.862883
C2    C     C_R   0.309833 0.808696 0.117133 0.882723
C3    C     C_R   0.190306 0.308691 0.882897 0.883172
C4    C     C_R   0.809231 0.308678 0.117092 0.879094
C5    C     C_R   0.457634 0.793553 0.009603 0.088471
C6    C     C_R   0.547296 0.793868 0.001234 0.078817
C7    C     C_R   0.953345 0.293912 0.000526 0.077617
C8    C     C_R   0.043001 0.293663 0.992140 0.086628
C9    C     C_R   0.473354 0.676183 0.992790 -0.176394
C10   C     C_R   0.517919 0.676272 0.989832 -0.177476
C11   C     C_R   0.982042 0.176256 0.009437 -0.177902
C12   C     C_R   0.026584 0.176196 0.006436 -0.176588
C13   C     C_R   0.523539 0.832527 0.002213 -0.164454
C14   C     C_R   0.479930 0.832360 0.006823 -0.155127
C15   C     C_R   0.021012 0.332447 0.995897 -0.154066
C16   C     C_R   0.977414 0.332577 0.000532 -0.153110
C17   C     C_2   0.555434 0.871552 0.674460 -0.063600
C18   C     C_2   0.433247 0.886124 0.290942 -0.103244
C19   C     C_2   0.067797 0.387166 0.710929 -0.091155
C20   C     C_2   0.926885 0.391388 0.279824 -0.076220
C21   C     C_2   0.586072 0.901484 0.670500 -0.322427
C22   C     C_2   0.414274 0.902913 0.327069 -0.388239
C23   C     C_2   0.086052 0.403135 0.673444 -0.416077
C24   C     C_2   0.913469 0.403970 0.325092 -0.407443
C25   C     C_2   0.590054 0.836139 0.739674 -0.066744
C26   C     C_2   0.406438 0.844898 0.244454 -0.006163
C27   C     C_2   0.094009 0.345772 0.756996 -0.009883
C28   C     C_2   0.903500 0.349418 0.235638 0.004322
C29   C     C_2   0.649116 0.842274 0.816724 -0.334553
C30   C     C_2   0.344262 0.842964 0.180172 -0.351666
C31   C     C_2   0.156176 0.342971 0.819859 -0.351354
C32   C     C_2   0.842063 0.342857 0.180236 -0.338702
C33   C     C_R   0.130130 0.752639 0.072603 -0.259089
C34   C     C_R   0.869691 0.752304 0.927118 -0.257931
C35   C     C_R   0.630131 0.252615 0.072606 -0.259476
C36   C     C_R   0.369693 0.252334 0.927125 -0.260803
C37   C     C_R   0.113286 0.748221 0.994448 -0.050839
C38   C     C_R   0.886610 0.748044 0.005350 -0.051297
C39   C     C_R   0.613284 0.248220 0.994444 -0.049242
C40   C     C_R   0.386610 0.248047 0.005351 -0.049931
C41   C     C_R   0.050144 0.743646 0.916216 -0.062362
C42   C     C_R   0.949807 0.743600 0.083599 -0.062523
C43   C     C_R   0.550138 0.243670 0.916208 -0.061653
C44   C     C_R   0.449804 0.243583 0.083596 -0.062939
C45   C     C_R   0.663397 0.751004 0.998021 0.801024
C46   C     C_R   0.336678 0.751079 0.002289 0.815914
C47   C     C_R   0.163360 0.251132 0.997791 0.817390
C48   C     C_R   0.836645 0.250968 0.002068 0.813060
C49   C     C_R   0.003871 0.750552 0.916899 -0.065972
C50   C     C_R   0.995970 0.750645 0.082812 -0.066469
C51   C     C_R   0.503870 0.250581 0.916902 -0.066810
C52   C     C_R   0.495973 0.250623 0.082817 -0.066588
C53   C     C_R   0.022260 0.751815 0.997881 0.077168
C54   C     C_R   0.977562 0.751764 0.001814 0.076939
C55   C     C_R   0.522262 0.251818 0.997886 0.076515
C56   C     C_R   0.477564 0.251768 0.001820 0.077261
C57   C     C_R   0.085433 0.752770 0.075192 0.078255
C58   C     C_R   0.914376 0.752475 0.924502 0.078319
C59   C     C_R   0.585435 0.252746 0.075196 0.078558
C60   C     C_R   0.414378 0.252507 0.924509 0.078718
C61   C     C_R   0.939931 0.756120 0.840146 -0.047200
C62   C     C_R   0.059817 0.756495 0.159481 -0.045044
C63   C     C_R   0.439935 0.256178 0.840157 -0.044535
C64   C     C_R   0.559824 0.256444 0.159493 -0.047065
C65   C     C_R   0.896181 0.755542 0.845153 -0.152621
C66   C     C_R   0.103580 0.756006 0.154494 -0.153784
C67   C     C_R   0.396184 0.255601 0.845163 -0.155599
C68   C     C_R   0.603586 0.255955 0.154504 -0.153056
C69   C     C_2   0.913413 0.596118 0.258974 -0.237817
C70   C     C_2   0.086348 0.596427 0.740744 -0.235047
C71   C     C_2   0.413435 0.096144 0.259014 -0.235082
C72   C     C_2   0.586311 0.096468 0.740681 -0.233691
C73   C     C_2   0.897377 0.583169 0.300395 -0.012686
C74   C     C_2   0.102483 0.583177 0.699528 -0.012940
C75   C     C_2   0.397383 0.083179 0.300409 -0.011442
C76   C     C_2   0.602473 0.083188 0.699512 -0.010469
C77   C     C_2   0.873454 0.624460 0.182894 0.217173
C78   C     C_2   0.126352 0.624696 0.816877 0.217688
C79   C     C_2   0.373476 0.124481 0.182929 0.217696
C80   C     C_2   0.626313 0.124730 0.816823 0.215779
C81   C     C_2   0.850476 0.660197 0.186775 -0.271820
C82   C     C_2   0.149568 0.660254 0.813198 -0.272716
C83   C     C_2   0.350459 0.160202 0.186778 -0.272208
C84   C     C_2   0.649591 0.160262 0.813193 -0.271970
C85   C     C_R   0.060979 0.556690 0.621394 0.822286
C86   C     C_R   0.938960 0.556681 0.378575 0.819312
C87   C     C_R   0.560977 0.056692 0.621390 0.819120
C88   C     C_R   0.438963 0.056684 0.378581 0.815069
C89   C     C_R   0.811582 0.691561 0.117637 0.896711
C90   C     C_R   0.188417 0.691571 0.882349 0.898373
C91   C     C_R   0.311575 0.191562 0.117637 0.898975
C92   C     C_R   0.688425 0.191572 0.882348 0.896352
C93   C     C_R   0.556686 0.939172 0.613211 0.890127
C94   C     C_R   0.441856 0.940723 0.383301 0.858167
C95   C     C_R   0.058296 0.440821 0.616896 0.841080
C96   C     C_R   0.941427 0.441185 0.382495 0.834752
C97   C     C_R   0.836902 0.748750 0.002674 0.858577
C98   C     C_R   0.163045 0.748790 0.997234 0.858114
C99   C     C_R   0.336904 0.248748 0.002678 0.857656
C100  C     C_R   0.663043 0.248788 0.997230 0.852558
C101  C     C_R   0.413630 0.792903 0.015140 -0.053291
C102  C     C_R   0.593192 0.793365 0.999241 -0.051856
C103  C     C_R   0.907306 0.293382 0.002239 -0.056836
C104  C     C_R   0.086879 0.293058 0.986359 -0.053655
C105  C     C_R   0.386694 0.753212 0.005854 -0.104993
C106  C     C_R   0.613153 0.753417 0.994332 -0.112310
C107  C     C_R   0.887068 0.253391 0.006183 -0.108869
C108  C     C_R   0.113501 0.253307 0.994601 -0.104861
C109  C     C_R   0.407419 0.714746 0.999894 -0.220245
C110  C     C_R   0.587142 0.714973 0.989648 -0.213207
C111  C     C_R   0.912956 0.214933 0.010265 -0.215833
C112  C     C_R   0.092614 0.214809 0.999892 -0.219980
C113  C     C_R   0.453140 0.714934 0.999188 0.108137
C114  C     C_R   0.542707 0.715124 0.992850 0.105375
C115  C     C_R   0.957468 0.215118 0.007217 0.107047
C116  C     C_R   0.046998 0.214988 0.000809 0.108516
C117  C     C_R   0.477975 0.754374 0.002962 0.047643
C118  C     C_R   0.522934 0.754503 0.999439 0.049015
C119  C     C_R   0.977493 0.254542 0.001510 0.049205
C120  C     C_R   0.022440 0.254444 0.997963 0.047757
Cu1   Cu    Cu3+1 0.719490 0.719480 0.938970 1.048619
Cu2   Cu    Cu3+1 0.280510 0.719480 0.061030 1.051111
Cu3   Cu    Cu3+1 0.219490 0.219480 0.938970 1.049440
Cu4   Cu    Cu3+1 0.780510 0.219480 0.061030 1.050250
Cu5   Cu    Cu3+1 0.780480 0.780500 0.060980 1.050005
Cu6   Cu    Cu3+1 0.219520 0.780500 0.939020 1.017688
Cu7   Cu    Cu3+1 0.280480 0.280500 0.060980 1.018295
Cu8   Cu    Cu3+1 0.719520 0.280500 0.939020 1.051179
Cu9   Cu    Cu3+1 0.455530 0.999980 0.499990 1.045312
Cu10  Cu    Cu3+1 0.544470 0.999980 0.500010 1.016206
Cu11  Cu    Cu3+1 0.955530 0.499980 0.499990 1.014995
Cu12  Cu    Cu3+1 0.044470 0.499980 0.500010 1.008946
H1    H     H_    0.847388 0.759019 0.786798 0.187331
H2    H     H_    0.152321 0.759679 0.212802 0.187325
H3    H     H_    0.347395 0.259099 0.786814 0.186116
H4    H     H_    0.652329 0.259606 0.212816 0.187038
H5    H     H_    0.957115 0.585962 0.281446 0.179278
H6    H     H_    0.042563 0.586538 0.718118 0.179878
H7    H     H_    0.457149 0.086004 0.281511 0.180060
H8    H     H_    0.542502 0.086608 0.718009 0.179314
H9    H     H_    0.864950 0.668612 0.247413 0.157746
H10   H     H_    0.135259 0.668611 0.752655 0.156688
H11   H     H_    0.364901 0.168611 0.247396 0.156595
H12   H     H_    0.635333 0.168608 0.752681 0.157366
H13   H     H_    0.387010 0.684543 0.994436 0.157601
H14   H     H_    0.602989 0.684642 0.985971 0.161953
H15   H     H_    0.896898 0.184578 0.013244 0.160456
H16   H     H_    0.112790 0.184569 0.004611 0.157872
H17   H     H_    0.454489 0.645767 0.989742 0.158598
H18   H     H_    0.532861 0.645905 0.984840 0.157802
H19   H     H_    0.966913 0.145855 0.013768 0.157694
H20   H     H_    0.045248 0.145765 0.008794 0.158571
H21   H     H_    0.537392 0.863501 0.998136 0.198011
H22   H     H_    0.462691 0.863153 0.005602 0.190504
H23   H     H_    0.038463 0.363230 0.997817 0.191998
H24   H     H_    0.963798 0.363517 0.005377 0.203813
H25   H     H_    0.635191 0.897533 0.709339 0.144748
H26   H     H_    0.380353 0.885543 0.321379 0.187225
H27   H     H_    0.119184 0.385143 0.678055 0.172514
H28   H     H_    0.884999 0.383528 0.326441 0.170938
H29   H     H_    0.669453 0.874106 0.834348 0.149286
H30   H     H_    0.317269 0.871451 0.165308 0.150343
H31   H     H_    0.183598 0.370925 0.833999 0.150961
H32   H     H_    0.812900 0.368416 0.170125 0.144867
H33   H     H_    0.178707 0.755457 0.132094 0.149810
H34   H     H_    0.821079 0.754997 0.867608 0.150174
H35   H     H_    0.678711 0.255414 0.132100 0.149155
H36   H     H_    0.321083 0.255047 0.867620 0.148650
O1    O     O_R   0.679710 0.768740 0.859430 -0.550219
O2    O     O_R   0.320290 0.768740 0.140570 -0.549005
O3    O     O_R   0.179710 0.268740 0.859430 -0.549698
O4    O     O_R   0.820290 0.268740 0.140570 -0.544432
O5    O     O_R   0.082020 0.544510 0.588970 -0.547585
O6    O     O_R   0.917980 0.544510 0.411030 -0.546995
O7    O     O_R   0.582020 0.044510 0.588970 -0.549323
O8    O     O_R   0.417980 0.044510 0.411030 -0.552582
O9    O     O_R   0.506970 0.955460 0.589020 -0.551588
O10   O     O_R   0.493030 0.955460 0.410980 -0.613231
O11   O     O_R   0.006970 0.455460 0.589020 -0.604022
O12   O     O_R   0.993030 0.455460 0.410980 -0.603002
O13   O     O_R   0.582050 0.955480 0.588990 -0.587495
O14   O     O_R   0.417950 0.955480 0.411010 -0.544459
O15   O     O_R   0.082050 0.455480 0.588990 -0.569020
O16   O     O_R   0.917950 0.455480 0.411010 -0.567361
O17   O     O_R   0.731220 0.820270 0.962460 -0.599244
O18   O     O_R   0.268780 0.820270 0.037540 -0.603905
O19   O     O_R   0.231220 0.320270 0.962460 -0.602908
O20   O     O_R   0.768780 0.320270 0.037540 -0.597658
O21   O     O_R   0.659370 0.724200 0.948480 -0.555405
O22   O     O_R   0.340630 0.724200 0.051520 -0.546225
O23   O     O_R   0.159370 0.224200 0.948480 -0.546357
O24   O     O_R   0.840630 0.224200 0.051520 -0.554249
O25   O     O_R   0.710880 0.775730 0.051510 -0.586796
O26   O     O_R   0.289120 0.775730 0.948490 -0.620606
O27   O     O_R   0.210880 0.275730 0.051510 -0.620485
O28   O     O_R   0.789120 0.275730 0.948490 -0.590429
O29   O     O_R   0.768760 0.679710 0.037490 -0.564094
O30   O     O_R   0.231240 0.679710 0.962510 -0.563933
O31   O     O_R   0.268760 0.179710 0.037490 -0.563839
O32   O     O_R   0.731240 0.179710 0.962510 -0.564870
O33   O     O_R   0.820270 0.731240 0.140520 -0.555195
O34   O     O_R   0.179730 0.731240 0.859480 -0.556829
O35   O     O_R   0.320270 0.231240 0.140520 -0.556738
O36   O     O_R   0.679730 0.231240 0.859480 -0.555680
O37   O     O_R   0.789100 0.724240 0.948440 -0.589599
O38   O     O_R   0.210900 0.724240 0.051560 -0.590198
O39   O     O_R   0.289100 0.224240 0.948440 -0.590660
O40   O     O_R   0.710900 0.224240 0.051560 -0.591321
O41   O     O_R   0.840600 0.775770 0.051470 -0.549388
O42   O     O_R   0.159400 0.775770 0.948530 -0.549966
O43   O     O_R   0.340600 0.275770 0.051470 -0.550421
O44   O     O_R   0.659400 0.275770 0.948530 -0.551369
O45   O     O_R   0.006940 0.544490 0.589000 -0.595224
O46   O     O_R   0.993060 0.544490 0.411000 -0.597201
O47   O     O_R   0.506940 0.044490 0.589000 -0.596583
O48   O     O_R   0.493060 0.044490 0.411000 -0.596856
C121  C     C_2   0.398722 0.832521 0.036451 0.374762
H37   H     H_    0.351660 0.839849 0.004182 0.096281
O49   O     O_2   0.439802 0.856694 0.093413 -0.481212
C122  C     C_2   0.619443 0.833833 0.999417 0.395032
H38   H     H_    0.624238 0.837646 0.954522 0.079103
O50   O     O_2   0.639100 0.861955 0.052600 -0.516645
C123  C     C_2   0.881072 0.333839 0.002539 0.424570
H39   H     H_    0.875852 0.337361 0.047025 0.101300
O51   O     O_2   0.861883 0.362315 0.950123 -0.515359
C124  C     C_2   0.101884 0.332830 0.965751 0.377305
H40   H     H_    0.148960 0.340071 0.998177 0.097266
O52   O     O_2   0.060852 0.357282 0.909234 -0.479552
C125  C     C_2   0.032855 0.723176 0.839443 0.325304
H41   H     H_    0.991830 0.703182 0.797058 0.104709
O53   O     O_2   0.063104 0.728127 0.821991 -0.530388
C126  C     C_2   0.967382 0.723103 0.160553 0.324878
H42   H     H_    0.008972 0.703557 0.203526 0.103645
O54   O     O_2   0.936663 0.727435 0.177400 -0.532368
C127  C     C_2   0.532830 0.223218 0.839408 0.324153
H43   H     H_    0.491780 0.203251 0.796988 0.103343
O55   O     O_2   0.563095 0.228153 0.821978 -0.531107
C128  C     C_2   0.467365 0.223076 0.160532 0.326569
H44   H     H_    0.508921 0.203496 0.203460 0.104065
O56   O     O_2   0.436674 0.227444 0.177418 -0.530814
C129  C     C_2   0.917942 0.768199 0.756041 0.363146
H45   H     H_    0.949317 0.782875 0.753787 0.096424
O57   O     O_2   0.864121 0.762699 0.688273 -0.512156
C130  C     C_2   0.081592 0.768782 0.243373 0.358930
H46   H     H_    0.049936 0.783280 0.245375 0.095592
O58   O     O_2   0.135525 0.763649 0.311228 -0.517850
C131  C     C_2   0.417956 0.268286 0.756069 0.358150
H47   H     H_    0.449345 0.282957 0.753837 0.096695
O59   O     O_2   0.364130 0.262815 0.688294 -0.518778
C132  C     C_2   0.581612 0.268702 0.243405 0.362524
H48   H     H_    0.549974 0.283211 0.245430 0.095873
O60   O     O_2   0.635538 0.263533 0.311252 -0.512889
I1    I     I_    0.805385 0.591752 0.246943 -0.319313
I2    I     I_    0.194585 0.591284 0.753280 -0.331268
I3    I     I_    0.305378 0.091743 0.246929 -0.332729
I4    I     I_    0.694596 0.091256 0.753317 -0.320805
I5    I     I_    0.865176 0.610553 0.079205 -0.279346
I6    I     I_    0.134371 0.611028 0.920375 -0.289116
I7    I     I_    0.365274 0.110611 0.079295 -0.291167
I8    I     I_    0.634218 0.111120 0.920238 -0.286152
C133  C     C_2   0.486621 0.870876 0.612178 0.397435
H49   H     H_    0.465013 0.860854 0.633957 0.071440
O61   O     O_2   0.453871 0.878541 0.535663 -0.531975
C134  C     C_2   0.472999 0.909842 0.284933 0.467105
H50   H     H_    0.475317 0.944614 0.287771 0.093998
O62   O     O_2   0.501795 0.890749 0.272956 -0.496493
C135  C     C_2   0.029608 0.411965 0.718818 0.465986
H51   H     H_    0.027560 0.446737 0.715117 0.094852
O63   O     O_2   0.001861 0.393804 0.733287 -0.497419
C136  C     C_2   0.957128 0.420123 0.263168 0.428038
H52   H     H_    0.961306 0.454346 0.275396 0.104042
O64   O     O_2   0.975380 0.406051 0.231567 -0.553663
C137  C     C_2   0.555761 0.795489 0.718245 0.393936
H53   H     H_    0.523000 0.783739 0.652333 0.074956
O65   O     O_2   0.560534 0.776590 0.772039 -0.538910
C138  C     C_2   0.449723 0.810460 0.265890 0.512999
H54   H     H_    0.497124 0.810799 0.328672 0.085167
O66   O     O_2   0.434654 0.783029 0.213905 -0.532083
C139  C     C_2   0.050349 0.312170 0.736706 0.506273
H55   H     H_    0.002357 0.313511 0.675234 0.085198
O67   O     O_2   0.065911 0.284244 0.788200 -0.532982
C140  C     C_2   0.948484 0.319247 0.250110 0.430144
H56   H     H_    0.997657 0.325735 0.302162 0.102601
O68   O     O_2   0.932206 0.287846 0.204761 -0.559197

loop_
_geom_bond_atom_site_label_1
_geom_bond_atom_site_label_2
_ccdc_geom_bond_type
Cu8   O44   S    
Cu1   O1    S    
C55   C56   A    
Cu9   O47   S    
C64   C132  S    
C55   C59   A    
C78   C82   D    
Cu11  O45   S    
C127  O55   D    
C69   C77   S    
C12   H20   S    
C35   C39   A    
C123  H39   S    
C18   C26   S    
C112  C116  A    
C57   C66   A    
C82   H10   S    
C3    O3    A    
C94   O14   A    
C40   C99   S    
C71   C79   S    
C100  O40   A    
C99   O43   A    
C53   C54   A    
Cu6   O34   S    
C28   C140  S    
C98   O42   A    
Cu5   O33   S    
C140  H56   S    
C50   C54   A    
C97   O41   A    
C101  C121  S    
C64   C68   A    
Cu3   O31   S    
C56   C60   A    
C88   O48   A    
C46   O22   A    
C38   C42   A    
Cu7   O27   S    
C24   C96   S    
Cu12  O15   S    
Cu1   O21   S    
C133  H49   S    
C116  C120  A    
C48   C107  S    
C70   C78   S    
C84   H12   S    
C132  O60   D    
C15   C16   A    
C46   C105  S    
C32   H32   S    
C36   H36   S    
C130  H46   S    
C25   C29   D    
C35   C59   A    
C129  H45   S    
C94   O10   A    
C87   O7    A    
C65   H1    S    
Cu2   O38   S    
C70   C74   D    
C37   C98   S    
C25   C137  S    
Cu10  O10   S    
C103  C123  S    
Cu1   Cu5   S    
C66   H2    S    
C52   C56   A    
C93   O13   A    
C20   C24   D    
C60   C67   A    
C23   C95   S    
C134  H50   S    
Cu2   O2    S    
C23   H27   S    
C16   H24   S    
C87   O47   A    
C35   H35   S    
C139  H55   S    
Cu9   O8    S    
C69   C73   D    
C80   I8    S    
Cu5   O25   S    
Cu1   O37   S    
C19   C27   S    
C9    C10   A    
C110  C114  A    
C40   C44   A    
C15   H23   S    
C10   C114  A    
C72   C76   D    
Cu4   Cu8   S    
Cu6   O18   S    
C91   O31   A    
C44   C52   A    
C104  C108  A    
C81   H9    S    
Cu7   O19   S    
C77   I5    S    
C13   C14   A    
C48   O28   A    
C61   C129  S    
C22   C94   S    
C86   O6    A    
C122  O50   D    
C2    O18   A    
C107  C111  A    
C96   O16   A    
C38   C97   S    
C28   C32   D    
C41   C49   A    
C122  H38   S    
Cu3   O3    S    
C92   O36   A    
C46   O26   A    
C128  O56   D    
C131  O59   D    
C69   H5    S    
C73   C86   S    
Cu2   O22   S    
C31   H31   S    
C71   C75   D    
C101  C105  A    
C49   C61   A    
C139  O67   D    
C62   C66   A    
C17   C133  S    
C27   C31   D    
C80   C84   D    
C7    C119  A    
C36   C40   A    
C51   C63   A    
C92   O32   A    
C12   C116  A    
C53   C57   A    
C52   C64   A    
C110  H14   S    
C133  O61   D    
Cu5   O41   S    
C19   C23   D    
C99   O39   A    
C71   H7    S    
C20   C28   S    
C132  H48   S    
C13   H21   S    
Cu9   O9    S    
C100  O44   A    
C33   C37   A    
C111  H15   S    
C112  H16   S    
Cu5   O17   S    
C44   C128  S    
C129  O57   D    
C45   O25   A    
C34   C38   A    
Cu2   Cu6   S    
C67   H3    S    
C86   O46   A    
C63   C67   A    
C18   C134  S    
C125  H41   S    
C85   O45   A    
C59   C68   A    
C111  C115  A    
Cu11  O16   S    
Cu6   O26   S    
C58   C65   A    
C85   O5    A    
Cu4   O4    S    
C134  O62   D    
C77   C81   D    
C127  H43   S    
C9    H17   S    
C83   H11   S    
Cu9   O14   S    
C1    C29   S    
C137  H53   S    
C78   I6    S    
C119  C120  A    
Cu3   O39   S    
C114  C118  A    
C82   C90   S    
C96   O12   A    
C68   H4    S    
Cu10  O48   S    
C8    C104  A    
C76   C87   S    
Cu1   O29   S    
C5    C14   A    
C74   I2    S    
C42   C50   A    
C61   C65   A    
C73   I1    S    
C95   O11   A    
C7    C16   A    
C41   C125  S    
C104  C124  S    
C70   H6    S    
C8    C15   A    
C124  O52   D    
Cu7   O43   S    
Cu6   O42   S    
C50   C62   A    
C136  O64   D    
C102  C122  S    
Cu12  O46   S    
C30   H30   S    
Cu3   O23   S    
C63   C131  S    
C20   C136  S    
Cu3   Cu7   S    
Cu4   O24   S    
C11   C115  A    
C45   C106  S    
C8    C120  A    
C19   C135  S    
Cu9   Cu10  S    
C106  C110  A    
C113  C117  A    
C11   H19   S    
C89   O29   A    
C47   C108  S    
C105  C109  A    
C128  H44   S    
C33   C57   A    
C4    O4    A    
C126  O54   D    
C2    O2    A    
C75   I3    S    
C21   H25   S    
Cu8   O20   S    
C33   H33   S    
Cu8   O28   S    
C138  O66   D    
C17   C25   S    
C36   C60   A    
Cu10  O13   S    
C3    O19   A    
C10   H18   S    
C27   C139  S    
C131  H47   S    
C123  O51   D    
C47   O23   A    
C62   C130  S    
C90   O30   A    
C109  H13   S    
C109  C113  A    
Cu10  O7    S    
C121  O49   D    
C22   H26   S    
C89   O33   A    
Cu4   O32   S    
Cu11  O6    S    
C115  C119  A    
C88   O8    A    
C5    C101  A    
Cu12  O12   S    
C2    C30   S    
C135  H51   S    
C97   O37   A    
C1    O17   A    
C4    O20   A    
C18   C22   D    
C121  H37   S    
C81   C89   S    
C72   C80   S    
C43   C127  S    
C117  C118  A    
C14   H22   S    
C3    C31   S    
C26   C138  S    
Cu2   O30   S    
C95   O15   A    
C39   C100  S    
C47   O27   A    
C21   C93   S    
C43   C51   A    
C49   C53   A    
Cu11  O11   S    
C83   C91   S    
C7    C103  A    
C1    O1    A    
C126  H42   S    
C137  O65   D    
C130  O58   D    
C102  C106  A    
Cu8   O36   S    
C51   C55   A    
Cu12  O5    S    
C6    C102  A    
C74   C85   S    
C37   C41   A    
Cu11  Cu12  S    
C76   I4    S    
C17   C21   D    
C9    C113  A    
C48   O24   A    
C140  O68   D    
C4    C32   S    
C79   C83   D    
C108  C112  A    
C75   C88   S    
C72   H8    S    
C24   H28   S    
C54   C58   A    
C138  H54   S    
C39   C43   A    
C6    C13   A    
C125  O53   D    
C124  H40   S    
C5    C117  A    
C34   C58   A    
C45   O21   A    
C91   O35   A    
C136  H52   S    
C98   O38   A    
C103  C107  A    
C84   C92   S    
C29   H29   S    
C93   O9    A    
C34   H34   S    
Cu7   O35   S    
C6    C118  A    
Cu4   O40   S    
C135  O63   D    
C11   C12   A    
C79   I7    S    
C90   O34   A    
C26   C30   D    
C42   C126  S    
