data_mof_unit_27851.cif
_audit_creation_date              2012-12-11T16:23:17-0500
_audit_creation_method            fapswitch 2.2
_symmetry_space_group_name_H-M    P1
_symmetry_Int_Tables_number       1
_space_group_crystal_system       triclinic
_cell_length_a                    20.194934
_cell_length_b                    7.210553
_cell_length_c                    19.611198
_cell_angle_alpha                 90.000343
_cell_angle_beta                  98.877086
_cell_angle_gamma                 90.000067
_cell_volume                      2821.51004828

loop_
_atom_site_label
_atom_site_type_symbol
_atom_type_description
_atom_site_fract_x
_atom_site_fract_y
_atom_site_fract_z
_atom_type_partial_charge
O1    O     O_R   0.188410 0.619490 0.310050 -0.527663
O2    O     O_R   0.811590 0.380510 0.689950 -0.510526
O3    O     O_R   0.311590 0.119490 0.189950 -0.527659
O4    O     O_R   0.688410 0.880510 0.810050 -0.510530
O5    O     O_R   0.327280 0.288800 0.321740 -0.505770
O6    O     O_R   0.672720 0.711200 0.678260 -0.529626
O7    O     O_R   0.172720 0.788800 0.178260 -0.505771
O8    O     O_R   0.827280 0.211200 0.821740 -0.529648
C1    C     C_R   0.351523 0.458742 0.338402 0.810146
C2    C     C_R   0.648882 0.541526 0.661232 0.807780
C3    C     C_R   0.148477 0.958741 0.161597 0.810148
C4    C     C_R   0.851117 0.041528 0.838768 0.807763
O9    O     O_R   0.189900 0.289710 0.318190 -0.527332
O10   O     O_R   0.810100 0.710290 0.681810 -0.535206
O11   O     O_R   0.310100 0.789710 0.181810 -0.527332
O12   O     O_R   0.689900 0.210290 0.818190 -0.535259
O13   O     O_R   0.173230 0.120350 0.186370 -0.555917
O14   O     O_R   0.826770 0.879650 0.813630 -0.531686
O15   O     O_R   0.326770 0.620350 0.313630 -0.555923
O16   O     O_R   0.673230 0.379650 0.686370 -0.531684
C5    C     C_R   0.170435 0.457821 0.334494 0.868608
C6    C     C_R   0.828719 0.541596 0.664077 0.861148
C7    C     C_R   0.329564 0.957821 0.165504 0.868601
C8    C     C_R   0.671276 0.041597 0.835918 0.861072
O17   O     O_3   0.244690 0.453290 0.206760 -0.380010
O18   O     O_3   0.755310 0.546710 0.793240 -0.381425
O19   O     O_3   0.255310 0.953290 0.293240 -0.380015
O20   O     O_3   0.744690 0.046710 0.706760 -0.381382
V1    V     V_3+5 0.250980 0.178070 0.258020 1.643030
V2    V     V_3+5 0.749020 0.821930 0.741980 1.645317
V3    V     V_3+5 0.249020 0.678070 0.241980 1.643020
V4    V     V_3+5 0.750980 0.321930 0.758020 1.645266
C9    C     C_R   0.493901 0.033827 0.099566 0.622006
C10   C     C_R   0.537689 0.862546 0.936867 0.657633
C11   C     C_R   0.006086 0.533780 0.400415 0.622031
C12   C     C_R   0.962283 0.362512 0.563105 0.657640
C13   C     C_R   0.445085 0.021188 0.142898 0.544066
C14   C     C_R   0.583085 0.875419 0.890102 0.546687
C15   C     C_R   0.054907 0.521149 0.357087 0.544043
C16   C     C_R   0.916890 0.375394 0.609872 0.546594
C17   C     C_R   0.379338 0.964959 0.117103 -0.410502
C18   C     C_R   0.625014 0.031654 0.888971 -0.410174
C19   C     C_R   0.120656 0.464952 0.382890 -0.410501
C20   C     C_R   0.874970 0.531647 0.611013 -0.410123
C21   C     C_R   0.362951 0.918587 0.046016 -0.308045
C22   C     C_R   0.620657 0.175560 0.938087 -0.278534
C23   C     C_R   0.137038 0.418592 0.453978 -0.308046
C24   C     C_R   0.879325 0.675550 0.561894 -0.278556
C25   C     C_R   0.411426 0.944705 0.002062 0.647210
C26   C     C_R   0.570745 0.167005 0.981296 0.655800
C27   C     C_R   0.088557 0.444688 0.497926 0.647201
C28   C     C_R   0.929236 0.666978 0.518682 0.655815
C29   C     C_R   0.477463 0.998479 0.028417 -0.160528
C30   C     C_R   0.529336 0.010019 0.981566 -0.170210
C31   C     C_R   0.022520 0.498444 0.471565 -0.160511
C32   C     C_R   0.970642 0.509986 0.518411 -0.170199
C33   C     C_R   0.085098 0.972490 0.111435 -0.195055
C34   C     C_R   0.913513 0.030736 0.890088 -0.212563
C35   C     C_R   0.414901 0.472496 0.388565 -0.195068
C36   C     C_R   0.586486 0.530733 0.609912 -0.212571
C37   C     C_R   0.035634 0.008160 0.918037 -0.069093
C38   C     C_R   0.964647 0.037904 0.084083 -0.087547
C39   C     C_R   0.464365 0.508169 0.581962 -0.069092
C40   C     C_R   0.535350 0.537954 0.415918 -0.087555
C41   C     C_R   0.976670 0.019899 0.868409 -0.234444
C42   C     C_R   0.023684 0.016714 0.133641 -0.196147
C43   C     C_R   0.523329 0.519900 0.631590 -0.234468
C44   C     C_R   0.476314 0.516749 0.366359 -0.196139
C45   C     C_R   0.909268 0.033579 0.960832 0.613530
C46   C     C_R   0.088422 0.966083 0.040605 0.598634
C47   C     C_R   0.590731 0.533577 0.539168 0.613575
C48   C     C_R   0.411578 0.466084 0.459395 0.598647
C49   C     C_R   0.967780 0.025065 0.011871 -0.105450
C50   C     C_R   0.031239 0.000875 0.990018 -0.089608
C51   C     C_R   0.532218 0.525081 0.488130 -0.105445
C52   C     C_R   0.468761 0.500882 0.509982 -0.089616
F1    F     F_    0.557838 0.075551 0.127757 -0.540226
F2    F     F_    0.502034 0.703346 0.938673 -0.543701
F3    F     F_    0.942148 0.575483 0.372218 -0.540223
F4    F     F_    0.997933 0.203303 0.561295 -0.543713
F5    F     F_    0.462845 0.056342 0.211290 -0.585262
F6    F     F_    0.585655 0.732535 0.845647 -0.628923
F7    F     F_    0.037150 0.556278 0.288693 -0.585275
F8    F     F_    0.914315 0.232499 0.654321 -0.628971
C53   C     C_2   0.297207 0.836728 0.016144 0.998238
O21   O     O_2   0.267688 0.732912 0.050439 -0.527706
O22   O     O_R   0.270749 0.869048 0.947041 -0.581695
H1    H     H_    0.228638 0.794392 0.931474 0.358586
C54   C     C_2   0.670133 0.329216 0.949566 0.998911
O23   O     O_2   0.729745 0.297864 0.950241 -0.522712
O24   O     O_R   0.649065 0.508396 0.962876 -0.584751
H2    H     H_    0.687489 0.600333 0.970627 0.311730
C55   C     C_2   0.202786 0.336771 0.483858 0.998228
O25   O     O_2   0.232315 0.232963 0.449568 -0.527691
O26   O     O_R   0.229237 0.369123 0.552960 -0.581701
H3    H     H_    0.271354 0.294494 0.568532 0.358588
C56   C     C_2   0.829851 0.829221 0.550414 0.998855
O27   O     O_2   0.770247 0.797942 0.549835 -0.522763
O28   O     O_R   0.850906 0.008330 0.536987 -0.584694
H4    H     H_    0.812484 0.100268 0.529255 0.311750
F9    F     F_    0.394748 0.914442 0.933126 -0.562837
F10   F     F_    0.563296 0.310869 0.024263 -0.557915
F11   F     F_    0.105228 0.414420 0.566863 -0.562848
F12   F     F_    0.936693 0.810829 0.475713 -0.557872
F13   F     F_    0.148530 0.924179 0.022005 -0.695104
F14   F     F_    0.846881 0.036249 0.978578 -0.666322
F15   F     F_    0.351471 0.424161 0.477995 -0.695088
F16   F     F_    0.653120 0.536214 0.521421 -0.666342
C57   C     C_2   0.022061 0.047577 0.208761 0.884059
O29   O     O_2   0.989783 0.176335 0.227501 -0.494521
O30   O     O_R   0.058543 0.931921 0.258095 -0.626025
H5    H     H_    0.054129 0.968788 0.307091 0.320469
C58   C     C_2   0.980913 0.022295 0.793355 0.914912
O31   O     O_2   0.015527 0.138340 0.770078 -0.477546
O32   O     O_R   0.946011 0.889883 0.749719 -0.647679
H6    H     H_    0.954238 0.901835 0.700209 0.349937
C59   C     C_2   0.477932 0.547646 0.291241 0.884078
O33   O     O_2   0.510195 0.676447 0.272507 -0.494530
O34   O     O_R   0.441461 0.431980 0.241903 -0.626009
H7    H     H_    0.445871 0.468880 0.192909 0.320472
C60   C     C_2   0.519085 0.522289 0.706644 0.914972
O35   O     O_2   0.484470 0.638330 0.729921 -0.477523
O36   O     O_R   0.553986 0.389872 0.750277 -0.647683
H8    H     H_    0.545757 0.401816 0.799787 0.349941
C61   C     C_2   0.101530 0.012565 0.893512 0.972436
O37   O     O_2   0.115745 0.893166 0.853909 -0.518642
O38   O     O_R   0.146202 0.157336 0.914187 -0.611323
H9    H     H_    0.188460 0.149517 0.892372 0.352609
C62   C     C_2   0.900323 0.077859 0.108826 1.035194
O39   O     O_2   0.876744 0.964828 0.144897 -0.489024
O40   O     O_R   0.867705 0.246531 0.091965 -0.596909
H10   H     H_    0.824460 0.258061 0.111901 0.353387
C63   C     C_2   0.398469 0.512607 0.606483 0.972424
O41   O     O_2   0.384249 0.393238 0.646095 -0.518637
O42   O     O_R   0.353802 0.657381 0.585796 -0.611340
H11   H     H_    0.311545 0.649599 0.607614 0.352597
C64   C     C_2   0.599668 0.578010 0.391178 1.035141
O43   O     O_2   0.623242 0.465096 0.355059 -0.489022
O44   O     O_R   0.632285 0.746652 0.408101 -0.596968
H12   H     H_    0.675523 0.758264 0.388158 0.353352

loop_
_geom_bond_atom_site_label_1
_geom_bond_atom_site_label_2
_ccdc_geom_bond_type
O17   V3    S    
C31   C32   S    
O1    C5    A    
C55   O25   D    
O19   V1    S    
O13   V1    S    
C49   C50   A    
C16   F8    S    
O3    C7    A    
O26   H3    S    
C33   C42   A    
O22   H1    S    
O15   V3    S    
C56   O27   D    
O36   H8    S    
C22   C54   S    
C29   C30   S    
O7    C3    A    
C24   C56   S    
C64   O44   S    
C26   C30   A    
C39   C63   S    
O9    V1    S    
C14   C18   A    
C57   O30   S    
C25   F9    S    
O4    C8    A    
C39   C52   A    
C27   F11   S    
O32   H6    S    
O1    V3    S    
C8    C18   S    
O2    V4    S    
C18   C22   A    
C11   F3    S    
O3    V1    S    
C44   C59   S    
C5    C19   S    
C1    O15   A    
C6    C20   S    
O30   H5    S    
C36   C43   A    
C2    O16   A    
C46   C50   A    
C38   C49   A    
C45   C49   A    
O14   V2    S    
C33   C46   A    
C54   O24   S    
O42   H11   S    
C16   C20   A    
C48   C52   A    
C35   C48   A    
C4    C34   S    
O11   C7    A    
O12   C8    A    
C47   F16   S    
C14   F6    S    
C38   C62   S    
C13   F5    S    
O10   V2    S    
C43   C60   S    
C56   O28   S    
O5    V1    S    
C40   C64   S    
C53   O22   S    
C9    C29   A    
O44   H12   S    
C39   C43   A    
O7    V3    S    
C38   C42   A    
C11   C31   A    
O8    V4    S    
C12   C16   A    
C12   F4    S    
O24   H2    S    
O18   V4    S    
C15   C19   A    
C36   C47   A    
C53   O21   D    
C9    C13   A    
C1    C35   S    
C11   C15   A    
C51   C52   A    
O5    C1    A    
C12   C32   A    
C35   C44   A    
C34   C41   A    
O28   H4    S    
C48   F15   S    
C21   C25   A    
O8    C4    A    
C23   C55   S    
O9    C5    A    
O11   V3    S    
C60   O35   D    
O6    V2    S    
C26   F10   S    
C61   O37   D    
O40   H10   S    
C40   C44   A    
C63   O42   S    
C58   O31   D    
O16   V4    S    
C2    C36   S    
C28   F12   S    
C45   F14   S    
C10   C14   A    
C41   C58   S    
C46   F13   S    
C3    O13   A    
O6    C2    A    
C23   C27   A    
O34   H7    S    
C34   C45   A    
C10   C30   A    
O38   H9    S    
C37   C50   A    
O12   V4    S    
C64   O43   D    
C22   C26   A    
C7    C17   S    
C21   C53   S    
O10   C6    A    
C59   O34   S    
C62   O39   D    
C15   F7    S    
C3    C33   S    
C57   O29   D    
C10   F2    S    
C47   C51   A    
C9    F1    S    
C63   O41   D    
C28   C32   A    
C25   C29   A    
O20   V2    S    
O2    C6    A    
C40   C51   A    
C27   C31   A    
C42   C57   S    
C13   C17   A    
C60   O36   S    
C37   C41   A    
C24   C28   A    
C55   O26   S    
C4    O14   A    
C61   O38   S    
C17   C21   A    
C37   C61   S    
C62   O40   S    
C54   O23   D    
C59   O33   D    
C19   C23   A    
O4    V2    S    
C20   C24   A    
C58   O32   S    
