data_mof_unit_34256.cif
_audit_creation_date              2012-12-11T15:20:42-0500
_audit_creation_method            fapswitch 2.2
_symmetry_space_group_name_H-M    P1
_symmetry_Int_Tables_number       1
_space_group_crystal_system       triclinic
_cell_length_a                    21.666368
_cell_length_b                    7.223996
_cell_length_c                    19.971309
_cell_angle_alpha                 89.845518
_cell_angle_beta                  87.360818
_cell_angle_gamma                 89.808098
_cell_volume                      3122.52128096

loop_
_atom_site_label
_atom_site_type_symbol
_atom_type_description
_atom_site_fract_x
_atom_site_fract_y
_atom_site_fract_z
_atom_type_partial_charge
O1    O     O_R   0.688010 0.379840 0.189360 -0.528579
O2    O     O_R   0.311990 0.620160 0.810640 -0.528876
O3    O     O_R   0.811990 0.879840 0.310640 -0.529107
O4    O     O_R   0.188010 0.120160 0.689360 -0.528868
O5    O     O_R   0.808630 0.708850 0.184280 -0.519279
O6    O     O_R   0.191370 0.291150 0.815720 -0.519872
O7    O     O_R   0.691370 0.208850 0.315720 -0.519387
O8    O     O_R   0.308630 0.791150 0.684280 -0.518683
C1    C     C_R   0.830489 0.540904 0.166653 0.717161
C2    C     C_R   0.169506 0.459097 0.833333 0.716706
C3    C     C_R   0.669511 0.041000 0.333333 0.717510
C4    C     C_R   0.330489 0.959000 0.666667 0.720592
O9    O     O_R   0.688260 0.709510 0.181570 -0.548627
O10   O     O_R   0.311740 0.290490 0.818430 -0.548750
O11   O     O_R   0.811740 0.209510 0.318430 -0.547642
O12   O     O_R   0.188260 0.790490 0.681570 -0.546612
O13   O     O_R   0.690760 0.880550 0.307920 -0.522855
O14   O     O_R   0.309240 0.119450 0.692080 -0.522255
O15   O     O_R   0.809240 0.380550 0.192080 -0.523142
O16   O     O_R   0.190760 0.619450 0.807920 -0.524370
C5    C     C_R   0.667159 0.542107 0.166956 0.697804
C6    C     C_R   0.332840 0.457893 0.833044 0.697424
C7    C     C_R   0.832853 0.041291 0.332951 0.697136
C8    C     C_R   0.166970 0.958572 0.667342 0.694903
O17   O     O_3   0.750960 0.546580 0.291460 -0.369916
O18   O     O_3   0.249040 0.453420 0.708540 -0.368193
O19   O     O_3   0.749040 0.046580 0.208540 -0.370119
O20   O     O_3   0.250960 0.953420 0.791460 -0.371358
V1    V     V_3+5 0.749820 0.821150 0.242310 1.434390
V2    V     V_3+5 0.250180 0.178850 0.757690 1.435228
V3    V     V_3+5 0.750180 0.321150 0.257690 1.434675
V4    V     V_3+5 0.249820 0.678850 0.742310 1.437185
C9    C     C_R   0.068734 0.828403 0.618768 0.198841
C10   C     C_R   0.929085 0.174056 0.385294 0.221016
C11   C     C_R   0.428045 0.319773 0.887241 0.217893
C12   C     C_R   0.571952 0.680225 0.112763 0.217752
C13   C     C_R   0.115151 0.966979 0.620311 -0.153211
C14   C     C_R   0.884415 0.031634 0.380323 -0.165785
C15   C     C_R   0.384270 0.465414 0.880683 -0.172495
C16   C     C_R   0.615728 0.534585 0.119319 -0.172366
C17   C     C_R   0.112435 0.117870 0.576780 -0.129383
C18   C     C_R   0.889087 0.874632 0.420982 -0.127655
C19   C     C_R   0.389322 0.623308 0.920337 -0.116974
C20   C     C_R   0.610676 0.376691 0.079666 -0.116934
C21   C     C_R   0.067316 0.131088 0.528700 0.091498
C22   C     C_R   0.933241 0.862211 0.470341 0.111247
C23   C     C_R   0.433358 0.635467 0.969613 0.122005
C24   C     C_R   0.566639 0.364530 0.030390 0.121772
C25   C     C_R   0.021960 0.991206 0.525348 -0.067397
C26   C     C_R   0.977757 0.002835 0.475214 -0.082192
C27   C     C_R   0.477802 0.493501 0.975136 -0.078440
C28   C     C_R   0.522195 0.506497 0.024868 -0.078322
C29   C     C_R   0.019611 0.843888 0.573320 -0.027539
C30   C     C_R   0.979292 0.151465 0.428285 -0.026479
C31   C     C_R   0.478686 0.341325 0.929853 -0.023219
C32   C     C_R   0.521311 0.658672 0.070151 -0.023003
C33   C     C_R   0.068690 0.279750 0.482373 0.104286
C34   C     C_R   0.931462 0.713818 0.516164 0.080518
C35   C     C_R   0.431471 0.784845 0.014910 0.086885
C36   C     C_R   0.568526 0.215151 0.985094 0.086779
C37   C     C_R   0.030035 0.276068 0.427404 0.425969
C38   C     C_R   0.969176 0.715429 0.572245 0.414928
C39   C     C_R   0.470846 0.786729 0.069459 0.428528
C40   C     C_R   0.529151 0.213268 0.930545 0.429161
H1    H     H_    0.148546 0.220798 0.578278 0.154454
H2    H     H_    0.854878 0.766786 0.416958 0.158420
H3    H     H_    0.355539 0.732730 0.915490 0.159747
H4    H     H_    0.644459 0.267269 0.084512 0.159732
C41   C     C_1   0.382739 0.969008 0.614560 -0.169352
C42   C     C_1   0.617262 0.030992 0.385440 -0.173355
C43   C     C_1   0.117256 0.469255 0.885425 -0.175120
C44   C     C_1   0.882735 0.530750 0.114562 -0.173306
C45   C     C_1   0.426325 0.979796 0.571788 0.039402
C46   C     C_1   0.573676 0.020204 0.428214 0.036614
C47   C     C_1   0.073668 0.480006 0.928197 0.035900
C48   C     C_1   0.926320 0.520003 0.071786 0.037301
C49   C     C_1   0.478139 0.993910 0.521279 0.036257
C50   C     C_1   0.521863 0.006090 0.478723 0.035323
C51   C     C_1   0.021856 0.493984 0.978710 0.035054
C52   C     C_1   0.978131 0.506029 0.021272 0.035414
N1    N     N_3   0.073034 0.668438 0.660989 -0.543036
H5    H     H_    0.076798 0.710007 0.710754 0.256724
H6    H     H_    0.111220 0.588216 0.645630 0.228933
N2    N     N_3   0.921467 0.347645 0.351491 -0.549138
H7    H     H_    0.882097 0.414779 0.371644 0.243531
H8    H     H_    0.917533 0.324949 0.300189 0.263257
N3    N     N_3   0.418622 0.144377 0.855875 -0.541732
H9    H     H_    0.415277 0.162796 0.804231 0.264278
H10   H     H_    0.378412 0.083709 0.876632 0.244179
N4    N     N_3   0.581374 0.855618 0.144130 -0.541709
H11   H     H_    0.621584 0.916291 0.123373 0.244179
H12   H     H_    0.584720 0.837196 0.195774 0.264696
N5    N     N_3   0.110153 0.432835 0.491309 -0.598907
H13   H     H_    0.098049 0.545969 0.462039 0.283979
H14   H     H_    0.101373 0.482464 0.539772 0.212382
N6    N     N_3   0.891011 0.561115 0.504389 -0.666319
H15   H     H_    0.910939 0.436401 0.519167 0.276853
H16   H     H_    0.848596 0.583603 0.530045 0.286055
N7    N     N_3   0.388836 0.934032 0.004622 -0.666512
H17   H     H_    0.347930 0.909322 0.032828 0.284994
H18   H     H_    0.408152 0.060427 0.017851 0.277744
N8    N     N_3   0.611160 0.065964 0.995382 -0.666585
H19   H     H_    0.652066 0.090672 0.967176 0.284734
H20   H     H_    0.591843 0.939569 0.982154 0.277795
S1    S     S_3+6 0.055430 0.395029 0.352527 0.039625
O21   O     O_2   0.037865 0.288845 0.291656 -0.308542
O22   O     O_2   0.026544 0.584551 0.351782 -0.322702
O23   O     O_3   0.132827 0.416741 0.349381 -0.475360
H21   H     H_    0.142524 0.494879 0.309465 0.381684
S2    S     S_3+6 0.946170 0.573937 0.643019 0.018631
O24   O     O_2   0.984332 0.399618 0.641641 -0.332633
O25   O     O_2   0.955501 0.677394 0.706976 -0.298693
O26   O     O_3   0.871146 0.515142 0.643247 -0.505919
H22   H     H_    0.865157 0.426444 0.680879 0.382694
S3    S     S_3+6 0.449577 0.928546 0.140413 0.020880
O27   O     O_2   0.465846 0.832253 0.204093 -0.307596
O28   O     O_2   0.483389 0.109623 0.134376 -0.325075
O29   O     O_3   0.373239 0.972064 0.145908 -0.505138
H23   H     H_    0.367480 0.062283 0.182953 0.383506
S4    S     S_3+6 0.550418 0.071449 0.859591 0.018795
O30   O     O_2   0.516606 0.890373 0.865629 -0.325317
O31   O     O_2   0.534150 0.167740 0.795911 -0.309272
O32   O     O_3   0.626756 0.027927 0.854096 -0.506263
H24   H     H_    0.632514 0.937684 0.817060 0.381926

loop_
_geom_bond_atom_site_label_1
_geom_bond_atom_site_label_2
_ccdc_geom_bond_type
C34   C38   A    
N3    H9    S    
O17   V3    S    
N5    H13   S    
O19   V1    S    
O13   V1    S    
O3    C7    A    
C1    C44   S    
C44   C48   T    
O15   V3    S    
N1    H5    S    
C3    C42   S    
O32   H24   S    
C49   C50   T    
O1    C5    A    
S1    O22   D    
C21   C33   A    
O5    C1    A    
C26   C30   A    
O9    V1    S    
N2    H8    S    
C14   C18   A    
C11   C15   A    
O4    C8    A    
S3    O27   D    
O1    V3    S    
C35   N7    S    
O23   H21   S    
O2    V4    S    
C18   C22   A    
O3    V1    S    
C34   N6    S    
O29   H23   S    
S2    O24   D    
C11   N3    S    
C1    O15   A    
C2    O16   A    
S3    O28   D    
N6    H16   S    
O2    C6    A    
C41   C45   T    
O14   V2    S    
C37   S1    S    
C16   C20   A    
S4    O32   S    
C39   S3    S    
C2    C43   S    
O11   C7    A    
O12   C8    A    
C33   N5    S    
C22   C34   A    
C13   C17   A    
C10   N2    S    
O10   V2    S    
C36   N8    S    
N1    H6    S    
S4    O31   D    
C24   C36   A    
O5    V1    S    
C31   C40   A    
C9    C29   A    
S1    O23   S    
O7    V3    S    
C11   C31   A    
C27   C28   A    
O8    V4    S    
C12   C16   A    
N2    H7    S    
O18   V4    S    
C15   C19   A    
C9    C13   A    
O7    C3    A    
C42   C46   T    
C12   C32   A    
C29   C38   A    
N4    H12   S    
N7    H17   S    
C38   S2    S    
C21   C25   A    
O8    C4    A    
S3    O29   S    
N6    H15   S    
C8    C13   S    
C32   C39   A    
O9    C5    A    
C33   C37   A    
S2    O26   S    
O6    V2    S    
C4    C41   S    
C9    N1    S    
C10   C30   A    
N3    H10   S    
C20   H4    S    
S4    O30   D    
O26   H22   S    
O16   V4    S    
C12   N4    S    
C3    O13   A    
C45   C49   S    
N7    H18   S    
C10   C14   A    
C48   C52   S    
O6    C2    A    
C23   C27   A    
O11   V3    S    
C30   C37   A    
O12   V4    S    
C7    C14   S    
S1    O21   D    
C22   C26   A    
C35   C39   A    
C40   S4    S    
N8    H20   S    
C36   C40   A    
O10   C6    A    
O20   V2    S    
C43   C47   T    
N4    H11   S    
N5    H14   S    
C5    C16   S    
C19   C23   A    
C25   C29   A    
C6    C15   S    
C27   C31   A    
C17   H1    S    
N8    H19   S    
S2    O25   D    
C23   C35   A    
C51   C52   T    
C28   C32   A    
C24   C28   A    
C19   H3    S    
C25   C26   A    
C46   C50   S    
C4    O14   A    
C18   H2    S    
C17   C21   A    
C47   C51   S    
O4    V2    S    
C20   C24   A    
