data_mof_unit_54921.cif
_audit_creation_date              2012-12-11T14:56:39-0500
_audit_creation_method            fapswitch 2.2
_symmetry_space_group_name_H-M    P1
_symmetry_Int_Tables_number       1
_space_group_crystal_system       triclinic
_cell_length_a                    10.522906
_cell_length_b                    10.736624
_cell_length_c                    17.10665
_cell_angle_alpha                 80.257122
_cell_angle_beta                  89.826228
_cell_angle_gamma                 119.468546
_cell_volume                      1649.99929167

loop_
_atom_site_label
_atom_site_type_symbol
_atom_type_description
_atom_site_fract_x
_atom_site_fract_y
_atom_site_fract_z
_atom_type_partial_charge
C1    C     C_R   0.222948 0.854528 0.128718 0.541099
C2    C     C_R   0.716413 0.247941 0.308999 -0.161981
C3    C     C_R   0.712729 0.222657 0.231966 0.195479
C4    C     C_R   0.612812 0.239994 0.183297 0.008475
C5    C     C_1   0.669719 0.847630 0.205158 0.000890
C6    C     C_1   0.680790 0.838134 0.274635 0.001938
C7    C     C_1   0.181206 0.826225 0.211321 -0.035540
C8    C     C_1   0.151996 0.820502 0.279897 -0.028864
C9    C     C_1   0.665166 0.357620 0.780455 -0.076087
C10   C     C_1   0.687409 0.401356 0.709889 -0.045404
C11   C     C_R   0.618979 0.696454 0.815967 -0.181834
C12   C     C_R   0.610462 0.211470 0.102373 0.593584
C13   C     C_R   0.603760 0.677939 0.738215 0.010406
C14   C     C_R   0.693491 0.795123 0.676397 0.010849
C15   C     C_R   0.793408 0.934250 0.694284 0.243969
C16   C     C_R   0.804226 0.951359 0.774000 0.266032
C17   C     C_R   0.705399 0.835323 0.833184 -0.013271
C18   C     C_R   0.247673 0.973809 0.754193 0.061927
C19   C     C_R   0.246420 0.960787 0.674637 0.043192
C20   C     C_R   0.178677 0.821809 0.656128 0.020085
C21   C     C_R   0.146954 0.697944 0.715100 0.222894
C22   C     C_R   0.155303 0.711338 0.794949 0.062172
C23   C     C_R   0.641275 0.858120 0.125108 0.538300
C24   C     C_R   0.201281 0.848203 0.815019 0.039203
C25   C     C_R   0.686472 0.809735 0.357124 0.551166
C26   C     C_R   0.679835 0.381045 0.401055 0.575734
C27   C     C_R   0.104044 0.810593 0.359310 0.550713
C28   C     C_R   0.700242 0.765671 0.596647 0.571502
C29   C     C_R   0.717717 0.445615 0.625984 0.567100
C30   C     C_R   0.104486 0.803367 0.584027 0.575318
C31   C     C_R   0.229602 0.867591 0.896782 0.603325
C32   C     C_R   0.641026 0.290753 0.861930 0.540700
C33   C     C_R   0.651453 0.863614 0.902686 0.554461
C34   C     C_R   0.512810 0.277177 0.214345 0.220029
C35   C     C_R   0.517040 0.299655 0.292894 0.083651
C36   C     C_R   0.629540 0.299971 0.336567 -0.023600
Cr1   Cr    Cr6+3 0.402240 0.783890 0.019450 1.000482
Cr2   Cr    Cr6+3 0.382360 0.097900 0.991800 1.061020
Cr3   Cr    Cr6+3 0.715380 0.118170 0.988700 1.046175
Cr4   Cr    Cr6+3 0.936650 0.882420 0.465510 1.050927
Cr5   Cr    Cr6+3 0.605770 0.565620 0.493360 1.028650
Cr6   Cr    Cr6+3 0.921340 0.550490 0.496380 0.990401
H1    H     H_    0.794535 0.235360 0.345756 0.150036
H2    H     H_    0.545890 0.604758 0.862359 0.153007
O1    O     O_R   0.521780 0.757110 0.108900 -0.551772
O2    O     O_R   0.513330 0.228330 0.898660 -0.486271
O3    O     O_R   0.739230 0.266130 0.888050 -0.538049
O4    O     O_R   0.712580 0.991850 0.918770 -0.468986
O5    O     O_3   0.499990 0.999980 0.999980 -0.287986
O6    O     O_R   0.083770 0.911170 0.376030 -0.503974
O7    O     O_R   0.808770 0.880340 0.383890 -0.491178
O8    O     O_R   0.584340 0.689460 0.394160 -0.516991
O9    O     O_R   0.614320 0.443940 0.423590 -0.453807
O10   O     O_R   0.805020 0.410040 0.421340 -0.544706
O11   O     O_R   0.049240 0.685450 0.403290 -0.505456
O12   O     O_R   0.275160 0.783810 0.101120 -0.506599
O13   O     O_R   0.077520 0.903010 0.551800 -0.469547
O14   O     O_R   0.802980 0.872780 0.546830 -0.469360
O15   O     O_R   0.578090 0.681300 0.569920 -0.503105
O16   O     O_R   0.608530 0.436370 0.586530 -0.510004
O17   O     O_R   0.798770 0.401880 0.597100 -0.530012
O18   O     O_R   0.043450 0.677890 0.566230 -0.500413
O19   O     O_3   0.821250 0.666180 0.485090 -0.298882
O20   O     O_R   0.237900 0.972600 0.090980 -0.487972
O21   O     O_R   0.511190 0.220540 0.061620 -0.476108
O22   O     O_R   0.736920 0.257720 0.063840 -0.488453
O23   O     O_R   0.710450 0.984050 0.081720 -0.472372
O24   O     O_R   0.524090 0.765520 0.933110 -0.537523
O25   O     O_R   0.277300 0.791600 0.938160 -0.475457
O26   O     O_R   0.240210 0.981010 0.915190 -0.470089
O27   O     O_3   0.408823 0.289314 0.169441 -0.550913
C37   C     C_3   0.470007 0.435394 0.128474 -0.078623
H3    H     H_    0.563346 0.466677 0.084192 0.131462
H4    H     H_    0.507936 0.513163 0.169860 0.115594
H5    H     H_    0.384439 0.446879 0.095624 0.144627
N1    N     N_3   0.308448 0.087858 0.611713 -0.590660
H6    H     H_    0.420597 0.150130 0.616764 0.238602
H7    H     H_    0.258477 0.149769 0.617292 0.261233
O28   O     O_3   0.089596 0.559495 0.697780 -0.580253
C38   C     C_3   0.195149 0.550909 0.650749 -0.097658
H8    H     H_    0.307796 0.647974 0.643044 0.131692
H9    H     H_    0.158477 0.532254 0.591055 0.158149
H10   H     H_    0.200699 0.452950 0.678172 0.119302
N2    N     N_3   0.112165 0.584678 0.856108 -0.594641
H11   H     H_    0.176622 0.538816 0.845475 0.238727
H12   H     H_    0.002786 0.508963 0.851793 0.262299
N3    N     N_3   0.408018 0.322378 0.328239 -0.576784
H13   H     H_    0.415395 0.418525 0.297236 0.237773
H14   H     H_    0.304379 0.235278 0.323489 0.262070
O29   O     O_3   0.801613 0.174005 0.204861 -0.552361
C39   C     C_3   0.950413 0.283730 0.199295 -0.076430
H15   H     H_    0.016297 0.254768 0.163301 0.155931
H16   H     H_    0.991527 0.289846 0.259043 0.110420
H17   H     H_    0.969012 0.392423 0.168650 0.124850
N4    N     N_3   0.484819 0.544823 0.722772 -0.606340
H18   H     H_    0.389840 0.536382 0.747892 0.218621
H19   H     H_    0.489925 0.457629 0.756516 0.231130
O30   O     O_3   0.880655 0.053919 0.634947 -0.552419
C40   C     C_3   0.793516 0.110086 0.598807 -0.094847
H20   H     H_    0.866596 0.213768 0.556862 0.163886
H21   H     H_    0.734388 0.132851 0.643238 0.105815
H22   H     H_    0.711334 0.035429 0.563842 0.133746
O31   O     O_3   0.919136 0.072721 0.796323 -0.558657
C41   C     C_3   0.908060 0.198266 0.769948 -0.033183
H23   H     H_    0.964463 0.275776 0.810148 0.162114
H24   H     H_    0.792610 0.174792 0.770894 0.125796
H25   H     H_    0.965965 0.253462 0.709643 0.171558
N5    N     N_3   0.293116 0.114255 0.773006 -0.568589
H26   H     H_    0.219759 0.148307 0.752067 0.263197
H27   H     H_    0.396837 0.188678 0.743828 0.220521

loop_
_geom_bond_atom_site_label_1
_geom_bond_atom_site_label_2
_ccdc_geom_bond_type
N3    H13   S    
Cr2   O26   S    
C23   O1    A    
Cr1   O25   S    
C35   C36   A    
C41   H24   S    
C7    C8    T    
Cr2   O5    S    
C20   C30   S    
Cr4   O19   S    
C13   N4    S    
C3    O29   S    
C18   C24   A    
C19   N1    S    
C1    O12   A    
N2    H12   S    
C18   C19   A    
C38   H10   S    
C5    C6    T    
C27   O11   A    
C6    C25   S    
C15   C16   A    
Cr1   O24   S    
C26   C36   S    
N5    H26   S    
C34   C35   A    
C23   O23   A    
C9    C32   S    
Cr2   O2    S    
Cr1   O12   S    
C35   N3    S    
C31   O26   A    
N4    H18   S    
Cr3   O23   S    
C16   C17   A    
Cr2   O21   S    
C4    C12   S    
C9    C10   T    
Cr6   O18   S    
Cr5   O8    S    
C27   O6    A    
C29   O17   A    
C21   C22   A    
C17   C33   S    
C37   H5    S    
C26   O10   A    
C41   H23   S    
Cr2   O20   S    
C4    C34   A    
Cr4   O14   S    
C26   O9    A    
N2    H11   S    
Cr5   O15   S    
C38   H9    S    
C39   H15   S    
C38   H8    S    
C12   O22   A    
C30   O13   A    
C22   N2    S    
C25   O7    A    
Cr6   O11   S    
C39   H16   S    
Cr1   O5    S    
C16   O31   S    
C40   H20   S    
C5    C23   S    
C29   O16   A    
C2    H1    S    
C21   O28   S    
C11   H2    S    
N1    H6    S    
Cr6   O17   S    
Cr5   O9    S    
C37   H4    S    
Cr3   O5    S    
N3    H14   S    
Cr3   O22   S    
C22   C24   A    
Cr5   O19   S    
C15   O30   S    
Cr1   O1    S    
C3    C4    A    
C1    O20   A    
Cr3   O3    S    
C28   O15   A    
C2    C36   A    
C8    C27   S    
C11   C17   A    
Cr4   O13   S    
C40   H21   S    
C1    C7    S    
C32   O2    A    
Cr5   O16   S    
N1    H7    S    
C37   H3    S    
N4    H19   S    
C28   O14   A    
Cr4   O7    S    
C12   O21   A    
C19   C20   A    
C30   O18   A    
C2    C3    A    
C25   O8    A    
O27   C37   S    
Cr6   O10   S    
C39   H17   S    
C11   C13   A    
C10   C29   S    
O29   C39   S    
Cr4   O6    S    
Cr6   O19   S    
C32   O3    A    
N5    H27   S    
C18   N5    S    
C24   C31   S    
O28   C38   S    
C31   O25   A    
C40   H22   S    
C20   C21   A    
O30   C40   S    
O31   C41   S    
C33   O4    A    
C14   C15   A    
C14   C28   S    
C13   C14   A    
C34   O27   S    
C41   H25   S    
C33   O24   A    
Cr3   O4    S    
