data_mof_unit_52260.cif
_audit_creation_date              2012-12-10T17:25:20-0500
_audit_creation_method            fapswitch 2.2
_symmetry_space_group_name_H-M    P1
_symmetry_Int_Tables_number       1
_space_group_crystal_system       triclinic
_cell_length_a                    27.799789
_cell_length_b                    10.787258
_cell_length_c                    9.635223
_cell_angle_alpha                 90.119176
_cell_angle_beta                  90.418859
_cell_angle_gamma                 92.933821
_cell_volume                      2885.57139846

loop_
_atom_site_label
_atom_site_type_symbol
_atom_type_description
_atom_site_fract_x
_atom_site_fract_y
_atom_site_fract_z
_atom_type_partial_charge
C1    C     C_R   0.499565 0.263198 0.499764 0.796503
C2    C     C_R   0.279550 0.442746 0.613024 -0.087026
C3    C     C_R   0.253528 0.495926 0.506062 0.327890
C4    C     C_R   0.101748 0.496066 0.516374 -0.044244
C5    C     C_R   0.124910 0.384325 0.496658 -0.022364
C6    C     C_R   0.097275 0.273635 0.478987 -0.142914
C7    C     C_R   0.129867 0.607205 0.535171 -0.020749
C8    C     C_R   0.354683 0.505010 0.498871 -0.103755
C9    C     C_R   0.645387 0.501551 0.502108 0.000394
C10   C     C_R   0.971755 0.386528 0.485455 0.041898
C11   C     C_R   0.976780 0.609627 0.545701 0.043218
C12   C     C_R   0.407671 0.502465 0.499352 0.798829
C13   C     C_R   0.949018 0.498629 0.514623 0.069476
C14   C     C_R   0.942394 0.280350 0.448255 -0.203387
C15   C     C_R   0.892512 0.283192 0.444379 -0.136639
C16   C     C_R   0.869809 0.391818 0.477108 -0.026055
C17   C     C_R   0.897884 0.499814 0.512436 -0.042985
C18   C     C_R   0.874687 0.609039 0.545414 -0.022187
C19   C     C_R   0.824167 0.608170 0.542705 0.539784
C20   C     C_R   0.819390 0.395204 0.474776 0.543705
C21   C     C_R   0.721425 0.509987 0.379221 -0.096611
C22   C     C_R   0.671263 0.509621 0.377333 -0.234237
C23   C     C_R   0.500038 0.737089 0.500283 0.860644
C24   C     C_R   0.670640 0.495390 0.628689 -0.117566
C25   C     C_R   0.720790 0.496577 0.630275 -0.089129
C26   C     C_R   0.746260 0.503298 0.505619 0.350828
C27   C     C_R   0.022810 0.384417 0.492775 0.043963
C28   C     C_R   0.050601 0.496758 0.516782 0.069243
C29   C     C_R   0.027883 0.609869 0.540668 0.043010
C30   C     C_R   0.047302 0.273351 0.477366 -0.203106
C31   C     C_R   0.107223 0.718369 0.554753 -0.139352
C32   C     C_R   0.952210 0.716857 0.581368 -0.204535
C33   C     C_R   0.902244 0.716339 0.580927 -0.141841
C34   C     C_R   0.592402 0.499914 0.500537 0.861144
C35   C     C_R   0.057328 0.720000 0.557243 -0.203363
C36   C     C_R   0.412940 0.117542 0.558262 -0.166471
C37   C     C_R   0.371134 0.047125 0.590660 -0.116441
C38   C     C_R   0.371833 0.918490 0.596406 -0.106414
C39   C     C_R   0.414261 0.859798 0.568927 -0.102494
C40   C     C_R   0.457112 0.929292 0.534331 0.084226
C41   C     C_R   0.456484 0.059688 0.530595 0.082922
C42   C     C_R   0.499214 0.129301 0.498829 -0.152906
C43   C     C_R   0.542409 0.072028 0.470213 -0.066758
C44   C     C_R   0.543218 0.941770 0.470232 -0.099022
C45   C     C_R   0.175459 0.385982 0.494870 0.545644
C46   C     C_R   0.500213 0.871428 0.502025 -0.170429
C47   C     C_R   0.565178 0.661638 0.145272 -0.158078
C48   C     C_R   0.599084 0.735660 0.075196 -0.235479
C49   C     C_R   0.600523 0.734730 0.931678 -0.045573
C50   C     C_R   0.566452 0.659983 0.858461 -0.193793
C51   C     C_R   0.532362 0.579192 0.926308 0.185278
C52   C     C_R   0.532065 0.579555 0.075464 0.192409
C53   C     C_R   0.469431 0.423269 0.071532 0.084330
C54   C     C_R   0.469532 0.424236 0.924129 -0.065221
C55   C     C_R   0.180283 0.604791 0.532647 0.542969
C56   C     C_R   0.277826 0.553290 0.394970 -0.149454
C57   C     C_R   0.328314 0.560351 0.390300 -0.043722
C58   C     C_R   0.329631 0.447071 0.609400 -0.232207
Cu1   Cu    Cu3+1 0.500000 0.499990 0.640660 0.965143
Cu2   Cu    Cu3+1 0.500000 0.500010 0.359340 1.012416
H1    H     H_    0.348868 0.403588 0.692894 0.167618
H2    H     H_    0.257020 0.595548 0.313851 0.168902
H3    H     H_    0.128036 0.805373 0.567739 0.189636
H4    H     H_    0.970439 0.802887 0.612815 0.139488
H5    H     H_    0.651723 0.489549 0.726505 0.165390
H6    H     H_    0.885269 0.801050 0.608660 0.189490
H7    H     H_    0.739912 0.491460 0.728241 0.141349
H8    H     H_    0.043064 0.810235 0.569465 0.137678
H9    H     H_    0.410695 0.217340 0.554662 0.124830
H10   H     H_    0.338114 0.092606 0.611523 0.160059
H11   H     H_    0.260898 0.398499 0.699442 0.155115
H12   H     H_    0.339356 0.863820 0.621831 0.165778
H13   H     H_    0.412943 0.759714 0.574646 0.146918
H14   H     H_    0.566966 0.671688 0.254443 0.220073
H15   H     H_    0.625005 0.792812 0.133913 0.207542
H16   H     H_    0.567652 0.669547 0.749048 0.242533
H17   H     H_    0.444734 0.362131 0.866942 0.138964
H18   H     H_    0.114193 0.186117 0.465938 0.186281
H19   H     H_    0.652815 0.515164 0.278326 0.167861
H20   H     H_    0.741056 0.515513 0.282597 0.145445
H21   H     H_    0.871752 0.199292 0.415245 0.192534
H22   H     H_    0.956760 0.193506 0.418447 0.140585
H23   H     H_    0.028970 0.183531 0.466043 0.136972
N1    N     N_R   0.201975 0.495330 0.511946 -0.463170
N2    N     N_R   0.797745 0.502306 0.507450 -0.471551
N3    N     N_R   0.500460 0.501210 0.147910 -0.237022
N4    N     N_R   0.500480 0.501290 0.852040 -0.203011
O1    O     O_R   0.500000 0.319640 0.618810 -0.582615
O2    O     O_2   0.792164 0.292220 0.440976 -0.510372
O3    O     O_2   0.207471 0.710899 0.551316 -0.537465
O4    O     O_2   0.801588 0.712298 0.574300 -0.523914
O5    O     O_R   0.500000 0.319660 0.381240 -0.526231
O6    O     O_R   0.430260 0.500010 0.618770 -0.597741
O7    O     O_R   0.430270 0.500030 0.381200 -0.539189
O8    O     O_R   0.500000 0.680340 0.618760 -0.596387
O9    O     O_R   0.500000 0.680360 0.381190 -0.581012
O10   O     O_R   0.569730 0.499970 0.618800 -0.596402
O11   O     O_R   0.569740 0.499990 0.381230 -0.597355
O12   O     O_2   0.197935 0.279526 0.474595 -0.530850
C59   C     C_2   0.587205 0.150093 0.447735 0.905425
O13   O     O_2   0.619427 0.152161 0.534934 -0.564098
O14   O     O_R   0.592530 0.219392 0.325953 -0.705762
H24   H     H_    0.625044 0.265990 0.320634 0.336595
C60   C     C_2   0.589098 0.880257 0.438926 0.836268
O15   O     O_2   0.597477 0.781086 0.492260 -0.618451
O16   O     O_R   0.623087 0.936118 0.349417 -0.725262
H25   H     H_    0.653563 0.888645 0.343422 0.343835
C61   C     C_2   0.435386 0.334372 0.138983 0.875771
O17   O     O_2   0.394292 0.363404 0.162152 -0.587696
O18   O     O_R   0.448979 0.213704 0.165392 -0.734913
H26   H     H_    0.422320 0.160330 0.210080 0.331894
C62   C     C_2   0.638328 0.810796 0.858592 0.879087
O19   O     O_2   0.658344 0.900736 0.916266 -0.548276
O20   O     O_R   0.652195 0.777829 0.725072 -0.734880
H27   H     H_    0.678670 0.835915 0.686789 0.368606
C63   C     C_2   0.351508 0.630930 0.274376 0.903105
O21   O     O_2   0.333785 0.623849 0.157874 -0.568521
O22   O     O_R   0.392303 0.709327 0.298606 -0.770281
H28   H     H_    0.404427 0.752623 0.211375 0.341434

loop_
_geom_bond_atom_site_label_1
_geom_bond_atom_site_label_2
_ccdc_geom_bond_type
C10   C27   A    
C21   C26   A    
C41   C42   A    
C25   H7    S    
C7    C55   A    
C62   O20   S    
O20   H27   S    
C44   C60   S    
C15   H21   S    
C53   C54   A    
C63   O21   D    
C40   C46   A    
C54   N4    A    
C28   C29   A    
C22   H19   S    
C55   O3    S    
Cu2   O11   S    
C38   C39   A    
C9    C22   A    
C6    H18   S    
O16   H25   S    
C15   C16   A    
C34   O10   A    
C61   O17   D    
C18   C19   A    
C30   H23   S    
O18   H26   S    
C62   O19   D    
C8    C58   A    
O22   H28   S    
C23   O9    A    
C63   O22   S    
C16   C17   A    
C53   N3    A    
C16   C20   A    
C54   H17   S    
C58   H1    S    
Cu1   Cu2   S    
C23   C46   S    
C21   C22   A    
C27   C30   A    
C48   H15   S    
C12   O7    A    
C36   C41   A    
Cu1   O8    S    
C4    C7    A    
C60   O16   S    
C60   O15   D    
C4    C28   A    
C44   C46   A    
C33   H6    S    
C17   C18   A    
C57   C63   S    
Cu2   O5    S    
C38   H12   S    
C7    C31   A    
C51   C52   A    
C31   H3    S    
C24   C25   A    
C32   H4    S    
C45   O12   S    
C51   N4    A    
C39   C40   A    
Cu2   N3    S    
C25   C26   A    
C5    C45   A    
C43   C44   A    
C37   C38   A    
C50   H16   S    
C8    C57   A    
C3    C56   A    
C47   C48   A    
C8    C12   S    
C20   N2    A    
C59   O14   S    
C50   C51   A    
C43   C59   S    
C24   H5    S    
C49   C62   S    
Cu2   O9    S    
C40   C41   A    
C6    C30   A    
C11   C32   A    
C1    O5    A    
C10   C14   A    
C9    C34   S    
Cu1   O10   S    
C31   C35   A    
C12   O6    A    
C45   N1    A    
C42   C43   A    
C14   H22   S    
C2    H11   S    
C3    N1    S    
C36   H9    S    
C56   C57   A    
Cu1   O1    S    
C47   H14   S    
C4    C5    A    
C19   N2    A    
C10   C13   A    
C2    C58   A    
C9    C24   A    
C47   C52   A    
C20   O2    S    
C29   C35   A    
C13   C17   A    
C32   C33   A    
C52   N3    A    
C2    C3    A    
C11   C13   A    
C53   C61   S    
C5    C6    A    
C61   O18   S    
C35   H8    S    
C1    O1    A    
C26   N2    S    
C48   C49   A    
C21   H20   S    
C59   O13   D    
C34   O11   A    
C23   O8    A    
C56   H2    S    
C39   H13   S    
O14   H24   S    
C18   C33   A    
Cu1   N4    S    
C19   O4    S    
C1    C42   S    
C11   C29   A    
C36   C37   A    
C49   C50   A    
C27   C28   A    
C14   C15   A    
Cu1   O6    S    
C55   N1    A    
C37   H10   S    
Cu2   O7    S    
