data_mof_unit_56243.cif
_audit_creation_date              2012-10-26T19:55:49-0400
_audit_creation_method            fapswitch 2.2
_symmetry_space_group_name_H-M    P1
_symmetry_Int_Tables_number       1
_space_group_crystal_system       triclinic
_cell_length_a                    10.803006
_cell_length_b                    10.77461
_cell_length_c                    9.592562
_cell_angle_alpha                 90.135135
_cell_angle_beta                  89.76426
_cell_angle_gamma                 92.782976
_cell_volume                      1115.2278216

loop_
_atom_site_label
_atom_site_type_symbol
_atom_type_description
_atom_site_fract_x
_atom_site_fract_y
_atom_site_fract_z
_atom_type_partial_charge
C1    C     C_R   0.496581 0.262597 0.499841 0.585302
C2    C     C_R   0.803324 0.337564 0.961657 0.258377
C3    C     C_R   0.737322 0.227475 0.924602 -0.036270
C4    C     C_R   0.262613 0.502792 0.500003 0.527153
C5    C     C_R   0.737588 0.185324 0.786779 -0.155258
C6    C     C_R   0.803512 0.253223 0.684596 -0.083401
C7    C     C_R   0.869909 0.364039 0.719637 0.015562
C8    C     C_R   0.300239 0.120948 0.646281 -0.110786
C9    C     C_R   0.208803 0.052527 0.719782 -0.120482
C10   C     C_R   0.209857 0.923635 0.723072 -0.133059
C11   C     C_R   0.302099 0.862436 0.652502 -0.114777
C12   C     C_R   0.260539 0.743587 0.051994 -0.102061
C13   C     C_R   0.396502 0.929964 0.577954 0.008760
C14   C     C_R   0.396277 0.061034 0.575812 -0.024640
C15   C     C_R   0.489612 0.128271 0.499134 0.027224
C16   C     C_R   0.495888 0.736992 0.500291 0.521654
C17   C     C_R   0.577662 0.067246 0.419715 0.198021
C18   C     C_R   0.575749 0.938191 0.420978 -0.160824
C19   C     C_R   0.488503 0.870337 0.500982 -0.033831
C20   C     C_R   0.664896 0.665479 0.143737 -0.091738
C21   C     C_R   0.746283 0.745737 0.071451 -0.189879
C22   C     C_R   0.746333 0.745829 0.927809 -0.178012
C23   C     C_R   0.936380 0.554087 0.390712 -0.144429
C24   C     C_R   0.665023 0.665627 0.855627 -0.085308
C25   C     C_R   0.580891 0.581600 0.925022 0.162138
C26   C     C_R   0.580811 0.581582 0.074613 0.183527
C27   C     C_R   0.423150 0.422245 0.074056 0.020989
C28   C     C_R   0.737351 0.497298 0.499918 0.553194
C29   C     C_R   0.423151 0.422296 0.926122 -0.004213
C30   C     C_R   0.265790 0.794841 0.185958 -0.089257
C31   C     C_R   0.199753 0.736653 0.295295 -0.062308
C32   C     C_R   0.128989 0.625940 0.271529 0.051233
C33   C     C_R   0.122854 0.575804 0.136263 -0.098822
C34   C     C_R   0.871258 0.494764 0.499967 0.018768
C35   C     C_R   0.188318 0.634713 0.026892 -0.124860
C36   C     C_R   0.934901 0.438497 0.609495 -0.023743
C37   C     C_R   0.063466 0.446819 0.609501 -0.160165
C38   C     C_R   0.128682 0.505747 0.499783 -0.002714
C39   C     C_R   0.064836 0.560123 0.388836 -0.028761
C40   C     C_R   0.870579 0.405606 0.858479 -0.097593
Cu1   Cu    Cu3+1 0.499990 0.499990 0.640660 0.907057
Cu2   Cu    Cu3+1 0.500010 0.500010 0.359340 0.981870
H1    H     H_    0.312695 0.788028 0.967814 0.121619
H2    H     H_    0.359926 0.358735 0.129402 0.113427
H3    H     H_    0.321590 0.879248 0.205324 0.116002
H4    H     H_    0.672740 0.672899 0.253567 0.170039
H5    H     H_    0.809833 0.808337 0.127646 0.114857
H6    H     H_    0.809841 0.808625 0.871564 0.117522
H7    H     H_    0.672684 0.673628 0.745723 0.183228
H8    H     H_    0.359968 0.358773 0.870980 0.105189
H9    H     H_    0.204698 0.776796 0.398590 0.097395
H10   H     H_    0.069944 0.489779 0.116318 0.104454
H11   H     H_    0.184400 0.595071 0.923096 0.110100
H12   H     H_    0.685185 0.174676 0.002915 0.148443
H13   H     H_    0.887170 0.598815 0.308032 0.111517
H14   H     H_    0.112775 0.402203 0.692411 0.114886
H15   H     H_    0.921066 0.491642 0.885351 0.086305
H16   H     H_    0.720649 0.078738 0.294612 0.317763
H17   H     H_    0.845841 0.457776 0.106233 0.311626
H18   H     H_    0.685922 0.100328 0.758890 0.116647
H19   H     H_    0.802115 0.220166 0.577920 0.155446
H20   H     H_    0.292756 0.220546 0.643111 0.121959
H21   H     H_    0.135943 0.099718 0.772939 0.109979
H22   H     H_    0.137894 0.870647 0.778938 0.109969
H23   H     H_    0.296213 0.762100 0.654441 0.140598
H24   H     H_    0.644684 0.890226 0.361857 0.094902
N1    N     N_R   0.501190 0.501210 0.147910 -0.224393
N2    N     N_R   0.501230 0.501290 0.852040 -0.244430
O1    O     O_R   0.499990 0.319640 0.618810 -0.514119
O2    O     O_3   0.799427 0.376487 0.098491 -0.670191
O3    O     O_R   0.500000 0.319660 0.381240 -0.444082
O4    O     O_R   0.319640 0.500000 0.618780 -0.531225
O5    O     O_R   0.319650 0.500020 0.381210 -0.494503
O6    O     O_R   0.500000 0.680340 0.618760 -0.531299
O7    O     O_R   0.500010 0.680360 0.381190 -0.523119
O8    O     O_R   0.680350 0.499980 0.618790 -0.515648
O9    O     O_R   0.680360 0.500000 0.381220 -0.487932
O10   O     O_3   0.666297 0.135924 0.344381 -0.676570

loop_
_geom_bond_atom_site_label_1
_geom_bond_atom_site_label_2
_ccdc_geom_bond_type
C22   H6    S    
C35   H11   S    
C16   O7    A    
C7    C36   S    
C30   H3    S    
C33   H10   S    
Cu2   O7    S    
C1    O3    A    
C16   O6    A    
C26   N1    A    
C6    H19   S    
C36   C37   A    
C12   H1    S    
C30   C31   A    
C3    H12   S    
C27   C29   A    
C18   C19   A    
Cu1   Cu2   S    
C32   C39   S    
C17   O10   S    
Cu1   O6    S    
C37   H14   S    
C27   H2    S    
C8    C9    A    
C7    C40   A    
C1    C15   S    
C9    C10   A    
C28   C34   S    
C21   C22   A    
C25   N2    A    
Cu1   N2    S    
C29   H8    S    
C38   C39   A    
C13   C19   A    
C24   C25   A    
C25   C26   A    
C1    O1    A    
C37   C38   A    
C29   N2    A    
C31   C32   A    
C23   C34   A    
C17   C18   A    
C12   C35   A    
C28   O9    A    
C4    O5    A    
Cu1   O4    S    
C4    C38   S    
Cu2   N1    S    
C22   C24   A    
C28   O8    A    
C4    O4    A    
Cu1   O1    S    
C24   H7    S    
C15   C17   A    
Cu2   O5    S    
C8    C14   A    
C40   H15   S    
C5    H18   S    
C12   C30   A    
C9    H21   S    
C10   H22   S    
C31   H9    S    
C3    C5    A    
C23   H13   S    
C6    C7    A    
C18   H24   S    
C32   C33   A    
C2    C3    A    
C2    O2    S    
Cu1   O8    S    
C11   C13   A    
C5    C6    A    
C20   C26   A    
C16   C19   S    
C23   C39   A    
Cu2   O3    S    
C33   C35   A    
C34   C36   A    
C27   N1    A    
C10   C11   A    
H16   O10   S    
H17   O2    S    
C2    C40   A    
C20   C21   A    
Cu2   O9    S    
C14   C15   A    
C13   C14   A    
C20   H4    S    
C11   H23   S    
C8    H20   S    
C21   H5    S    
