data_mof_unit_33022.cif
_audit_creation_date              2012-12-10T18:55:55-0500
_audit_creation_method            fapswitch 2.2
_symmetry_space_group_name_H-M    P1
_symmetry_Int_Tables_number       1
_space_group_crystal_system       triclinic
_cell_length_a                    10.744851
_cell_length_b                    9.869973
_cell_length_c                    14.972883
_cell_angle_alpha                 90.029489
_cell_angle_beta                  90.829334
_cell_angle_gamma                 91.257838
_cell_volume                      1587.34556311

loop_
_atom_site_label
_atom_site_type_symbol
_atom_type_description
_atom_site_fract_x
_atom_site_fract_y
_atom_site_fract_z
_atom_type_partial_charge
C1    C     C_R   0.260605 0.498495 0.507966 0.948771
C2    C     C_R   0.740262 0.501753 0.498192 1.012427
C3    C     C_R   0.500831 0.499955 0.328111 1.065392
C4    C     C_R   0.500410 0.500090 0.672018 1.030032
C5    C     C_R   0.571083 0.074443 0.560705 0.350733
C6    C     C_R   0.439938 0.926518 0.433464 0.340728
C7    C     C_R   0.430791 0.071553 0.437808 0.369919
C8    C     C_R   0.563376 0.929195 0.565006 0.336404
C9    C     C_R   0.060436 0.376548 0.496900 0.313616
C10   C     C_R   0.939619 0.618551 0.534732 0.353917
C11   C     C_R   0.934958 0.386906 0.475198 0.274343
C12   C     C_R   0.066696 0.613106 0.546041 0.357269
C13   C     C_R   0.602397 0.582510 0.097554 0.341122
C14   C     C_R   0.599583 0.431039 0.906899 0.291276
C15   C     C_R   0.419642 0.579964 0.907155 0.340672
C16   C     C_R   0.420107 0.426554 0.090321 0.373187
C17   C     C_R   0.599231 0.578015 0.190882 0.301694
C18   C     C_R   0.591874 0.423151 0.813365 0.256299
C19   C     C_R   0.418567 0.581527 0.813481 0.207499
C20   C     C_R   0.418810 0.421080 0.183807 0.237593
C21   C     C_R   0.505803 0.500201 0.232362 -0.259461
C22   C     C_R   0.503092 0.500831 0.768067 -0.211967
C23   C     C_R   0.512491 0.505386 0.048458 0.019270
C24   C     C_R   0.511562 0.506795 0.951978 -0.010954
C25   C     C_R   0.873582 0.504809 0.499870 -0.308273
C26   C     C_R   0.128060 0.494981 0.519827 -0.320494
N1    N     N_R   0.500000 0.857200 0.500000 -0.181558
N2    N     N_R   0.500000 0.142800 0.500000 -0.181527
O1    O     O_R   0.316770 0.614620 0.499990 -0.598664
O2    O     O_R   0.683230 0.385380 0.500010 -0.547762
O3    O     O_R   0.683230 0.614620 0.500010 -0.603607
O4    O     O_R   0.316770 0.385380 0.499990 -0.529799
O5    O     O_R   0.499990 0.614660 0.369060 -0.580303
O6    O     O_R   0.500010 0.385340 0.630940 -0.568266
O7    O     O_R   0.500010 0.614660 0.630940 -0.577909
O8    O     O_R   0.499990 0.385340 0.369060 -0.553368
Zn1   Zn    Zn3+2 0.500000 0.653120 0.500000 1.058397
Zn2   Zn    Zn3+2 0.500000 0.346880 0.500000 1.103583
O9    O     O_3   0.646259 0.149276 0.619008 -0.550276
C27   C     C_3   0.772607 0.117968 0.606621 -0.117651
H1    H     H_    0.830743 0.208094 0.625369 0.189836
H2    H     H_    0.794703 0.091937 0.536226 0.152180
H3    H     H_    0.800261 0.034205 0.651573 0.190858
O10   O     O_3   0.389202 0.854467 0.362250 -0.575020
C28   C     C_3   0.463453 0.878859 0.286450 -0.202571
H4    H     H_    0.431737 0.808887 0.232348 0.191613
H5    H     H_    0.563542 0.859534 0.300566 0.190084
H6    H     H_    0.453514 0.983686 0.260836 0.171376
O11   O     O_3   0.363318 0.145051 0.375361 -0.540314
C29   C     C_3   0.242252 0.089560 0.360651 -0.087804
H7    H     H_    0.179130 0.173371 0.343654 0.203240
H8    H     H_    0.203825 0.035579 0.419883 0.161932
H9    H     H_    0.240363 0.021525 0.301720 0.160374
O12   O     O_3   0.626213 0.858746 0.630773 -0.548624
C30   C     C_3   0.572289 0.884519 0.714421 -0.159176
H10   H     H_    0.603178 0.805884 0.762243 0.175849
H11   H     H_    0.468649 0.879381 0.711255 0.163665
H12   H     H_    0.604451 0.983927 0.741775 0.175758
O13   O     O_3   0.692691 0.663207 0.057422 -0.747160
H13   H     H_    0.676675 0.670209 0.992461 0.342624
O14   O     O_3   0.690877 0.367191 0.956217 -0.734096
H14   H     H_    0.766142 0.359743 0.919316 0.353855
O15   O     O_3   0.332668 0.646899 0.956912 -0.747376
H15   H     H_    0.253421 0.649285 0.922421 0.362722
O16   O     O_3   0.331985 0.358671 0.037806 -0.735189
H16   H     H_    0.252863 0.351967 0.070774 0.352554
O17   O     O_3   0.686841 0.646084 0.244002 -0.769013
H17   H     H_    0.747795 0.695475 0.206506 0.392002
O18   O     O_3   0.670507 0.343782 0.764531 -0.721423
H18   H     H_    0.693431 0.264064 0.800867 0.352862
O19   O     O_3   0.335532 0.657786 0.764615 -0.786814
H19   H     H_    0.313333 0.738239 0.800034 0.348431
O20   O     O_3   0.333643 0.341583 0.229501 -0.723363
H20   H     H_    0.312202 0.260420 0.193028 0.347406
O21   O     O_3   0.117334 0.252576 0.498203 -0.751225
H21   H     H_    0.053639 0.180365 0.508804 0.327100
O22   O     O_3   0.881637 0.734304 0.561476 -0.664631
H22   H     H_    0.852356 0.778729 0.505850 0.342812
O23   O     O_3   0.871417 0.285232 0.428531 -0.756903
H23   H     H_    0.931729 0.230040 0.395723 0.336929
O24   O     O_3   0.127280 0.724132 0.584048 -0.689612
H24   H     H_    0.197324 0.691092 0.621120 0.371944

loop_
_geom_bond_atom_site_label_1
_geom_bond_atom_site_label_2
_ccdc_geom_bond_type
C30   H10   S    
O20   H20   S    
C14   C18   A    
C19   O19   S    
O24   H24   S    
C3    O5    A    
O22   H22   S    
C15   C19   A    
O2    Zn2   S    
O7    Zn1   S    
C11   C25   A    
C13   C23   A    
C14   C24   A    
C27   H3    S    
C12   O24   S    
C29   H8    S    
C23   C24   S    
O4    Zn2   S    
C18   O18   S    
C27   H2    S    
C4    O7    A    
O13   H13   S    
C6    O10   S    
O18   H18   S    
C10   C12   A    
C10   O22   S    
C9    C26   A    
C28   H5    S    
C4    O6    A    
C17   O17   S    
C29   H9    S    
O17   H17   S    
C19   C22   A    
C7    O11   S    
C8    O12   S    
O9    C27   S    
C28   H4    S    
C14   O14   S    
C1    O4    A    
C17   C21   A    
C7    N2    A    
O3    Zn1   S    
C12   C26   A    
C2    O3    A    
O6    Zn2   S    
O21   H21   S    
C5    N2    A    
C4    C22   S    
C6    N1    A    
N2    Zn2   S    
C16   C20   A    
C1    O1    A    
C29   H7    S    
C9    C11   A    
C11   O23   S    
C10   C25   A    
C27   H1    S    
O11   C29   S    
C16   C23   A    
C30   H11   S    
C1    C26   S    
C3    C21   S    
O10   C28   S    
C28   H6    S    
C5    O9    S    
O12   C30   S    
C15   C24   A    
C18   C22   A    
O15   H15   S    
C5    C8    A    
C6    C7    A    
C13   O13   S    
C13   C17   A    
C2    O2    A    
O8    Zn2   S    
O19   H19   S    
C3    O8    A    
N1    Zn1   S    
C20   O20   S    
C2    C25   S    
O14   H14   S    
O5    Zn1   S    
O23   H23   S    
C20   C21   A    
O16   H16   S    
C30   H12   S    
O1    Zn1   S    
C8    N1    A    
C15   O15   S    
C16   O16   S    
C9    O21   S    
