data_mof_unit_33824.cif
_audit_creation_date              2012-12-10T21:34:56-0500
_audit_creation_method            fapswitch 2.2
_symmetry_space_group_name_H-M    P1
_symmetry_Int_Tables_number       1
_space_group_crystal_system       triclinic
_cell_length_a                    11.00085
_cell_length_b                    16.323919
_cell_length_c                    16.61614
_cell_angle_alpha                 88.351131
_cell_angle_beta                  94.599258
_cell_angle_gamma                 92.798831
_cell_volume                      2969.79389485

loop_
_atom_site_label
_atom_site_type_symbol
_atom_type_description
_atom_site_fract_x
_atom_site_fract_y
_atom_site_fract_z
_atom_type_partial_charge
C1    C     C_R   0.501217 0.488959 0.654203 0.844947
C2    C     C_R   0.483211 0.414951 0.791627 -0.097629
C3    C     C_R   0.433092 0.501841 0.117263 -0.043374
C4    C     C_R   0.742837 0.499876 0.501150 1.002128
C5    C     C_R   0.431293 0.478674 0.199513 0.113166
C6    C     C_R   0.528633 0.555206 0.092942 0.205229
C7    C     C_R   0.506682 0.523097 0.257715 -0.032193
C8    C     C_R   0.584584 0.587635 0.231691 -0.335400
C9    C     C_R   0.600212 0.602201 0.150033 -0.003302
C10   C     C_R   0.460050 0.761742 0.445661 0.266709
C11   C     C_R   0.462815 0.849537 0.444884 -0.101492
C12   C     C_3   0.123478 0.499517 0.507136 -0.175517
C13   C     C_R   0.512210 0.892203 0.513378 0.176594
C14   C     C_R   0.560674 0.846214 0.580061 0.036409
C15   C     C_R   0.565179 0.759291 0.575891 0.070920
C16   C     C_R   0.499655 0.511190 0.345959 0.920454
C17   C     C_R   0.557800 0.150912 0.545633 -0.105904
C18   C     C_R   0.547448 0.237472 0.550857 0.209338
C19   C     C_R   0.514297 0.110579 0.474682 0.200434
C20   C     C_R   0.429958 0.240742 0.424641 0.127273
C21   C     C_R   0.456291 0.157342 0.411889 -0.005157
C22   C     C_R   0.258938 0.499706 0.503588 0.862241
C23   C     C_3   0.064534 0.496505 0.416646 -0.111120
C24   C     C_3   0.930387 0.415015 0.552744 0.224870
C25   C     C_3   0.077811 0.415337 0.553157 -0.152245
C26   C     C_3   0.921545 0.502469 0.412276 0.109527
C27   C     C_3   0.939494 0.581865 0.552319 -0.156056
C28   C     C_3   0.880965 0.499691 0.504549 -0.113514
C29   C     C_3   0.874186 0.330697 0.516717 -0.829847
C30   C     C_2   0.133095 0.660472 0.505225 0.622419
C31   C     C_3   0.879974 0.579075 0.361013 -0.873323
C32   C     C_3   0.131556 0.544162 0.349058 -0.869468
C33   C     C_3   0.358125 0.403851 0.223987 -0.769816
C34   C     C_3   0.086257 0.582097 0.551100 0.051692
C35   C     C_2   0.334431 0.474619 0.055509 0.410657
C36   C     C_2   0.497731 0.337968 0.927712 0.525976
C37   C     C_2   0.385435 0.355889 0.758813 0.498728
C38   C     C_3   0.736040 0.603692 0.893219 -0.715396
C39   C     C_2   0.691217 0.666987 0.127371 0.450845
C40   C     C_3   0.887866 0.407812 0.640804 -0.694309
C41   C     C_3   0.612466 0.277821 0.623347 -0.742221
C42   C     C_2   0.625155 0.103390 0.610906 0.439266
C43   C     C_3   0.605674 0.891796 0.656024 -0.726981
C44   C     C_2   0.613506 0.715212 0.647591 0.515910
C45   C     C_R   0.527310 0.481472 0.743018 -0.191175
C46   C     C_2   0.335398 0.277238 0.368390 0.395478
C47   C     C_2   0.403744 0.896518 0.375749 0.417448
C48   C     C_3   0.419652 0.117678 0.331566 -0.864956
C49   C     C_3   0.383096 0.719440 0.378328 -0.681451
C50   C     C_2   0.144555 0.408056 0.637750 0.510133
C51   C     C_2   0.117975 0.336576 0.512126 0.521909
C52   C     C_2   0.862247 0.432300 0.360955 0.401297
C53   C     C_2   0.891681 0.665724 0.520040 0.403004
C54   C     C_2   0.896752 0.585840 0.637891 0.476640
C55   C     C_3   0.152207 0.589858 0.638579 -0.859381
C56   C     C_R   0.609341 0.540447 0.778822 -0.171925
C57   C     C_R   0.643260 0.539567 0.860748 0.168179
C58   C     C_R   0.592181 0.478150 0.909974 0.174874
C59   C     C_R   0.523875 0.411124 0.875070 -0.080902
H1    H     H_    0.636006 0.626101 0.275450 0.158593
H2    H     H_    0.934156 0.635751 0.374979 0.211546
H3    H     H_    0.228747 0.528672 0.350708 0.235104
H4    H     H_    0.090145 0.524879 0.288948 0.255735
H5    H     H_    0.128684 0.611232 0.349561 0.235311
H6    H     H_    0.422526 0.362408 0.256696 0.233909
H7    H     H_    0.284743 0.421998 0.260713 0.264982
H8    H     H_    0.316756 0.367394 0.172834 0.257875
H9    H     H_    0.351970 0.471599 0.992450 0.081586
H10   H     H_    0.489806 0.344578 0.991838 0.043031
H11   H     H_    0.376137 0.340047 0.695982 0.111192
H12   H     H_    0.649488 0.588076 0.743119 0.229786
H13   H     H_    0.771150 0.588885 0.956138 0.272482
H14   H     H_    0.815746 0.606913 0.856004 0.229080
H15   H     H_    0.694715 0.664506 0.890632 0.265827
H16   H     H_    0.756134 0.693101 0.173441 0.061576
H17   H     H_    0.942230 0.447072 0.684621 0.228879
H18   H     H_    0.791542 0.421848 0.642601 0.234422
H19   H     H_    0.894046 0.344676 0.667215 0.263742
H20   H     H_    0.644430 0.339325 0.607887 0.250712
H21   H     H_    0.553091 0.276596 0.674025 0.258395
H22   H     H_    0.698495 0.248197 0.643926 0.216843
H23   H     H_    0.082849 0.435266 0.396912 0.160117
H24   H     H_    0.693679 0.062160 0.595732 0.073995
H25   H     H_    0.624513 0.851689 0.709972 0.238411
H26   H     H_    0.691218 0.927658 0.645177 0.248776
H27   H     H_    0.535609 0.933756 0.672366 0.262828
H28   H     H_    0.549634 0.688656 0.688323 0.039461
H29   H     H_    0.302785 0.248152 0.312516 0.065755
H30   H     H_    0.345343 0.946024 0.386680 0.099049
H31   H     H_    0.447228 0.159092 0.281346 0.235264
H32   H     H_    0.465917 0.059937 0.324199 0.282716
H33   H     H_    0.319456 0.104361 0.325138 0.240375
H34   H     H_    0.914510 0.278185 0.551771 0.237249
H35   H     H_    0.343986 0.660130 0.397535 0.256099
H36   H     H_    0.300568 0.753718 0.359229 0.206926
H37   H     H_    0.437158 0.713292 0.325402 0.244265
H38   H     H_    0.228926 0.443055 0.652243 0.005066
H39   H     H_    0.085597 0.321083 0.451165 0.059488
H40   H     H_    0.917355 0.389557 0.332799 0.059510
H41   H     H_    0.824742 0.672807 0.469883 0.111534
H42   H     H_    0.949298 0.618773 0.685471 0.126507
H43   H     H_    0.141934 0.651817 0.662619 0.273798
H44   H     H_    0.115272 0.546679 0.683828 0.186991
H45   H     H_    0.777213 0.316849 0.521288 0.267717
H46   H     H_    0.251943 0.582622 0.639782 0.255310
H47   H     H_    0.890566 0.319448 0.453991 0.196570
H48   H     H_    0.091130 0.678915 0.447646 0.006914
H49   H     H_    0.888510 0.570929 0.295441 0.247731
H50   H     H_    0.782605 0.589030 0.366971 0.232576
N1    N     N_2   0.591584 0.487577 0.994083 -0.220004
N2    N     N_2   0.555984 0.555813 0.011629 -0.135254
N3    N     N_R   0.515460 0.716920 0.509720 -0.148387
N4    N     N_2   0.499113 0.978951 0.522113 -0.164219
N5    N     N_2   0.529514 0.024238 0.464201 -0.178082
N6    N     N_R   0.484530 0.283060 0.490290 -0.098595
O1    O     O_R   0.494470 0.422540 0.612660 -0.654047
O2    O     O_2   0.229719 0.460979 0.073413 -0.544103
O3    O     O_2   0.492024 0.268885 0.900938 -0.489284
O4    O     O_2   0.309071 0.326073 0.801870 -0.465877
O5    O     O_2   0.692973 0.693744 0.058135 -0.550534
O6    O     O_2   0.602480 0.108543 0.681285 -0.519775
O7    O     O_2   0.722813 0.718846 0.667166 -0.541213
O8    O     O_2   0.286662 0.338921 0.384062 -0.582344
O9    O     O_2   0.421834 0.881352 0.306288 -0.555185
O10   O     O_2   0.115985 0.354102 0.686117 -0.506394
O11   O     O_2   0.185170 0.287145 0.547348 -0.519615
O12   O     O_R   0.504400 0.561840 0.618900 -0.614725
O13   O     O_2   0.751828 0.425067 0.346036 -0.561110
O14   O     O_2   0.926624 0.729409 0.553663 -0.533851
O15   O     O_2   0.793658 0.563657 0.652428 -0.618328
O16   O     O_R   0.680240 0.430340 0.496890 -0.609175
O17   O     O_R   0.690170 0.569650 0.503130 -0.621055
O18   O     O_R   0.495600 0.438160 0.381100 -0.545698
O19   O     O_R   0.505530 0.577460 0.387340 -0.660344
O20   O     O_R   0.309830 0.430350 0.496870 -0.549341
O21   O     O_R   0.319760 0.569660 0.503110 -0.617329
O22   O     O_2   0.213498 0.707632 0.534596 -0.562745
Zn1   Zn    Zn3+2 0.493370 0.406980 0.495830 1.019258
Zn2   Zn    Zn3+2 0.506630 0.593020 0.504170 0.975111

loop_
_geom_bond_atom_site_label_1
_geom_bond_atom_site_label_2
_ccdc_geom_bond_type
O20   Zn1   S    
C23   H23   S    
C55   H44   S    
C30   H48   S    
C31   H49   S    
C31   H2    S    
C54   H42   S    
C11   C47   S    
C3    C6    A    
C16   O19   A    
C41   H21   S    
C52   O13   D    
C27   C54   S    
C33   H6    S    
C7    C8    A    
C4    O17   A    
O17   Zn2   S    
C55   H43   S    
C55   H46   S    
C19   C21   A    
C15   C44   S    
C39   O5    D    
C12   C22   S    
C9    C39   S    
C56   C57   A    
C6    N2    S    
C23   C26   S    
C25   C50   S    
C24   C40   S    
C17   C42   S    
C45   C56   A    
C8    C9    A    
C48   H32   S    
C5    C33   S    
C10   N3    A    
C1    O1    A    
C39   H16   S    
C49   H35   S    
C44   H28   S    
C36   O3    D    
O1    Zn1   S    
C21   C48   S    
C36   C59   S    
C51   H39   S    
O18   Zn1   S    
C53   H41   S    
C30   O22   D    
C48   H31   S    
C13   C14   A    
C43   H25   S    
C47   H30   S    
N3    Zn2   S    
O12   Zn2   S    
C6    C9    A    
O21   Zn2   S    
C16   O18   A    
C4    C28   S    
C51   O11   D    
C33   H7    S    
C4    O16   A    
C46   H29   S    
C27   C34   S    
C54   O15   D    
C38   H13   S    
C30   C34   S    
C43   H26   S    
C1    O12   A    
C24   C25   S    
C32   H5    S    
C18   C41   S    
O19   Zn2   S    
C5    C7    A    
C2    C59   A    
C12   C23   S    
C19   N5    S    
C58   C59   A    
N1    N2    D    
C29   H45   S    
C22   O21   A    
C25   C51   S    
C26   C52   S    
C38   C57   S    
C37   O4    D    
N6    Zn1   S    
C3    C35   S    
C56   H12   S    
C41   H22   S    
C17   C18   A    
C31   H50   S    
C50   O10   D    
C49   H36   S    
C24   C29   S    
C7    C16   S    
C2    C45   A    
C40   H19   S    
C29   H47   S    
C35   O2    D    
C53   O14   D    
C12   C34   S    
C36   H10   S    
C33   H8    S    
N4    N5    D    
C38   H15   S    
C50   H38   S    
C58   N1    S    
C43   H27   S    
C26   C31   S    
C15   N3    A    
C42   H24   S    
C24   C28   S    
C32   H4    S    
C3    C5    A    
C18   N6    A    
C41   H20   S    
C20   N6    A    
C27   C53   S    
C22   O20   A    
C52   H40   S    
C26   C28   S    
C12   C25   S    
C23   C32   S    
C32   H3    S    
O16   Zn1   S    
C8    H1    S    
C29   H34   S    
C11   C13   A    
C2    C37   S    
C1    C45   S    
C47   O9    D    
C35   H9    S    
C44   O7    D    
C17   C19   A    
C40   H18   S    
C49   H37   S    
C46   O8    D    
C13   N4    S    
C10   C11   A    
C40   H17   S    
C34   C55   S    
C20   C21   A    
C48   H33   S    
C27   C28   S    
C14   C15   A    
C57   C58   A    
C37   H11   S    
C10   C49   S    
C20   C46   S    
C42   O6    D    
C14   C43   S    
C38   H14   S    
