data_mof_unit_29784.cif
_audit_creation_date              2012-12-11T15:52:27-0500
_audit_creation_method            fapswitch 2.2
_symmetry_space_group_name_H-M    P1
_symmetry_Int_Tables_number       1
_space_group_crystal_system       triclinic
_cell_length_a                    11.01968
_cell_length_b                    11.018641
_cell_length_c                    18.8859
_cell_angle_alpha                 90.003603
_cell_angle_beta                  89.99907
_cell_angle_gamma                 119.994964
_cell_volume                      1986.03715829

loop_
_atom_site_label
_atom_site_type_symbol
_atom_type_description
_atom_site_fract_x
_atom_site_fract_y
_atom_site_fract_z
_atom_type_partial_charge
C1    C     C_R   0.520240 0.457487 0.147387 0.590214
C2    C     C_3   0.061950 0.755426 0.448427 0.107857
C3    C     C_3   0.692925 0.937425 0.448367 0.107106
C4    C     C_3   0.244253 0.307770 0.448213 0.098876
C5    C     C_R   0.521399 0.455406 0.354667 0.561647
C6    C     C_R   0.544631 0.066043 0.354678 0.574900
C7    C     C_R   0.934003 0.478617 0.354667 0.563450
C8    C     C_R   0.455581 0.518797 0.645972 0.545392
C9    C     C_R   0.063291 0.544456 0.645952 0.547217
C10   C     C_R   0.481139 0.936675 0.645946 0.547273
C11   C     C_R   0.491745 0.959301 0.930994 0.032892
C12   C     C_R   0.542518 0.062751 0.147386 0.593016
C13   C     C_R   0.040661 0.532430 0.930990 0.032934
C14   C     C_R   0.467555 0.508256 0.930995 0.032737
C15   C     C_R   0.003096 0.502187 0.078459 0.038744
C16   C     C_R   0.499099 0.996882 0.078463 0.039228
C17   C     C_R   0.497801 0.500911 0.078464 0.039704
C18   C     C_R   0.409974 0.006910 0.962661 0.021885
C19   C     C_R   0.993035 0.403039 0.962645 0.022055
C20   C     C_R   0.596933 0.590000 0.962656 0.021811
C21   C     C_R   0.970144 0.387806 0.034500 -0.054930
C22   C     C_R   0.417646 0.029810 0.034516 -0.054749
C23   C     C_R   0.937248 0.479757 0.147385 0.589315
C24   C     C_R   0.612167 0.582332 0.034510 -0.054476
C25   C     C_R   0.564761 0.927339 0.049481 0.211831
C26   C     C_R   0.072645 0.637392 0.049488 0.212073
C27   C     C_R   0.362608 0.435282 0.049490 0.212262
C28   C     C_R   0.082492 0.652420 0.974814 0.194962
C29   C     C_R   0.569924 0.917484 0.974807 0.194853
C30   C     C_R   0.347578 0.430112 0.974815 0.195440
C31   C     C_3   0.404216 0.136757 0.947138 -0.273779
C32   C     C_3   0.863184 0.267465 0.947114 -0.273656
C33   C     C_3   0.732499 0.595705 0.947124 -0.273756
C34   C     C_R   0.450852 0.522394 0.855464 0.572923
C35   C     C_3   0.838183 0.250964 0.026347 -0.261579
C36   C     C_3   0.412738 0.161774 0.026371 -0.261476
C37   C     C_3   0.749003 0.587194 0.026356 -0.261551
C38   C     C_R   0.497366 0.975551 0.572413 0.031739
C39   C     C_R   0.024326 0.521819 0.572424 0.028418
C40   C     C_R   0.478272 0.502420 0.572453 0.032750
C41   C     C_R   0.985647 0.492379 0.425830 0.029907
C42   C     C_R   0.506696 0.014419 0.425838 0.036668
C43   C     C_R   0.507808 0.493330 0.425855 0.039745
C44   C     C_R   0.549377 0.911206 0.527229 0.046940
C45   C     C_R   0.071520 0.549136 0.855461 0.572892
C46   C     C_R   0.088461 0.638241 0.527273 0.047152
C47   C     C_R   0.362009 0.450705 0.527243 0.049240
C48   C     C_R   0.069583 0.624077 0.455243 0.078444
C49   C     C_R   0.554117 0.930155 0.455203 0.078877
C50   C     C_R   0.376232 0.446444 0.455192 0.037278
C51   C     C_R   0.446479 0.073152 0.470389 -0.131273
C52   C     C_R   0.927238 0.373395 0.470336 -0.105235
C53   C     C_R   0.626666 0.552843 0.470455 -0.123495
C54   C     C_R   0.947339 0.388185 0.543463 -0.185636
C55   C     C_R   0.441030 0.052856 0.543503 -0.188142
C56   C     C_R   0.477606 0.928466 0.855463 0.572800
C57   C     C_R   0.611865 0.558335 0.543571 -0.186217
C58   C     C_3   0.687967 0.916317 0.527926 0.110478
C59   C     C_3   0.083022 0.771567 0.527989 0.111646
C60   C     C_3   0.228593 0.312061 0.527792 0.151760
Cr1   Cr    Cr6+3 0.769160 0.541570 0.250690 1.067521
Cr2   Cr    Cr6+3 0.458430 0.227590 0.250690 1.053392
Cr3   Cr    Cr6+3 0.772410 0.230840 0.250690 1.062449
Cr4   Cr    Cr6+3 0.541570 0.769160 0.749310 1.070466
Cr5   Cr    Cr6+3 0.227590 0.458430 0.749310 1.069386
Cr6   Cr    Cr6+3 0.230840 0.772410 0.749310 1.070399
H1    H     H_    0.680677 0.817604 0.546131 0.161714
H2    H     H_    0.079133 0.825805 0.969405 0.306332
H3    H     H_    0.746675 0.920902 0.969365 0.306306
H4    H     H_    0.174212 0.253393 0.969394 0.306416
H5    H     H_    0.301903 0.113045 0.924032 0.174826
H6    H     H_    0.886875 0.188846 0.923995 0.174787
H7    H     H_    0.811106 0.698012 0.924013 0.174854
H8    H     H_    0.744281 0.256251 0.042936 0.119119
H9    H     H_    0.511917 0.255692 0.042950 0.119257
H10   H     H_    0.743724 0.487998 0.042935 0.119093
H11   H     H_    0.498005 0.216792 0.917984 0.116523
H12   H     H_    0.181610 0.863100 0.546209 0.162225
H13   H     H_    0.783159 0.281259 0.917968 0.116515
H14   H     H_    0.718714 0.501888 0.917969 0.116536
H15   H     H_    0.847915 0.163183 0.049029 0.177737
H16   H     H_    0.315240 0.152040 0.049065 0.178210
H17   H     H_    0.836773 0.684695 0.049045 0.178043
H18   H     H_    0.412328 0.142239 0.449325 0.146857
H19   H     H_    0.858644 0.270165 0.449201 0.159033
H20   H     H_    0.729717 0.586321 0.449412 0.143088
H21   H     H_    0.900742 0.297070 0.577420 0.183340
H22   H     H_    0.396821 0.099689 0.577508 0.184471
H23   H     H_    0.137317 0.319173 0.546398 0.169912
H24   H     H_    0.702863 0.602162 0.577591 0.183552
H25   H     H_    0.879265 0.032377 0.557829 0.306033
H26   H     H_    0.966519 0.846390 0.557769 0.301479
H27   H     H_    0.153597 0.120553 0.557332 0.303635
H28   H     H_    0.162442 0.939674 0.407730 0.312658
H29   H     H_    0.776257 0.836502 0.407683 0.313583
H30   H     H_    0.162493 0.320211 0.360413 0.350287
H31   H     H_    0.959670 0.740228 0.429775 0.137071
H32   H     H_    0.780177 0.039623 0.429719 0.157651
H33   H     H_    0.257176 0.219183 0.429697 0.141924
H34   H     H_    0.665654 0.826982 0.069029 0.338382
H35   H     H_    0.173081 0.838627 0.069056 0.338442
H36   H     H_    0.161394 0.334513 0.069054 0.338302
O1    O     O_R   0.911480 0.572650 0.170990 -0.459209
O2    O     O_R   0.528970 0.640340 0.824320 -0.478405
O3    O     O_R   0.111370 0.471030 0.824320 -0.478418
O4    O     O_R   0.359660 0.888630 0.824320 -0.478555
O5    O     O_R   0.909980 0.572450 0.331530 -0.517765
O6    O     O_R   0.427550 0.337530 0.331530 -0.548174
O7    O     O_R   0.662470 0.090020 0.331530 -0.517193
O8    O     O_R   0.572450 0.909980 0.668470 -0.477012
O9    O     O_R   0.337530 0.427550 0.668470 -0.480008
O10   O     O_R   0.090020 0.662470 0.668470 -0.476580
O11   O     O_R   0.638950 0.528780 0.324500 -0.489923
O12   O     O_R   0.427350 0.338830 0.170990 -0.464274
O13   O     O_R   0.471220 0.110170 0.324500 -0.493275
O14   O     O_R   0.889830 0.361050 0.324500 -0.500000
O15   O     O_R   0.528780 0.638950 0.675500 -0.519788
O16   O     O_R   0.110170 0.471220 0.675500 -0.521237
O17   O     O_R   0.361050 0.889830 0.675500 -0.520465
O18   O     O_3   0.666667 0.333333 0.250560 -0.301913
O19   O     O_3   0.333333 0.666667 0.749440 -0.292114
O20   O     O_3   0.631117 0.880877 0.095116 -0.675619
O21   O     O_3   0.119125 0.750204 0.095133 -0.675694
O22   O     O_3   0.249811 0.368965 0.095132 -0.680932
O23   O     O_R   0.661170 0.088520 0.170990 -0.459544
O24   O     O_3   0.125194 0.780978 0.944002 -0.684409
O25   O     O_3   0.655779 0.874789 0.943983 -0.684376
O26   O     O_3   0.219031 0.344279 0.943998 -0.684341
O27   O     O_3   0.791091 0.035081 0.563170 -0.728460
O28   O     O_3   0.964175 0.755699 0.563230 -0.731589
O29   O     O_3   0.244499 0.208711 0.562632 -0.734267
O30   O     O_3   0.176543 0.857635 0.410521 -0.695044
O31   O     O_3   0.680238 0.822698 0.410448 -0.695289
O32   O     O_3   0.140873 0.320101 0.411412 -0.729447
O33   O     O_R   0.572650 0.911480 0.829010 -0.461962
O34   O     O_R   0.338830 0.427350 0.829010 -0.461847
O35   O     O_R   0.088520 0.661170 0.829010 -0.461927
O36   O     O_R   0.640340 0.528970 0.175680 -0.505841
O37   O     O_R   0.471030 0.111370 0.175680 -0.505772
O38   O     O_R   0.888630 0.359660 0.175680 -0.510519

loop_
_geom_bond_atom_site_label_1
_geom_bond_atom_site_label_2
_ccdc_geom_bond_type
C44   C49   A    
C40   C47   A    
C59   O28   S    
C46   C59   S    
Cr3   O38   S    
H29   O31   S    
C3    C49   S    
C11   C18   A    
C60   H23   S    
H35   O21   S    
C52   H19   S    
Cr1   O1    S    
C14   C30   A    
Cr2   O12   S    
C54   H21   S    
Cr1   O36   S    
C39   C54   A    
Cr2   O6    S    
C1    O12   A    
C58   O27   S    
Cr4   O19   S    
C9    C39   S    
C60   O29   S    
C36   H16   S    
C55   H22   S    
Cr5   O9    S    
C10   O17   A    
C47   C60   S    
C43   C53   A    
C23   O1    A    
C38   C55   A    
C20   C24   A    
C2    H31   S    
C52   C54   A    
C2    O30   S    
Cr5   O16   S    
C13   C28   A    
C53   H20   S    
Cr5   O19   S    
Cr2   O37   S    
C25   O20   S    
C41   C52   A    
Cr2   O18   S    
C42   C51   A    
C9    O10   A    
C31   H5    S    
C5    C43   S    
Cr4   O33   S    
C27   C30   A    
C9    O16   A    
Cr6   O4    S    
H36   O22   S    
C19   C32   S    
C59   H12   S    
Cr5   O3    S    
C45   O3    A    
C8    O15   A    
C31   H11   S    
C47   C50   A    
C46   C48   A    
C25   C29   A    
C30   O26   S    
Cr6   O19   S    
C17   C24   A    
C57   H24   S    
C13   C19   A    
C17   C27   A    
C32   C35   S    
C12   C16   S    
C23   O38   A    
H34   O20   S    
C32   H6    S    
C8    O9    A    
C44   C58   S    
C53   C57   A    
C2    C59   S    
C15   C26   A    
H30   O32   S    
C12   O23   A    
C2    C48   S    
C33   C37   S    
Cr4   O15   S    
C4    C50   S    
C3    O31   S    
C7    O14   A    
Cr3   O7    S    
H26   O28   S    
C38   C44   A    
C19   C21   A    
C36   H9    S    
C14   C20   A    
Cr4   O8    S    
C34   O34   A    
C35   H8    S    
C4    C60   S    
C45   O35   A    
C24   C37   S    
C12   O37   A    
C33   H14   S    
C56   O4    A    
Cr3   O23   S    
C39   C46   A    
H25   O27   S    
C20   C33   S    
C33   H7    S    
C37   H10   S    
Cr6   O17   S    
C29   O25   S    
H28   O30   S    
Cr1   O11   S    
C6    O7    A    
C7    O5    A    
C26   O21   S    
Cr3   O14   S    
H2    O24   S    
C56   O33   A    
C4    O32   S    
H4    O26   S    
C16   C25   A    
Cr4   O2    S    
C16   C22   A    
C40   C57   A    
C5    O11   A    
C18   C22   A    
C26   C28   A    
C14   C34   S    
H3    O25   S    
C27   O22   S    
C43   C50   A    
C21   C35   S    
C28   O24   S    
C22   C36   S    
C1    C17   S    
C35   H15   S    
C10   C38   S    
Cr2   O13   S    
C32   H13   S    
C13   C45   S    
Cr3   O18   S    
C3    H32   S    
Cr6   O35   S    
C15   C23   S    
C41   C48   A    
C10   O8    A    
C51   C55   A    
C7    C41   S    
Cr1   O5    S    
C34   O2    A    
C6    O13   A    
Cr5   O34   S    
C1    O36   A    
C42   C49   A    
C3    C58   S    
C58   H1    S    
C15   C21   A    
C11   C29   A    
C6    C42   S    
C4    H33   S    
C31   C36   S    
C37   H17   S    
C18   C31   S    
C8    C40   S    
Cr6   O10   S    
H27   O29   S    
C51   H18   S    
C11   C56   S    
Cr1   O18   S    
C5    O6    A    
