data_mof_unit_27481.cif
_audit_creation_date              2012-12-10T16:57:17-0500
_audit_creation_method            fapswitch 2.2
_symmetry_space_group_name_H-M    P1
_symmetry_Int_Tables_number       1
_space_group_crystal_system       triclinic
_cell_length_a                    15.889684
_cell_length_b                    10.901184
_cell_length_c                    9.713093
_cell_angle_alpha                 90.388211
_cell_angle_beta                  89.817487
_cell_angle_gamma                 90.1791
_cell_volume                      1682.4114389

loop_
_atom_site_label
_atom_site_type_symbol
_atom_type_description
_atom_site_fract_x
_atom_site_fract_y
_atom_site_fract_z
_atom_type_partial_charge
C1    C     C_R   0.500962 0.265445 0.499203 0.905141
C2    C     C_3   0.950377 0.402724 0.605082 -0.242720
C3    C     C_3   0.916837 0.495977 0.495970 0.099065
C4    C     C_3   0.952003 0.625694 0.537371 -0.151803
C5    C     C_3   0.049766 0.624819 0.535671 -0.472292
C6    C     C_1   0.824442 0.497949 0.498230 -0.077580
C7    C     C_1   0.175193 0.497450 0.498660 -0.030401
C8    C     C_1   0.250687 0.498732 0.500028 -0.139871
C9    C     C_2   0.517127 0.935060 0.392766 0.342701
C10   C     C_2   0.535453 0.861966 0.500982 -0.243337
C11   C     C_2   0.538639 0.065898 0.400025 -0.017192
C12   C     C_R   0.340297 0.499857 0.500180 0.822577
C13   C     C_2   0.497153 0.133194 0.495069 -0.287398
C14   C     C_2   0.469088 0.410668 0.921309 0.007030
C15   C     C_2   0.458755 0.420752 0.075427 -0.035279
C16   C     C_R   0.506550 0.734495 0.500430 0.820873
C17   C     C_R   0.659622 0.500085 0.499769 0.858358
C18   C     C_3   0.048733 0.402824 0.603495 -0.370269
C19   C     C_3   0.048973 0.463032 0.349562 -0.166711
C20   C     C_3   0.950707 0.455169 0.351010 0.256906
C21   C     C_1   0.749040 0.499227 0.499315 -0.125620
C22   C     C_3   0.082866 0.495712 0.496387 0.121336
Cu1   Cu    Cu3+1 0.500020 0.500020 0.638630 0.964805
Cu2   Cu    Cu3+1 0.499980 0.499980 0.361370 0.989314
H1    H     H_    0.071795 0.428965 0.707832 0.177255
H2    H     H_    0.930198 0.435257 0.708918 0.136983
H3    H     H_    0.453804 0.089234 0.566427 0.118175
H4    H     H_    0.448118 0.326896 0.871264 0.140227
H5    H     H_    0.503873 0.584018 0.891855 0.182699
H6    H     H_    0.413802 0.359390 0.123693 0.141355
H7    H     H_    0.075601 0.310790 0.582058 0.208532
H8    H     H_    0.068317 0.538743 0.279418 0.199244
H9    H     H_    0.932140 0.357072 0.335509 0.095303
H10   H     H_    0.073482 0.651678 0.639396 0.190784
H11   H     H_    0.075424 0.693653 0.462228 0.173267
H12   H     H_    0.931630 0.644857 0.645384 0.169906
N1    N     N_2   0.499090 0.498660 0.846910 -0.258367
N2    N     N_2   0.499070 0.498630 0.153040 -0.248042
O1    O     O_R   0.500010 0.321960 0.617040 -0.583315
O2    O     O_R   0.499990 0.321920 0.382900 -0.561000
O3    O     O_R   0.379450 0.500030 0.617120 -0.578329
O4    O     O_R   0.379420 0.499980 0.382980 -0.569208
O5    O     O_R   0.500010 0.678080 0.617100 -0.615118
O6    O     O_R   0.499990 0.678040 0.382960 -0.563572
O7    O     O_R   0.620580 0.500020 0.617020 -0.560561
O8    O     O_R   0.620550 0.499970 0.382880 -0.573517
C23   C     C_2   0.911695 0.275625 0.588632 0.355860
H13   H     H_    0.844816 0.263628 0.607352 0.116823
O9    O     O_2   0.953320 0.186333 0.554888 -0.529129
C24   C     C_2   0.918367 0.728882 0.450056 0.449793
H14   H     H_    0.939566 0.740187 0.344664 0.123471
O10   O     O_2   0.868082 0.802076 0.498249 -0.516787
O11   O     O_3   0.456152 0.897528 0.298812 -0.592748
C25   C     C_3   0.488835 0.895233 0.163136 0.083439
H15   H     H_    0.465700 0.809716 0.112921 0.160521
H16   H     H_    0.558849 0.890046 0.157922 0.097097
C26   C     C_3   0.455563 0.004478 0.081257 -0.364848
H17   H     H_    0.385658 0.000950 0.079404 0.237941
H18   H     H_    0.474665 0.092000 0.131276 0.212789
C27   C     C_3   0.488711 0.002761 0.933601 -0.899219
H19   H     H_    0.558512 0.008865 0.932913 0.269005
H20   H     H_    0.463177 0.082364 0.876724 0.257898
H21   H     H_    0.468764 0.917158 0.880074 0.246647
C28   C     C_2   0.592341 0.899031 0.616957 0.307522
H22   H     H_    0.593306 0.845156 0.710459 0.100813
O12   O     O_2   0.640951 0.985613 0.608266 -0.500650
C29   C     C_2   0.610312 0.111812 0.314939 0.439155
H23   H     H_    0.632651 0.058125 0.228111 0.043357
O13   O     O_2   0.648173 0.205918 0.344628 -0.526843
C30   C     C_2   0.577284 0.548997 0.107015 0.593625
H24   H     H_    0.593920 0.642142 0.136110 0.001890
O14   O     O_2   0.628853 0.486030 0.045407 -0.577318
C31   C     C_2   0.086655 0.345859 0.292489 0.310560
H25   H     H_    0.074661 0.258896 0.342603 0.119228
O15   O     O_2   0.130426 0.347921 0.189009 -0.536117
O16   O     O_3   0.918438 0.531403 0.245198 -0.636589
C32   C     C_3   0.855532 0.471989 0.165812 0.086312
H26   H     H_    0.815173 0.544260 0.120631 0.192774
H27   H     H_    0.813107 0.413262 0.229059 0.165344
C33   C     C_3   0.895208 0.397376 0.048285 -0.378353
H28   H     H_    0.935480 0.458315 0.984447 0.229774
H29   H     H_    0.935419 0.323799 0.091059 0.231187
C34   C     C_3   0.827784 0.338700 0.957482 -0.825109
H30   H     H_    0.785091 0.280368 0.020098 0.281906
H31   H     H_    0.858193 0.280087 0.878001 0.245506
H32   H     H_    0.790423 0.410628 0.905297 0.273140

loop_
_geom_bond_atom_site_label_1
_geom_bond_atom_site_label_2
_ccdc_geom_bond_type
C4    H12   S    
Cu1   O7    S    
C2    C18   S    
Cu2   O4    S    
C31   H25   S    
C19   C20   S    
C3    C6    S    
N2    C30   S    
C7    C8    T    
C23   O9    D    
O11   C25   S    
C27   H21   S    
C17   O7    A    
C26   H18   S    
Cu1   O5    S    
C20   O16   S    
C27   H20   S    
C12   O4    A    
C1    O2    A    
C5    C22   S    
C23   H13   S    
Cu2   N2    S    
Cu1   Cu2   S    
C30   H24   S    
C9    C10   D    
C16   O6    A    
C31   O15   D    
C18   H1    S    
C33   C34   S    
C19   H8    S    
C11   C29   S    
C32   H27   S    
C25   H16   S    
C29   H23   S    
C19   C31   S    
C19   C22   S    
O16   C32   S    
C33   H29   S    
C4    C5    S    
C26   C27   S    
C32   H26   S    
C6    C21   T    
C17   C21   S    
C4    C24   S    
C27   H19   S    
C29   O13   D    
C28   O12   D    
C15   N2    D    
C12   O3    A    
Cu1   N1    S    
C24   O10   D    
C34   H30   S    
C8    C12   S    
C5    H10   S    
C24   H14   S    
C3    C20   S    
C2    H2    S    
C17   O8    A    
C9    C11   S    
C16   O5    A    
C20   H9    S    
C34   H31   S    
Cu2   O6    S    
C1    C13   S    
C3    C4    S    
C15   H6    S    
C32   C33   S    
C25   H15   S    
C18   C22   S    
C10   C28   S    
C33   H28   S    
C2    C23   S    
C7    C22   S    
Cu1   O3    S    
Cu2   O8    S    
C28   H22   S    
C2    C3    S    
C10   C16   S    
C14   N1    D    
C11   C13   D    
C26   H17   S    
Cu1   O1    S    
C5    H11   S    
Cu2   O2    S    
C1    O1    A    
C34   H32   S    
C9    O11   S    
H5    N1    S    
C14   C15   S    
C13   H3    S    
C30   O14   D    
C18   H7    S    
C14   H4    S    
C25   C26   S    
