data_mof_unit_51661.cif
_audit_creation_date              2012-12-11T15:24:42-0500
_audit_creation_method            fapswitch 2.2
_symmetry_space_group_name_H-M    P1
_symmetry_Int_Tables_number       1
_space_group_crystal_system       triclinic
_cell_length_a                    23.075339
_cell_length_b                    7.062256
_cell_length_c                    20.574701
_cell_angle_alpha                 89.999952
_cell_angle_beta                  93.398006
_cell_angle_gamma                 89.99999
_cell_volume                      3347.0397484

loop_
_atom_site_label
_atom_site_type_symbol
_atom_type_description
_atom_site_fract_x
_atom_site_fract_y
_atom_site_fract_z
_atom_type_partial_charge
O1    O     O_R   0.188030 0.379840 0.189340 -0.523953
O2    O     O_R   0.811970 0.620160 0.810660 -0.519871
O3    O     O_R   0.311970 0.879840 0.310660 -0.523954
O4    O     O_R   0.688030 0.120160 0.689340 -0.519867
O5    O     O_R   0.307090 0.708420 0.185790 -0.543366
O6    O     O_R   0.692910 0.291580 0.814210 -0.548075
O7    O     O_R   0.192910 0.208420 0.314210 -0.543366
O8    O     O_R   0.807090 0.791580 0.685790 -0.548077
C1    C     C_R   0.326298 0.541484 0.170802 0.753928
C2    C     C_R   0.673510 0.458418 0.828940 0.772201
C3    C     C_R   0.173702 0.041484 0.329198 0.753929
C4    C     C_R   0.826489 0.958418 0.671060 0.772199
O9    O     O_R   0.188180 0.709480 0.181650 -0.548029
O10   O     O_R   0.811820 0.290520 0.818350 -0.538660
O11   O     O_R   0.311820 0.209480 0.318350 -0.548029
O12   O     O_R   0.688180 0.790520 0.681650 -0.538662
O13   O     O_R   0.192210 0.880960 0.306500 -0.530779
O14   O     O_R   0.807790 0.119040 0.693500 -0.533785
O15   O     O_R   0.307790 0.380960 0.193500 -0.530779
O16   O     O_R   0.692210 0.619040 0.806500 -0.533787
C5    C     C_R   0.169670 0.540326 0.163415 0.740957
C6    C     C_R   0.831224 0.459456 0.835218 0.776998
C7    C     C_R   0.330330 0.040326 0.336585 0.740956
C8    C     C_R   0.668776 0.959456 0.664782 0.776995
O17   O     O_3   0.251460 0.546730 0.290970 -0.367531
O18   O     O_3   0.748540 0.453270 0.709030 -0.369765
O19   O     O_3   0.248540 0.046730 0.209030 -0.367530
O20   O     O_3   0.751460 0.953270 0.790970 -0.369767
V1    V     V_3+5 0.249730 0.821120 0.242400 1.496597
V2    V     V_3+5 0.750270 0.178880 0.757600 1.531604
V3    V     V_3+5 0.250270 0.321120 0.257600 1.496597
V4    V     V_3+5 0.749730 0.678880 0.742400 1.531600
C9    C     C_R   0.570555 0.860075 0.624261 -0.131094
C10   C     C_R   0.419767 0.168538 0.392332 -0.193635
C11   C     C_R   0.929445 0.360076 0.875739 -0.131097
C12   C     C_R   0.080232 0.668539 0.107667 -0.193635
C13   C     C_R   0.619446 0.971275 0.615355 -0.114845
C14   C     C_R   0.375977 0.032050 0.391158 -0.133686
C15   C     C_R   0.880554 0.471275 0.884645 -0.114840
C16   C     C_R   0.124023 0.532050 0.108842 -0.133687
C17   C     C_R   0.618961 0.098964 0.562347 -0.002831
C18   C     C_R   0.376317 0.893748 0.441309 0.002144
C19   C     C_R   0.881039 0.598964 0.937653 -0.002831
C20   C     C_R   0.123683 0.393749 0.058691 0.002147
C21   C     C_R   0.565141 0.139547 0.527242 0.001921
C22   C     C_R   0.421205 0.896523 0.492824 0.052270
C23   C     C_R   0.934859 0.639548 0.972757 0.001922
C24   C     C_R   0.078796 0.396526 0.007175 0.052273
C25   C     C_R   0.517455 0.014510 0.533207 0.000912
C26   C     C_R   0.467949 0.027347 0.489030 0.025602
C27   C     C_R   0.982545 0.514512 0.966792 0.000911
C28   C     C_R   0.032051 0.527349 0.010969 0.025602
C29   C     C_R   0.519918 0.875010 0.582698 0.090463
C30   C     C_R   0.465666 0.169977 0.440479 0.082554
C31   C     C_R   0.980083 0.375011 0.917301 0.090463
C32   C     C_R   0.034334 0.669979 0.059520 0.082554
C33   C     C_R   0.557317 0.302412 0.486920 -0.118285
C34   C     C_R   0.421091 0.774373 0.548319 -0.113656
C35   C     C_R   0.942683 0.802415 0.013078 -0.118285
C36   C     C_R   0.078910 0.274377 0.951679 -0.113659
C37   C     C_R   0.509120 0.312580 0.441239 -0.074147
C38   C     C_R   0.471084 0.758188 0.591226 -0.060472
C39   C     C_R   0.990880 0.812581 0.058760 -0.074146
C40   C     C_R   0.028917 0.258191 0.908773 -0.060473
H1    H     H_    0.573367 0.758886 0.663726 0.167801
H2    H     H_    0.418854 0.269236 0.352710 0.164719
H3    H     H_    0.926633 0.258886 0.836273 0.167802
H4    H     H_    0.081146 0.769237 0.147289 0.164719
C41   C     C_3   0.046483 0.090085 0.531303 0.309323
C42   C     C_3   0.955447 0.921690 0.470322 0.318640
C43   C     C_3   0.453516 0.590085 0.968697 0.309321
C44   C     C_3   0.544553 0.421692 0.029678 0.318637
C45   C     C_3   0.019981 0.899167 0.552577 -0.195355
C46   C     C_3   0.982047 0.111351 0.449525 -0.166604
C47   C     C_3   0.480020 0.399167 0.947423 -0.195355
C48   C     C_3   0.517953 0.611353 0.050474 -0.166605
C49   C     C_1   0.871998 0.963836 0.625702 -0.171002
C50   C     C_1   0.128655 0.035902 0.375164 -0.173460
C51   C     C_1   0.628002 0.463836 0.874298 -0.171001
C52   C     C_1   0.371344 0.535902 0.124836 -0.173461
C53   C     C_3   0.984906 0.176617 0.521255 0.298527
C54   C     C_3   0.016850 0.834702 0.480634 0.312903
C55   C     C_3   0.515093 0.676617 0.978744 0.298526
C56   C     C_3   0.483150 0.334703 0.019367 0.312902
C57   C     C_3   0.958023 0.985663 0.542515 -0.100788
C58   C     C_3   0.043657 0.023928 0.459288 -0.093178
C59   C     C_3   0.541977 0.485664 0.957485 -0.100785
C60   C     C_3   0.456343 0.523930 0.040711 -0.093175
C61   C     C_1   0.910636 0.967967 0.588052 0.036390
C62   C     C_1   0.090554 0.032966 0.413299 0.099007
C63   C     C_1   0.589364 0.467967 0.911948 0.036393
C64   C     C_1   0.409446 0.532966 0.086701 0.099009
C65   C     C_2   0.674803 0.161228 0.535349 0.425287
H5    H     H_    0.674514 0.224554 0.487330 0.035812
O21   O     O_2   0.721873 0.135850 0.564242 -0.544821
C66   C     C_2   0.332699 0.738866 0.436547 0.479333
H6    H     H_    0.346722 0.592546 0.441329 0.047908
O22   O     O_2   0.280848 0.773938 0.430016 -0.524792
C67   C     C_2   0.825197 0.661227 0.964651 0.425285
H7    H     H_    0.825487 0.724569 0.012666 0.035820
O23   O     O_2   0.778126 0.635827 0.935761 -0.544826
C68   C     C_2   0.167301 0.238865 0.063453 0.479336
H8    H     H_    0.153277 0.092546 0.058669 0.047908
O24   O     O_2   0.219152 0.273935 0.069985 -0.524791
C69   C     C_2   0.593691 0.475527 0.499122 0.329670
H9    H     H_    0.600568 0.576135 0.460589 0.042824
O25   O     O_2   0.614783 0.511221 0.553573 -0.527409
C70   C     C_2   0.366942 0.683583 0.568785 0.378904
H10   H     H_    0.366550 0.534685 0.581709 0.040818
O26   O     O_2   0.323051 0.777573 0.574093 -0.496876
C71   C     C_2   0.906310 0.975531 0.000875 0.329664
H11   H     H_    0.899435 0.076144 0.039407 0.042827
O27   O     O_2   0.885217 0.011219 0.946424 -0.527411
C72   C     C_2   0.133060 0.183595 0.931212 0.378904
H12   H     H_    0.133453 0.034700 0.918283 0.040818
O28   O     O_2   0.176951 0.277591 0.925908 -0.496876
C73   C     C_2   0.504108 0.477115 0.395985 0.313929
H13   H     H_    0.541131 0.520219 0.369420 0.053440
O29   O     O_2   0.459434 0.569549 0.389899 -0.549754
C74   C     C_2   0.470283 0.622397 0.646570 0.379566
H14   H     H_    0.458634 0.475517 0.637441 0.058384
O30   O     O_2   0.479702 0.675842 0.702651 -0.525684
C75   C     C_2   0.995893 0.977116 0.104013 0.313927
H15   H     H_    0.958868 0.020220 0.130579 0.053441
O31   O     O_2   0.040566 0.069551 0.110100 -0.549754
C76   C     C_2   0.029718 0.122400 0.853429 0.379562
H16   H     H_    0.041368 0.975520 0.862558 0.058384
O32   O     O_2   0.020299 0.175846 0.797348 -0.525684
C77   C     C_2   0.044376 0.784687 0.609186 0.446931
H17   H     H_    0.087914 0.727505 0.608500 0.033897
O33   O     O_2   0.016358 0.759265 0.656846 -0.526771
C78   C     C_2   0.958029 0.229557 0.393863 0.448940
H18   H     H_    0.914019 0.283199 0.394297 0.049866
O34   O     O_2   0.987273 0.264609 0.347878 -0.544888
C79   C     C_2   0.455625 0.284685 0.890815 0.446934
H19   H     H_    0.412086 0.227506 0.891499 0.033896
O35   O     O_2   0.483643 0.259258 0.843155 -0.526771
C80   C     C_2   0.541970 0.729561 0.106136 0.448941
H20   H     H_    0.585981 0.783204 0.105702 0.049866
O36   O     O_2   0.512727 0.764612 0.152121 -0.544889
O37   O     O_3   0.096918 0.173815 0.561014 -0.556184
C81   C     C_3   0.085105 0.246739 0.622712 0.091428
H21   H     H_    0.065501 0.138283 0.653846 0.170105
H22   H     H_    0.055527 0.370369 0.617646 0.178608
C82   C     C_3   0.141543 0.313257 0.657189 -0.645922
H23   H     H_    0.161812 0.424552 0.627860 0.216607
H24   H     H_    0.132731 0.372806 0.705582 0.210113
H25   H     H_    0.172077 0.192369 0.664077 0.237467
O38   O     O_3   0.904967 0.842787 0.438965 -0.559578
C83   C     C_3   0.917688 0.765171 0.378284 0.135591
H26   H     H_    0.941021 0.629001 0.385573 0.195145
H27   H     H_    0.944180 0.862465 0.349501 0.131175
C84   C     C_3   0.861172 0.725494 0.338919 -0.735512
H28   H     H_    0.836687 0.859403 0.330213 0.226451
H29   H     H_    0.870576 0.662058 0.291289 0.186378
H30   H     H_    0.834211 0.625030 0.365676 0.227375
O39   O     O_3   0.403082 0.673814 0.938986 -0.556184
C85   C     C_3   0.414894 0.746736 0.877287 0.091428
H31   H     H_    0.434498 0.638279 0.846153 0.170104
H32   H     H_    0.444473 0.870366 0.882353 0.178610
C86   C     C_3   0.358457 0.813256 0.842810 -0.645922
H33   H     H_    0.338189 0.924552 0.872139 0.216607
H34   H     H_    0.367269 0.872803 0.794417 0.210114
H35   H     H_    0.327922 0.692368 0.835922 0.237468
O40   O     O_3   0.595034 0.342791 0.061036 -0.559578
C87   C     C_3   0.582312 0.265175 0.121717 0.135587
H36   H     H_    0.558979 0.129006 0.114428 0.195144
H37   H     H_    0.555820 0.362469 0.150500 0.131176
C88   C     C_3   0.638828 0.225495 0.161081 -0.735509
H38   H     H_    0.663314 0.359403 0.169788 0.226450
H39   H     H_    0.629424 0.162057 0.208711 0.186377
H40   H     H_    0.665789 0.125031 0.134324 0.227375
O41   O     O_3   0.030780 0.653723 0.457037 -0.540250
C89   C     C_3   0.089737 0.609093 0.472369 0.108152
H41   H     H_    0.091752 0.498698 0.510485 0.184661
H42   H     H_    0.117048 0.729618 0.491169 0.111216
C90   C     C_3   0.116376 0.530663 0.412133 -0.599432
H43   H     H_    0.118465 0.642151 0.374475 0.204675
H44   H     H_    0.160917 0.477775 0.424939 0.194033
H45   H     H_    0.089362 0.413428 0.391481 0.246063
O42   O     O_3   0.969706 0.363788 0.538485 -0.537911
C91   C     C_3   0.914722 0.361208 0.564883 0.075225
H46   H     H_    0.919290 0.303515 0.615115 0.150225
H47   H     H_    0.881954 0.285432 0.532386 0.143006
C92   C     C_3   0.891813 0.555248 0.573728 -0.657157
H48   H     H_    0.889654 0.630214 0.526765 0.271712
H49   H     H_    0.847487 0.547827 0.591902 0.186789
H50   H     H_    0.921036 0.624236 0.610946 0.256625
O43   O     O_3   0.469220 0.153725 0.042965 -0.540252
C93   C     C_3   0.410264 0.109093 0.027630 0.108152
H51   H     H_    0.408250 0.998698 0.989514 0.184661
H52   H     H_    0.382952 0.229616 0.008830 0.111216
C94   C     C_3   0.383623 0.030659 0.087865 -0.599432
H53   H     H_    0.381531 0.142149 0.125522 0.204676
H54   H     H_    0.339084 0.977764 0.075057 0.194032
H55   H     H_    0.410638 0.913431 0.108519 0.246064
O44   O     O_3   0.530294 0.863788 0.961514 -0.537912
C95   C     C_3   0.585279 0.861208 0.935118 0.075227
H56   H     H_    0.580713 0.803516 0.884886 0.150225
H57   H     H_    0.618046 0.785431 0.967616 0.143005
C96   C     C_3   0.608188 0.055248 0.926274 -0.657157
H58   H     H_    0.610344 0.130214 0.973238 0.271713
H59   H     H_    0.652515 0.047827 0.908104 0.186788
H60   H     H_    0.578967 0.124235 0.889055 0.256624

loop_
_geom_bond_atom_site_label_1
_geom_bond_atom_site_label_2
_ccdc_geom_bond_type
C34   C38   A    
C33   C69   S    
O1    C5    A    
C65   H5    S    
C59   C63   S    
O19   V1    S    
C9    C29   A    
O13   V1    S    
C88   H38   S    
C45   C54   S    
C36   C72   S    
C71   H11   S    
C53   O42   S    
C44   C48   S    
O4    V2    S    
O15   V3    S    
C10   H2    S    
C86   H33   S    
C9    H1    S    
C79   H19   S    
C68   H8    S    
O41   C89   S    
C50   C62   T    
O7    C3    A    
C94   H53   S    
C69   O25   D    
C21   C33   A    
O5    C1    A    
O40   C87   S    
C18   C66   S    
O9    V1    S    
C19   C67   S    
C14   C18   A    
C46   C78   S    
C73   O29   D    
C18   C22   A    
O4    C8    A    
C47   C79   S    
C47   C56   S    
C92   H49   S    
C41   O37   S    
O1    V3    S    
C70   H10   S    
O2    V4    S    
C96   H58   S    
C33   C37   A    
O3    V1    S    
C91   H46   S    
C12   C16   A    
C85   C86   S    
C82   H24   S    
C89   H41   S    
O3    C7    A    
C85   H32   S    
O39   C85   S    
C17   C65   S    
C60   C64   S    
C2    O16   A    
C78   H18   S    
C94   H54   S    
C83   C84   S    
C66   O22   D    
C42   C46   S    
C76   O32   D    
C41   C45   S    
C95   H56   S    
O14   V2    S    
C21   C25   A    
C55   O44   S    
C48   C60   S    
C16   C20   A    
C38   C74   S    
C93   C94   S    
C75   H15   S    
C94   H55   S    
O11   C7    A    
O12   C8    A    
C22   C34   A    
C87   H37   S    
C96   H59   S    
C81   C82   S    
O43   C93   S    
C42   O38   S    
O10   V2    S    
C48   C55   S    
C86   H35   S    
C86   H34   S    
C1    O15   A    
C24   C36   A    
O5    V1    S    
O17   V1    S    
C43   O39   S    
C45   C77   S    
O7    V3    S    
C73   H13   S    
C37   C73   S    
C27   C28   A    
O8    V4    S    
O20   V4    S    
C41   C53   S    
C58   C62   S    
C4    C49   S    
C57   C61   S    
O18   V4    S    
C92   H50   S    
C23   C27   A    
C27   C31   A    
C90   H44   S    
O42   C91   S    
C11   C31   A    
C9    C13   A    
C1    C52   S    
C52   C64   T    
C11   C15   A    
C93   H51   S    
O2    C6    A    
C12   C32   A    
C3    C50   S    
C29   C38   A    
C39   C75   S    
C67   H7    S    
C54   O41   S    
C11   H3    S    
O8    C4    A    
C90   H45   S    
C49   C61   T    
C31   C40   A    
C95   C96   S    
C8    C13   S    
C32   C39   A    
O9    C5    A    
C56   O43   S    
C71   O27   D    
C26   C30   A    
C46   C58   S    
C84   H30   S    
O11   V3    S    
C44   C59   S    
C89   C90   S    
C45   C57   S    
C44   C56   S    
C80   O36   D    
C78   O34   D    
O18   V2    S    
C47   C59   S    
O6    V2    S    
C90   H43   S    
C40   C76   S    
O19   V3    S    
C85   H31   S    
C88   H40   S    
C81   H22   S    
C84   H29   S    
C46   C53   S    
C82   H23   S    
C82   H25   S    
C66   H6    S    
C74   O30   D    
C77   H17   S    
O16   V4    S    
C79   O35   D    
C3    O13   A    
C93   H52   S    
C91   H47   S    
C67   O23   D    
C10   C14   A    
C51   C63   T    
O17   V3    S    
C56   C60   S    
C95   H57   S    
C55   C59   S    
O6    C2    A    
C72   O28   D    
C2    C51   S    
C12   H4    S    
C72   H12   S    
C30   C37   A    
C48   C80   S    
O12   V4    S    
C7    C14   S    
C69   H9    S    
C22   C26   A    
C35   C39   A    
C83   H26   S    
C44   O40   S    
C68   O24   D    
C36   C40   A    
O10   C6    A    
O20   V2    S    
C54   C58   S    
O37   C81   S    
C43   C47   S    
C10   C30   A    
C92   H48   S    
C87   H36   S    
C5    C16   S    
C83   H27   S    
C76   H16   S    
C25   C29   A    
C6    C15   S    
C96   H60   S    
C70   O26   D    
C34   C70   S    
C13   C17   A    
O44   C95   S    
C42   C54   S    
C89   H42   S    
C75   O31   D    
C80   H20   S    
C23   C35   A    
C43   C60   S    
C28   C32   A    
C24   C28   A    
C15   C19   A    
C87   C88   S    
C65   O21   D    
C25   C26   A    
C4    O14   A    
C35   C71   S    
C81   H21   S    
C17   C21   A    
C74   H14   S    
C43   C55   S    
C84   H28   S    
O38   C83   S    
C42   C57   S    
C19   C23   A    
C91   C92   S    
C53   C57   S    
C41   C58   S    
C20   C24   A    
C77   O33   D    
C88   H39   S    
C20   C68   S    
