data_mof_unit_32145.cif
_audit_creation_date              2012-12-11T17:06:32-0500
_audit_creation_method            fapswitch 2.2
_symmetry_space_group_name_H-M    P1
_symmetry_Int_Tables_number       1
_space_group_crystal_system       triclinic
_cell_length_a                    6.963848
_cell_length_b                    14.706674
_cell_length_c                    15.82511
_cell_angle_alpha                 90.43491
_cell_angle_beta                  90.318297
_cell_angle_gamma                 89.646881
_cell_volume                      1620.62724898

loop_
_atom_site_label
_atom_site_type_symbol
_atom_type_description
_atom_site_fract_x
_atom_site_fract_y
_atom_site_fract_z
_atom_type_partial_charge
O1    O     O_R   0.494400 0.415450 0.412630 -0.547736
O2    O     O_R   0.823940 0.405730 0.586760 -0.496412
O3    O     O_R   0.994240 0.584550 0.587370 -0.535899
C1    C     C_R   0.655505 0.381107 0.613245 0.736575
O4    O     O_R   0.824110 0.404430 0.413240 -0.529523
O5    O     O_R   0.994420 0.583240 0.412620 -0.549082
C2    C     C_R   0.655082 0.382663 0.384124 0.714824
O6    O     O_R   0.494230 0.416760 0.587380 -0.564344
O7    O     O_3   0.660800 0.558670 0.500000 -0.378916
V1    V     V_3+5 0.935650 0.489120 0.500000 1.473684
O8    O     O_R   0.324140 0.594270 0.413240 -0.535112
C3    C     C_R   0.154562 0.615447 0.383809 0.730435
O9    O     O_R   0.323960 0.595570 0.586760 -0.548625
C4    C     C_R   0.155113 0.615641 0.617280 0.709231
V2    V     V_3+5 0.435660 0.510880 0.500000 1.398301
O10   O     O_3   0.160640 0.441330 0.500000 -0.367656
C5    C     C_3   0.998481 0.684897 0.762514 -0.190778
C6    C     C_3   0.165668 0.710841 0.822453 0.473328
C7    C     C_3   0.125324 0.811902 0.808282 -0.132678
C8    C     C_3   0.959564 0.787556 0.747243 -0.247698
C9    C     C_3   0.102522 0.786809 0.671953 -0.210191
C10   C     C_3   0.267216 0.809772 0.734160 0.473605
C11   C     C_3   0.311579 0.708586 0.749318 -0.243918
C12   C     C_3   0.143540 0.684845 0.687968 -0.118275
C13   C     C_R   0.271579 0.814077 0.240470 0.002356
C14   C     C_R   0.119570 0.814159 0.182192 -0.126997
C15   C     C_R   0.968647 0.752700 0.196356 -0.088217
C16   C     C_R   0.978310 0.689412 0.262796 -0.164604
C17   C     C_R   0.140438 0.684687 0.316339 -0.067289
C18   C     C_R   0.283394 0.749815 0.304839 0.003231
C19   C     C_3   0.494853 0.737082 0.295236 -0.442856
C20   C     C_3   0.484168 0.807742 0.225394 0.356960
C21   C     C_R   0.502030 0.245173 0.681446 -0.176315
C22   C     C_R   0.649519 0.309926 0.679530 -0.268438
C23   C     C_R   0.788054 0.308259 0.745443 0.438987
C24   C     C_R   0.771501 0.247427 0.813759 0.447402
C25   C     C_R   0.618000 0.184991 0.816273 -0.270720
C26   C     C_R   0.483011 0.186576 0.750237 -0.152643
C27   C     C_3   0.271150 0.209678 0.755622 0.365033
C28   C     C_3   0.290433 0.264103 0.674609 0.356275
C29   C     C_R   0.530369 0.324251 0.244911 -0.111617
C30   C     C_R   0.643676 0.312173 0.317141 -0.235009
C31   C     C_R   0.751698 0.229461 0.320333 0.438094
C32   C     C_R   0.744384 0.166230 0.251729 -0.257677
C33   C     C_R   0.622812 0.180560 0.181106 -0.117830
C34   C     C_R   0.517301 0.260891 0.181372 -0.050672
C35   C     C_3   0.407777 0.320364 0.121998 -0.472408
C36   C     C_3   0.417303 0.393428 0.193099 0.915465
H1    H     H_    0.262147 0.294080 0.107235 0.157550
O11   O     O_R   0.771650 0.079500 0.908680 -0.510446
O12   O     O_R   0.441690 0.091800 0.082800 -0.543832
O13   O     O_R   0.271460 0.912980 0.083410 -0.539395
C37   C     C_R   0.610962 0.114051 0.111294 0.720084
O14   O     O_R   0.441930 0.090510 0.909280 -0.549664
O15   O     O_R   0.271690 0.911670 0.908660 -0.528882
C38   C     C_R   0.609824 0.113853 0.881861 0.758871
O16   O     O_R   0.771410 0.080810 0.083440 -0.545265
O17   O     O_3   0.605100 0.937580 0.996050 -0.369281
V3    V     V_3+5 0.330220 0.007110 0.996030 1.494751
O18   O     O_R   0.941980 0.900620 0.909250 -0.543332
C39   C     C_R   0.111286 0.880763 0.878832 0.736833
O19   O     O_R   0.941740 0.901920 0.082770 -0.532870
C40   C     C_R   0.111131 0.879869 0.111513 0.709882
V4    V     V_3+5 0.830220 0.985300 0.996000 1.513331
O20   O     O_3   0.105210 0.054870 0.996020 -0.366392
O21   O     O_3   0.204356 0.680193 0.905157 -0.555775
C41   C     C_3   0.210313 0.584719 0.906509 -0.254807
H2    H     H_    0.292857 0.554941 0.852817 0.113832
H3    H     H_    0.062080 0.557992 0.908176 0.135692
H4    H     H_    0.283069 0.563056 0.965629 0.187064
H5    H     H_    0.576348 0.758970 0.352352 0.178907
H6    H     H_    0.516140 0.778644 0.161952 0.082558
O22   O     O_3   0.597072 0.886590 0.242395 -0.541805
C42   C     C_3   0.514651 0.947516 0.301757 -0.218916
H7    H     H_    0.467879 0.912834 0.360213 0.123826
H8    H     H_    0.393177 0.985548 0.272589 0.135644
H9    H     H_    0.624943 0.997450 0.321137 0.145273
O23   O     O_3   0.944804 0.364681 0.742882 -0.550626
C43   C     C_3   0.896427 0.449306 0.778659 -0.285927
H10   H     H_    0.874709 0.443768 0.847679 0.139415
H11   H     H_    0.767569 0.480599 0.748565 0.108609
H12   H     H_    0.019332 0.494885 0.767927 0.150157
O24   O     O_3   0.908157 0.250827 0.877671 -0.529942
C44   C     C_3   0.828001 0.291379 0.950836 -0.251676
H13   H     H_    0.719465 0.345347 0.936977 0.084772
H14   H     H_    0.945276 0.323368 0.988078 0.157372
H15   H     H_    0.762013 0.239084 0.991169 0.133550
H16   H     H_    0.242121 0.254315 0.811151 0.098674
O25   O     O_3   0.131913 0.139093 0.749363 -0.526389
C45   C     C_3   0.207306 0.054776 0.722469 -0.055783
H17   H     H_    0.305050 0.027031 0.771337 0.162572
H18   H     H_    0.281726 0.059983 0.660792 0.148766
H19   H     H_    0.086899 0.006433 0.714206 0.116810
H20   H     H_    0.254516 0.337272 0.681623 0.104151
O26   O     O_3   0.188514 0.221225 0.607057 -0.524426
C46   C     C_3   0.293896 0.217931 0.531355 -0.200394
H21   H     H_    0.406492 0.164444 0.535325 0.107664
H22   H     H_    0.355568 0.284585 0.515206 0.154972
H23   H     H_    0.196684 0.198490 0.478844 0.180686
O27   O     O_3   0.877256 0.212078 0.386200 -0.565204
C47   C     C_3   0.772878 0.176310 0.454199 -0.238355
H24   H     H_    0.672040 0.121653 0.433933 0.099165
H25   H     H_    0.695274 0.231578 0.487896 0.125638
H26   H     H_    0.874842 0.145485 0.499915 0.189665
H27   H     H_    0.881038 0.636641 0.775141 0.109960
H28   H     H_    0.833513 0.105690 0.254249 0.144697
H29   H     H_    0.493123 0.337390 0.065266 0.142090
O28   O     O_3   0.233099 0.418791 0.224314 -0.565256
C48   C     C_3   0.140950 0.350658 0.271228 -0.244906
H30   H     H_    0.204091 0.345073 0.335459 0.179889
H31   H     H_    0.139966 0.283360 0.239065 0.131773
H32   H     H_    0.990545 0.371588 0.278093 0.168192
O29   O     O_3   0.513042 0.473393 0.165270 -0.554467
C49   C     C_3   0.715465 0.468939 0.168368 -0.304634
H33   H     H_    0.773235 0.405581 0.139062 0.141400
H34   H     H_    0.765954 0.477268 0.234479 0.141116
H35   H     H_    0.773248 0.526787 0.132046 0.178575
H36   H     H_    0.816049 0.820541 0.747753 0.176811
H37   H     H_    0.075066 0.818014 0.609363 0.106406
O30   O     O_3   0.411931 0.875267 0.723669 -0.571174
C50   C     C_3   0.493258 0.865767 0.642727 -0.331852
H38   H     H_    0.388956 0.886151 0.592854 0.136092
H39   H     H_    0.546991 0.795370 0.630996 0.158070
H40   H     H_    0.617741 0.912191 0.638499 0.164717
H41   H     H_    0.456070 0.676235 0.750486 0.116346
H42   H     H_    0.847246 0.750558 0.153585 0.129345
H43   H     H_    0.863523 0.640936 0.269493 0.120495
H44   H     H_    0.531172 0.667802 0.271490 0.165310

loop_
_geom_bond_atom_site_label_1
_geom_bond_atom_site_label_2
_ccdc_geom_bond_type
C47   H24   S    
O15   V3    S    
C3    C17   S    
O11   V4    S    
C29   C30   A    
O26   C46   S    
C44   H15   S    
C1    O6    A    
C8    H36   S    
C49   H33   S    
C35   H1    S    
C36   O28   S    
C33   C34   A    
C32   C33   A    
C10   O30   S    
C14   C15   A    
O19   C40   A    
C42   H8    S    
C45   H19   S    
C27   H16   S    
C16   C17   A    
C44   H14   S    
C6    C7    S    
C48   H31   S    
O5    C3    A    
C26   C27   S    
C15   H42   S    
C24   O24   S    
V2    O10   S    
C46   H23   S    
C5    C8    S    
O28   C48   S    
C22   C23   A    
O22   C42   S    
C2    C30   S    
C4    C12   S    
C50   H40   S    
O19   V4    S    
C25   C38   S    
O8    V2    S    
C7    C8    S    
C42   H9    S    
C46   H22   S    
C11   C12   S    
O1    V2    S    
C17   C18   A    
O7    V1    S    
C16   H43   S    
C11   H41   S    
C13   C20   S    
C19   H5    S    
O21   C41   S    
C33   C37   S    
C47   H25   S    
O9    C4    A    
C19   H44   S    
C6    O21   S    
C21   C22   A    
O14   C38   A    
O14   V3    S    
O17   V4    S    
C1    C22   S    
C21   C28   S    
C42   H7    S    
C41   H2    S    
C5    C12   S    
C35   C36   S    
C7    C10   S    
C31   O27   S    
C20   H6    S    
C48   H32   S    
C20   O22   S    
O4    C2    A    
C37   O16   A    
O23   C43   S    
O17   V3    S    
O11   C38   A    
C6    C11   S    
O18   C39   A    
C41   H3    S    
C23   C24   A    
O2    C1    A    
C14   C40   S    
C25   C26   A    
O13   V3    S    
C5    H27   S    
C45   H18   S    
O24   C44   S    
C29   C34   A    
C46   H21   S    
C5    C6    S    
C44   H13   S    
C50   H38   S    
O3    C4    A    
O6    V2    S    
C35   H29   S    
O9    V2    S    
C31   C32   A    
O12   V3    S    
C30   C31   A    
C28   O26   S    
O2    V1    S    
C27   C28   S    
O30   C50   S    
O16   V4    S    
C43   H11   S    
O29   C49   S    
C13   C18   A    
C34   C35   S    
C24   C25   A    
O1    C2    A    
C19   C20   S    
C28   H20   S    
O13   C40   A    
O5    V1    S    
C43   H12   S    
C49   H34   S    
O8    C3    A    
C32   H28   S    
C47   H26   S    
C23   O23   S    
C21   C26   A    
O18   V4    S    
C41   H4    S    
V4    O20   S    
C13   C14   A    
O4    V1    S    
C9    H37   S    
O3    V1    S    
V1    O10   S    
C48   H30   S    
V3    O20   S    
C45   H17   S    
C18   C19   S    
C7    C39   S    
O15   C39   A    
O27   C47   S    
C29   C36   S    
O7    V2    S    
C50   H39   S    
C49   H35   S    
C43   H10   S    
C8    C9    S    
C9    C12   S    
C15   C16   A    
C10   C11   S    
O12   C37   A    
O25   C45   S    
C9    C10   S    
C27   O25   S    
C36   O29   S    
