data_mof_unit_13526.cif
_audit_creation_date              2012-10-26T21:13:36-0400
_audit_creation_method            fapswitch 2.2
_symmetry_space_group_name_H-M    P1
_symmetry_Int_Tables_number       1
_space_group_crystal_system       triclinic
_cell_length_a                    9.061719
_cell_length_b                    10.794799
_cell_length_c                    9.588781
_cell_angle_alpha                 89.921431
_cell_angle_beta                  89.975464
_cell_angle_gamma                 89.821788
_cell_volume                      937.963638294

loop_
_atom_site_label
_atom_site_type_symbol
_atom_type_description
_atom_site_fract_x
_atom_site_fract_y
_atom_site_fract_z
_atom_type_partial_charge
C1    C     C_R   0.493565 0.262686 0.500188 0.557693
C2    C     C_R   0.603843 0.435873 0.926344 0.080698
C3    C     C_3   0.768330 0.453353 0.921977 0.629702
C4    C     C_R   0.220823 0.499981 0.499988 0.530418
C5    C     C_3   0.767518 0.452364 0.080427 0.578950
C6    C     C_R   0.493628 0.737381 0.500072 0.521890
C7    C     C_R   0.779152 0.499848 0.500005 0.593283
C8    C     C_1   0.065589 0.499887 0.499988 0.055576
C9    C     C_1   0.934367 0.499833 0.499976 0.090884
C10   C     C_R   0.530826 0.063299 0.614771 -0.005213
C11   C     C_R   0.473237 0.129794 0.502775 -0.057321
C12   C     C_R   0.389241 0.935334 0.400920 0.299690
C13   C     C_R   0.389390 0.065576 0.400700 0.293920
C14   C     C_R   0.473368 0.870432 0.502709 -0.079943
C15   C     C_R   0.531097 0.936286 0.614622 -0.051625
C16   C     C_3   0.678792 0.928131 0.683313 0.352889
C17   C     C_3   0.678562 0.068942 0.683622 0.785369
C18   C     C_R   0.603762 0.435744 0.073796 0.106622
C19   C     C_R   0.392629 0.560874 0.073957 0.533123
C20   C     C_R   0.392863 0.561148 0.925707 0.536887
Cu1   Cu    Cu3+1 0.499990 0.499980 0.640670 1.182202
Cu2   Cu    Cu3+1 0.500010 0.500020 0.359330 1.163091
F1    F     F_    0.810786 0.563840 0.139468 -0.583404
F2    F     F_    0.668197 0.877951 0.815877 -0.533013
F3    F     F_    0.672058 0.120678 0.815515 -0.467421
F4    F     F_    0.786825 0.120214 0.599690 -0.589598
F5    F     F_    0.286101 0.624880 0.142122 -0.534326
F6    F     F_    0.287407 0.626332 0.857135 -0.516374
F7    F     F_    0.840732 0.353151 0.862976 -0.494185
H1    H     H_    0.765365 0.884771 0.617015 0.118400
H2    H     H_    0.275436 0.207365 0.337142 0.328527
H3    H     H_    0.748195 0.633638 0.897384 0.355753
H4    H     H_    0.945373 0.367379 0.135731 0.374459
H5    H     H_    0.273020 0.795168 0.340154 0.361017
N1    N     N_R   0.500920 0.500930 0.147930 -0.287102
N2    N     N_R   0.500930 0.500890 0.852020 -0.320268
O1    O     O_R   0.500000 0.319640 0.618810 -0.462078
O2    O     O_3   0.815502 0.566893 0.864786 -0.569679
O3    O     O_3   0.838196 0.349121 0.139144 -0.583680
O4    O     O_3   0.304801 0.875982 0.301820 -0.523692
O5    O     O_R   0.500020 0.319680 0.381230 -0.490910
O6    O     O_R   0.288380 0.499980 0.618770 -0.441378
O7    O     O_R   0.288400 0.500020 0.381190 -0.479268
O8    O     O_R   0.499980 0.680320 0.618770 -0.449910
O9    O     O_R   0.500000 0.680360 0.381190 -0.458728
O10   O     O_R   0.711600 0.499980 0.618810 -0.450395
O11   O     O_R   0.711620 0.500020 0.381230 -0.437947
O12   O     O_3   0.305777 0.125415 0.300688 -0.563586

loop_
_geom_bond_atom_site_label_1
_geom_bond_atom_site_label_2
_ccdc_geom_bond_type
C12   O4    S    
C13   O12   S    
C4    O7    A    
H3    O2    S    
C2    C18   A    
Cu1   O8    S    
C19   F5    S    
C18   N1    A    
Cu2   O7    S    
C5    F1    S    
C1    O1    A    
C4    C8    S    
C17   F3    S    
C19   C20   A    
C2    C3    S    
C16   F2    S    
Cu1   N2    S    
C6    O8    A    
Cu1   Cu2   S    
Cu2   N1    S    
C11   C13   A    
H4    O3    S    
C4    O6    A    
H5    O4    S    
C17   F4    S    
C1    O5    A    
C6    O9    A    
C12   C14   A    
Cu2   O11   S    
H2    O12   S    
C5    O3    S    
Cu2   O5    S    
C6    C14   S    
C10   C11   A    
C10   C17   S    
C16   H1    S    
Cu1   O6    S    
C20   N2    A    
C7    O10   A    
Cu2   O9    S    
Cu1   O1    S    
C12   C13   A    
C3    F7    S    
Cu1   O10   S    
C2    N2    A    
C7    C9    S    
C14   C15   A    
C8    C9    T    
C19   N1    A    
C5    C18   S    
C20   F6    S    
C10   C15   A    
C15   C16   S    
C3    O2    S    
C7    O11   A    
C16   C17   S    
C3    C5    S    
C1    C11   S    
