data_mof_unit_34689.cif
_audit_creation_date              2012-12-11T14:08:29-0500
_audit_creation_method            fapswitch 2.2
_symmetry_space_group_name_H-M    P1
_symmetry_Int_Tables_number       1
_space_group_crystal_system       triclinic
_cell_length_a                    10.963522
_cell_length_b                    10.962302
_cell_length_c                    18.73961
_cell_angle_alpha                 89.306495
_cell_angle_beta                  89.379101
_cell_angle_gamma                 59.931687
_cell_volume                      1948.97043431

loop_
_atom_site_label
_atom_site_type_symbol
_atom_type_description
_atom_site_fract_x
_atom_site_fract_y
_atom_site_fract_z
_atom_type_partial_charge
C1    C     C_R   0.237141 0.644865 0.608912 0.547680
C2    C     C_2   0.786102 0.142204 0.704937 -0.180018
C3    C     C_2   0.182913 0.661133 0.681581 -0.131850
C4    C     C_R   0.651694 0.619100 0.602541 0.585817
C5    C     C_2   0.191939 0.665951 0.838793 -0.114366
C6    C     C_2   0.195782 0.560875 0.801025 -0.180006
C7    C     C_2   0.225516 0.547475 0.724165 -0.182113
C8    C     C_2   0.672951 0.688349 0.332921 -0.110208
C9    C     C_2   0.705750 0.709151 0.179172 -0.092324
C10   C     C_2   0.813675 0.654146 0.224999 -0.167620
C11   C     C_2   0.796898 0.620347 0.298838 -0.156634
C12   C     C_3   0.690855 0.537476 0.802461 0.178901
C13   C     C_2   0.667290 0.144828 0.332341 -0.123109
C14   C     C_2   0.647936 0.150381 0.178147 -0.047226
C15   C     C_2   0.571086 0.113646 0.221005 0.061361
C16   C     C_R   0.628245 0.226836 0.601725 0.547095
C17   C     C_2   0.573010 0.124637 0.297714 -0.155132
C18   C     C_2   0.182662 0.667174 0.328189 -0.089397
C19   C     C_2   0.191965 0.636288 0.170389 0.098993
C20   C     C_2   0.233750 0.710649 0.208660 -0.152221
C21   C     C_2   0.272413 0.676140 0.282149 -0.146994
C22   C     C_R   0.703799 0.101282 0.897193 0.543466
C23   C     C_3   0.700526 0.675179 0.811933 0.114595
C24   C     C_R   0.725553 0.690162 0.887570 0.609436
C25   C     C_R   0.118335 0.707198 0.907232 0.552766
C26   C     C_R   0.675373 0.103674 0.105246 0.571035
C27   C     C_R   0.733823 0.718425 0.104495 0.577205
C28   C     C_R   0.222059 0.650275 0.401530 0.550518
C29   C     C_R   0.099992 0.704283 0.110488 0.585079
C30   C     C_R   0.645294 0.627615 0.395991 0.556888
C31   C     C_R   0.620934 0.223344 0.397609 0.559608
C32   C     C_3   0.562270 0.808448 0.782446 -0.043520
C33   C     C_3   0.538414 0.781279 0.705163 -0.187081
C34   C     C_3   0.667981 0.643973 0.677392 0.045504
C35   C     C_3   0.828529 0.661430 0.767328 -0.226658
C36   C     C_3   0.807075 0.646754 0.687387 -0.034028
C37   C     C_3   0.674517 0.519373 0.721589 -0.237235
C38   C     C_2   0.675582 0.152093 0.669753 -0.125967
C39   C     C_2   0.692313 0.160127 0.825875 -0.138530
C40   C     C_2   0.804179 0.106884 0.781472 -0.192357
Cr1   Cr    Cr6+3 0.393010 0.398050 0.501480 1.021188
Cr2   Cr    Cr6+3 0.398820 0.707980 0.501630 1.018290
Cr3   Cr    Cr6+3 0.708140 0.393940 0.496850 1.020401
Cr4   Cr    Cr6+3 0.937950 0.938450 0.008940 1.024351
Cr5   Cr    Cr6+3 0.626180 0.937030 0.994750 1.035497
Cr6   Cr    Cr6+3 0.937790 0.625760 0.001410 1.043795
H1    H     H_    0.763626 0.417917 0.702348 0.127244
H2    H     H_    0.470276 0.824578 0.815397 0.141153
H3    H     H_    0.123390 0.766991 0.703017 0.101893
H4    H     H_    0.920114 0.618032 0.205838 0.149413
H5    H     H_    0.886476 0.529749 0.323190 0.153796
H6    H     H_    0.598963 0.739698 0.195345 0.099238
H7    H     H_    0.585988 0.784610 0.311181 0.090170
H8    H     H_    0.481834 0.131731 0.325232 0.157554
H9    H     H_    0.710348 0.193215 0.199007 0.068541
H10   H     H_    0.764582 0.128102 0.307946 0.100505
H11   H     H_    0.217607 0.812114 0.190388 0.146254
H12   H     H_    0.928531 0.568435 0.784835 0.119162
H13   H     H_    0.366793 0.675371 0.300228 0.149724
H14   H     H_    0.084506 0.673991 0.312073 0.083148
H15   H     H_    0.517181 0.872101 0.669766 0.174680
H16   H     H_    0.846740 0.750934 0.776335 0.118038
H17   H     H_    0.578226 0.512207 0.711745 0.111037
H18   H     H_    0.652766 0.930482 0.810420 0.263584
H19   H     H_    0.475612 0.019408 0.807710 0.246351
H20   H     H_    0.909890 0.036938 0.801236 0.152645
H21   H     H_    0.373216 0.149981 0.205880 0.232956
H22   H     H_    0.494654 0.979544 0.218930 0.211198
H23   H     H_    0.896871 0.544229 0.669051 0.154376
H24   H     H_    0.442138 0.771454 0.703210 0.104255
H25   H     H_    0.186359 0.486939 0.235428 0.220986
H26   H     H_    0.342331 0.434025 0.192957 0.245595
H27   H     H_    0.739677 0.857328 0.666553 0.259054
H28   H     H_    0.908708 0.745948 0.645289 0.233388
H29   H     H_    0.904635 0.381688 0.794513 0.197904
H30   H     H_    0.804613 0.327679 0.835956 0.246102
H31   H     H_    0.569544 0.454819 0.842046 0.232183
H32   H     H_    0.474978 0.622561 0.818259 0.199564
H33   H     H_    0.860762 0.165631 0.678585 0.147065
H34   H     H_    0.587053 0.230408 0.805589 0.109081
H35   H     H_    0.606351 0.121086 0.695985 0.135363
H36   H     H_    0.170954 0.485885 0.825895 0.152325
H37   H     H_    0.283032 0.441670 0.702528 0.157945
H38   H     H_    0.223470 0.736393 0.814401 0.096334
N1    N     N_3   0.566573 0.940472 0.782907 -0.668339
N2    N     N_3   0.475962 0.071940 0.192889 -0.567794
N3    N     N_3   0.232755 0.492241 0.187497 -0.620609
N4    N     N_3   0.807585 0.759130 0.644168 -0.634263
N5    N     N_3   0.819979 0.413493 0.829955 -0.566432
N6    N     N_3   0.568871 0.550383 0.843096 -0.594729
O1    O     O_R   0.507110 0.256280 0.580300 -0.519343
O2    O     O_R   0.837080 0.593860 0.915300 -0.481240
O3    O     O_R   0.064770 0.636080 0.932550 -0.506157
O4    O     O_R   0.280830 0.527190 0.577940 -0.496604
O5    O     O_R   0.068250 0.829200 0.092940 -0.532125
O6    O     O_R   0.799650 0.057040 0.080330 -0.507364
O7    O     O_R   0.586130 0.079760 0.077080 -0.464599
O8    O     O_R   0.627700 0.809630 0.066580 -0.481223
O9    O     O_R   0.816140 0.597180 0.075920 -0.492509
O10   O     O_R   0.045360 0.639170 0.081440 -0.495547
O11   O     O_3   0.833980 0.833750 0.001700 -0.296968
O12   O     O_R   0.524640 0.695370 0.425100 -0.503858
O13   O     O_R   0.261360 0.738990 0.584270 -0.520597
O14   O     O_R   0.532590 0.694780 0.574370 -0.512497
O15   O     O_R   0.744470 0.503750 0.577000 -0.530000
O16   O     O_R   0.698520 0.277230 0.571620 -0.503073
O17   O     O_R   0.498530 0.256920 0.419280 -0.517395
O18   O     O_R   0.272880 0.527780 0.428680 -0.493248
O19   O     O_R   0.252780 0.739630 0.423250 -0.511571
O20   O     O_R   0.735890 0.504390 0.415980 -0.507528
O21   O     O_R   0.690560 0.277820 0.422350 -0.495621
O22   O     O_3   0.499990 0.499990 0.499980 -0.255014
O23   O     O_R   0.089190 0.825870 0.932320 -0.515393
O24   O     O_R   0.819070 0.053960 0.931440 -0.487879
O25   O     O_R   0.607070 0.076440 0.916460 -0.529312
O26   O     O_R   0.647110 0.806550 0.917690 -0.515849

loop_
_geom_bond_atom_site_label_1
_geom_bond_atom_site_label_2
_ccdc_geom_bond_type
C7    H37   S    
Cr6   O9    S    
C27   O8    A    
C25   O3    A    
C6    H36   S    
Cr1   O18   S    
C34   C37   S    
H22   N2    S    
C35   C36   S    
Cr2   O13   S    
C3    H3    S    
H32   N6    S    
C12   C23   S    
C27   O9    A    
C30   O20   A    
C35   H12   S    
C12   N6    S    
Cr2   O19   S    
C21   H13   S    
C3    C7    D    
Cr5   O8    S    
C5    C6    D    
Cr6   O2    S    
C32   N1    S    
C18   C21   D    
Cr2   O12   S    
Cr3   O15   S    
C12   C37   S    
C2    C38   D    
Cr2   O22   S    
C2    H33   S    
C19   C20   D    
C1    O4    A    
Cr1   O22   S    
C23   C24   S    
Cr3   O20   S    
C37   H1    S    
C9    C10   D    
C1    O13   A    
C16   O16   A    
H30   N5    S    
C13   H10   S    
C14   H9    S    
Cr4   O24   S    
C40   H20   S    
C32   H2    S    
C9    H6    S    
Cr3   O21   S    
C24   O2    A    
C37   H17   S    
C26   O6    A    
Cr6   O11   S    
C4    C34   S    
H31   N6    S    
C12   N5    S    
C39   H34   S    
C18   C28   S    
C39   C40   D    
C29   O5    A    
C5    H38   S    
C36   N4    S    
C1    C3    S    
Cr3   O16   S    
H27   N4    S    
Cr4   O6    S    
C25   O23   A    
Cr5   O25   S    
Cr1   O4    S    
C30   O12   A    
C33   C34   S    
C14   C26   S    
Cr5   O11   S    
C33   H24   S    
C15   N2    S    
H25   N3    S    
C18   H14   S    
C22   O25   A    
Cr1   O1    S    
Cr4   O23   S    
C24   O26   A    
C23   C35   S    
C38   H35   S    
C5    C25   S    
Cr3   O22   S    
C10   H4    S    
H18   N1    S    
H26   N3    S    
C36   H23   S    
C9    C27   S    
C15   C17   S    
Cr6   O10   S    
H21   N2    S    
Cr1   O17   S    
C29   O10   A    
C31   O17   A    
C13   C31   S    
Cr2   O14   S    
C8    H7    S    
Cr4   O11   S    
H19   N1    S    
C6    C7    S    
C28   O19   A    
C4    O15   A    
C19   N3    S    
C13   C17   D    
C8    C30   S    
C32   C33   S    
Cr4   O5    S    
Cr5   O7    S    
C23   C32   S    
Cr5   O26   S    
Cr6   O3    S    
C28   O18   A    
C8    C11   D    
C22   C39   S    
C4    O14   A    
C35   H16   S    
C34   C36   S    
C11   H5    S    
C10   C11   S    
H29   N5    S    
C26   O7    A    
C2    C40   S    
C22   O24   A    
C20   C21   S    
C16   O1    A    
C33   H15   S    
C31   O21   A    
C14   C15   D    
H28   N4    S    
C20   H11   S    
C17   H8    S    
C16   C38   S    
C19   C29   S    
