data_mof_unit_10209.cif
_audit_creation_date              2012-12-10T16:54:04-0500
_audit_creation_method            fapswitch 2.2
_symmetry_space_group_name_H-M    P1
_symmetry_Int_Tables_number       1
_space_group_crystal_system       triclinic
_cell_length_a                    9.727912
_cell_length_b                    10.923007
_cell_length_c                    13.445653
_cell_angle_alpha                 90.918876
_cell_angle_beta                  72.359233
_cell_angle_gamma                 91.44177
_cell_volume                      1361.04015282

loop_
_atom_site_label
_atom_site_type_symbol
_atom_type_description
_atom_site_fract_x
_atom_site_fract_y
_atom_site_fract_z
_atom_type_partial_charge
C1    C     C_R   0.500687 0.734589 0.501116 0.842692
C2    C     C_R   0.435122 0.491532 0.980551 0.084487
C3    C     C_R   0.460782 0.530428 0.876244 0.049565
C4    C     C_R   0.539103 0.520940 0.032919 0.087668
C5    C     C_R   0.661174 0.595870 0.983194 0.158432
C6    C     C_R   0.675039 0.645002 0.885669 -0.243330
C7    C     C_R   0.574234 0.615306 0.834542 -0.180945
C8    C     C_R   0.524644 0.479682 0.133993 -0.243852
C9    C     C_R   0.744470 0.587144 0.135659 -0.195755
C10   C     C_R   0.370737 0.486319 0.816757 -0.142198
C11   C     C_2   0.616155 0.069298 0.485156 -0.145906
C12   C     C_R   0.421183 0.497940 0.700766 0.781592
C13   C     C_2   0.497991 0.133022 0.490640 -0.329652
C14   C     C_2   0.618217 0.935544 0.478370 -0.165997
C15   C     C_2   0.497561 0.866642 0.507937 -0.316379
C16   C     C_2   0.049787 0.556772 0.567721 -0.067870
C17   C     C_2   0.911207 0.583456 0.544921 0.207958
C18   C     C_R   0.499609 0.265345 0.497468 0.841380
C19   C     C_R   0.577565 0.501823 0.300182 0.800875
C20   C     C_R   0.764843 0.625297 0.033680 -0.202759
C21   C     C_R   0.621301 0.517872 0.187085 -0.050906
C22   C     C_R   0.240236 0.420603 0.868969 0.152952
C23   C     C_R   0.208736 0.396096 0.975231 -0.172945
C24   C     C_R   0.304997 0.427587 0.029339 -0.227043
Cu1   Cu    Cu3+1 0.361370 0.499980 0.499980 0.931494
Cu2   Cu    Cu3+1 0.638630 0.500020 0.500020 0.923583
H1    H     H_    0.398734 0.089206 0.486451 0.150813
H2    H     H_    0.722612 0.893627 0.449080 0.153204
H3    H     H_    0.133142 0.471425 0.433494 0.194644
H4    H     H_    0.892623 0.416364 0.489247 0.184152
H5    H     H_    0.436551 0.420417 0.175448 0.139170
H6    H     H_    0.271637 0.402566 0.110368 0.136338
H7    H     H_    0.110232 0.347108 0.016619 0.140857
H8    H     H_    0.716952 0.116078 0.482818 0.165872
N1    N     N_2   0.152660 0.501340 0.501130 -0.300360
N2    N     N_2   0.846520 0.501370 0.501160 -0.317211
O1    O     O_R   0.382960 0.678040 0.499980 -0.567869
O2    O     O_R   0.617100 0.678080 0.500020 -0.602952
O3    O     O_R   0.325800 0.499940 0.650950 -0.575819
O4    O     O_R   0.559930 0.499980 0.650990 -0.571910
O5    O     O_R   0.382900 0.321920 0.499980 -0.576038
O6    O     O_R   0.617040 0.321960 0.500020 -0.576478
O7    O     O_R   0.440070 0.500020 0.349010 -0.577490
O8    O     O_R   0.674200 0.500060 0.349050 -0.576859
H9    H     H_    0.820241 0.617502 0.176071 0.152763
H10   H     H_    0.391937 0.906286 0.538670 0.147459
H11   H     H_    0.071553 0.598303 0.635255 0.161153
C25   C     C_3   0.856593 0.712912 0.564597 -0.297544
C26   C     C_3   0.947164 0.803701 0.607933 -0.960903
H12   H     H_    0.946074 0.777147 0.687486 0.244789
H13   H     H_    0.059981 0.809242 0.555457 0.270984
H14   H     H_    0.900397 0.896191 0.613322 0.254164
H15   H     H_    0.856868 0.749365 0.488211 0.211951
H16   H     H_    0.746901 0.711737 0.619909 0.223912
H17   H     H_    0.762844 0.708275 0.849488 0.141272
H18   H     H_    0.858456 0.682158 0.995858 0.134287
C27   C     C_3   0.132979 0.369872 0.816107 -0.384727
C28   C     C_3   0.185980 0.251582 0.756249 -0.770023
H19   H     H_    0.296175 0.263895 0.701666 0.252509
H20   H     H_    0.187905 0.177918 0.811788 0.233691
H21   H     H_    0.111995 0.222565 0.711161 0.234887
H22   H     H_    0.027525 0.348054 0.875011 0.187033
H23   H     H_    0.105946 0.438837 0.765999 0.216750
H24   H     H_    0.582641 0.662797 0.763498 0.146390

loop_
_geom_bond_atom_site_label_1
_geom_bond_atom_site_label_2
_ccdc_geom_bond_type
C12   O4    A    
C2    C4    A    
C23   C24   A    
C24   H6    S    
C9    H9    S    
C6    C7    A    
C1    C15   S    
C17   N2    D    
C1    O1    A    
H3    N1    S    
C9    C20   A    
C11   H8    S    
C17   C25   S    
H4    N2    S    
C6    H17   S    
C4    C8    A    
C26   H14   S    
C9    C21   A    
Cu1   O7    S    
C28   H21   S    
C2    C3    A    
Cu1   Cu2   S    
Cu2   O8    S    
C27   H22   S    
C3    C10   A    
C10   C22   A    
C25   H16   S    
C11   C13   D    
Cu2   O4    S    
C27   C28   S    
C5    C6    A    
Cu1   O3    S    
C10   C12   S    
C1    O2    A    
Cu1   N1    S    
C13   C18   S    
C22   C27   S    
Cu2   N2    S    
C25   C26   S    
C19   C21   S    
C19   O7    A    
C27   H23   S    
C3    C7    A    
C20   H18   S    
C18   O6    A    
C16   N1    D    
C2    C24   A    
C25   H15   S    
C11   C14   S    
C7    H24   S    
C16   C17   S    
C28   H20   S    
C19   O8    A    
Cu2   O6    S    
C23   H7    S    
C26   H12   S    
C18   O5    A    
Cu1   O5    S    
C5    C20   A    
C16   H11   S    
C14   C15   D    
C13   H1    S    
C15   H10   S    
C14   H2    S    
C28   H19   S    
C22   C23   A    
C8    H5    S    
C12   O3    A    
Cu2   O2    S    
Cu1   O1    S    
C4    C5    A    
C26   H13   S    
C8    C21   A    
