data_mof_unit_37354.cif
_audit_creation_date              2012-12-10T18:24:50-0500
_audit_creation_method            fapswitch 2.2
_symmetry_space_group_name_H-M    P1
_symmetry_Int_Tables_number       1
_space_group_crystal_system       triclinic
_cell_length_a                    14.086572
_cell_length_b                    14.916777
_cell_length_c                    16.86551
_cell_angle_alpha                 89.725625
_cell_angle_beta                  84.882194
_cell_angle_gamma                 88.639661
_cell_volume                      3528.75082284

loop_
_atom_site_label
_atom_site_type_symbol
_atom_type_description
_atom_site_fract_x
_atom_site_fract_y
_atom_site_fract_z
_atom_type_partial_charge
C1    C     C_R   0.498742 0.672942 0.498676 0.929769
C2    C     C_R   0.450165 0.906982 0.566335 0.060340
C3    C     C_R   0.479292 0.047686 0.496471 -0.047082
C4    C     C_R   0.476598 0.953904 0.495128 -0.044783
C5    C     C_R   0.457468 0.094542 0.569352 -0.051385
C6    C     C_R   0.501836 0.906943 0.422928 -0.053971
C7    C     C_R   0.521560 0.047869 0.352989 -0.234654
C8    C     C_R   0.422239 0.953989 0.636530 -0.248107
C9    C     C_R   0.514651 0.954767 0.350161 0.214677
C10   C     C_R   0.424178 0.047296 0.639067 0.219644
C11   C     C_R   0.196610 0.454720 0.557612 -0.163636
C12   C     C_R   0.500588 0.327185 0.500366 0.961359
C13   C     C_R   0.802865 0.549906 0.445452 -0.174200
C14   C     C_R   0.206044 0.548296 0.442635 0.551762
C15   C     C_R   0.795117 0.444443 0.551289 0.588566
C16   C     C_R   0.486612 0.507748 0.652478 0.926350
C17   C     C_R   0.514227 0.499230 0.346167 0.917735
C18   C     C_R   0.105505 0.543851 0.437662 -0.158216
C19   C     C_R   0.894128 0.455862 0.561615 -0.146441
C20   C     C_R   0.050267 0.502288 0.500625 0.014475
C21   C     C_R   0.949172 0.502866 0.502100 0.010821
C22   C     C_R   0.096170 0.457504 0.560822 0.006620
C23   C     C_R   0.472181 0.187256 0.570530 0.361707
C24   C     C_R   0.903236 0.547363 0.442077 -0.007206
C25   C     C_R   0.058548 0.579384 0.372288 0.232284
C26   C     C_R   0.940829 0.417493 0.625620 0.216492
C27   C     C_R   0.957896 0.584637 0.377763 -0.237802
C28   C     C_R   0.040989 0.416163 0.622998 -0.259006
C29   C     C_R   0.479114 0.540989 0.734462 -0.169613
C30   C     C_R   0.527118 0.502637 0.258040 -0.171657
C31   C     C_R   0.544081 0.606105 0.755731 0.152600
C32   C     C_R   0.446913 0.501791 0.213392 0.166196
C33   C     C_R   0.539331 0.636595 0.833599 -0.270150
C34   C     C_R   0.517175 0.813740 0.426481 0.350265
C35   C     C_R   0.458560 0.516650 0.132030 -0.261324
C36   C     C_R   0.478953 0.596149 0.891918 0.030155
C37   C     C_R   0.548147 0.531650 0.093238 -0.004981
C38   C     C_R   0.411438 0.534085 0.871854 0.181933
C39   C     C_R   0.629450 0.530557 0.135128 0.162919
C40   C     C_R   0.406682 0.511736 0.791270 0.105690
C41   C     C_R   0.619964 0.513075 0.217532 0.125521
C42   C     C_2   0.499450 0.607004 0.974531 0.169765
C43   C     C_2   0.555105 0.543723 0.006820 0.244974
C44   C     C_3   0.708645 0.607867 0.702020 -0.733265
C45   C     C_R   0.500010 0.231719 0.499449 -0.266444
C46   C     C_3   0.301306 0.416805 0.224035 -0.827898
C47   C     C_3   0.265476 0.689797 0.419835 0.145822
C48   C     C_3   0.198548 0.756913 0.382629 -0.402025
C49   C     C_3   0.218079 0.852734 0.407175 -0.964083
C50   C     C_3   0.787931 0.289517 0.566823 0.036252
C51   C     C_3   0.754682 0.252419 0.489814 -0.347721
C52   C     C_3   0.818557 0.174726 0.456855 -0.977775
C53   C     C_3   0.070013 0.654081 0.239190 -0.859639
C54   C     C_3   0.886467 0.427618 0.764873 -0.816171
C55   C     C_3   0.737713 0.415263 0.274351 -0.731601
C56   C     C_R   0.493438 0.768633 0.498366 -0.253810
C57   C     C_3   0.245474 0.508008 0.755524 -0.776791
C58   C     C_3   0.683556 0.499353 0.905731 -0.785060
C59   C     C_3   0.509469 0.744477 0.048854 -0.814252
C60   C     C_3   0.376755 0.400474 0.952261 -0.834927
C61   C     C_3   0.789556 0.485351 0.078963 -0.777210
C62   C     C_3   0.547725 0.239459 0.673926 0.087722
C63   C     C_3   0.532737 0.279553 0.757298 -0.309489
C64   C     C_3   0.627508 0.291404 0.792828 -0.983378
C65   C     C_3   0.647659 0.744934 0.357424 0.114151
C66   C     C_3   0.704010 0.802285 0.295133 -0.327374
C67   C     C_R   0.517165 0.186998 0.426778 0.096580
C68   C     C_3   0.808570 0.772329 0.283901 -1.036205
C69   C     C_3   0.472424 0.266157 0.309818 -0.817200
C70   C     C_3   0.318464 0.756108 0.650910 -0.806854
C71   C     C_3   0.547789 0.953443 0.201912 -0.862420
C72   C     C_3   0.394265 0.052572 0.786781 -0.837376
C73   C     C_R   0.453085 0.813401 0.566615 0.106115
C74   C     C_R   0.506757 0.094273 0.425166 0.070251
H1    H     H_    0.232577 0.417701 0.601917 0.184620
H2    H     H_    0.754915 0.632972 0.650307 0.231703
H3    H     H_    0.709647 0.533478 0.699669 0.273255
H4    H     H_    0.737839 0.629703 0.757684 0.208307
H5    H     H_    0.314328 0.551376 0.248918 0.266658
H6    H     H_    0.241533 0.401999 0.269238 0.244939
H7    H     H_    0.348054 0.356043 0.216392 0.252879
H8    H     H_    0.271587 0.432757 0.166634 0.226614
H9    H     H_    0.338705 0.712726 0.402399 0.201115
H10   H     H_    0.252785 0.693571 0.485894 0.120780
H11   H     H_    0.209520 0.752352 0.316731 0.257720
H12   H     H_    0.767059 0.587448 0.401630 0.156291
H13   H     H_    0.123406 0.742246 0.402772 0.234773
H14   H     H_    0.208547 0.859427 0.473011 0.268225
H15   H     H_    0.167561 0.899979 0.380678 0.270451
H16   H     H_    0.291949 0.871120 0.385676 0.266672
H17   H     H_    0.768154 0.241530 0.615766 0.143502
H18   H     H_    0.866914 0.288957 0.560664 0.141118
H19   H     H_    0.682344 0.226567 0.502671 0.221584
H20   H     H_    0.754064 0.305952 0.444061 0.226350
H21   H     H_    0.891985 0.198044 0.440205 0.267553
H22   H     H_    0.789707 0.147603 0.402917 0.272255
H23   H     H_    0.921052 0.612598 0.329614 0.158721
H24   H     H_    0.820867 0.120247 0.501837 0.264114
H25   H     H_    0.153889 0.547502 0.276070 0.247066
H26   H     H_    0.126427 0.674336 0.192825 0.245605
H27   H     H_    0.035706 0.715955 0.266065 0.256678
H28   H     H_    0.017139 0.614334 0.210182 0.239569
H29   H     H_    0.908394 0.311403 0.700083 0.211466
H30   H     H_    0.839355 0.393945 0.811408 0.239921
H31   H     H_    0.858910 0.496933 0.756419 0.253151
H32   H     H_    0.959175 0.430117 0.785386 0.232371
H33   H     H_    0.756629 0.550740 0.244000 0.207789
H34   H     H_    0.075511 0.382404 0.670061 0.138743
H35   H     H_    0.808706 0.402536 0.241944 0.215469
H36   H     H_    0.688043 0.363940 0.256095 0.230709
H37   H     H_    0.745575 0.407393 0.338732 0.243554
H38   H     H_    0.319574 0.401396 0.802188 0.239218
H39   H     H_    0.217561 0.543678 0.810661 0.217339
H40   H     H_    0.190256 0.461567 0.739121 0.222671
H41   H     H_    0.258782 0.557746 0.706851 0.261863
H42   H     H_    0.611469 0.413987 0.987900 0.219525
H43   H     H_    0.746752 0.457932 0.918359 0.229877
H44   H     H_    0.700967 0.571140 0.912018 0.247444
H45   H     H_    0.396259 0.518639 0.098797 0.185090
H46   H     H_    0.668546 0.486158 0.843538 0.261464
H47   H     H_    0.391040 0.702219 0.996378 0.226560
H48   H     H_    0.464726 0.792752 0.086581 0.244830
H49   H     H_    0.544898 0.781096 0.997269 0.231532
H50   H     H_    0.564385 0.715131 0.085205 0.252127
H51   H     H_    0.279499 0.503667 0.929844 0.224299
H52   H     H_    0.382369 0.393995 0.017131 0.248638
H53   H     H_    0.445900 0.378400 0.920561 0.255875
H54   H     H_    0.320607 0.354670 0.936013 0.226049
H55   H     H_    0.745219 0.613913 0.116633 0.210216
H56   H     H_    0.590001 0.685265 0.850105 0.153860
H57   H     H_    0.833070 0.501059 0.022802 0.236247
H58   H     H_    0.756266 0.419174 0.072912 0.246612
H59   H     H_    0.838884 0.482202 0.126557 0.226890
H60   H     H_    0.596353 0.283127 0.636756 0.192253
H61   H     H_    0.581573 0.171421 0.678452 0.134998
H62   H     H_    0.496048 0.345786 0.754338 0.224098
H63   H     H_    0.487054 0.235142 0.796614 0.230468
H64   H     H_    0.666736 0.226103 0.795128 0.260763
H65   H     H_    0.614049 0.317754 0.854298 0.270387
H66   H     H_    0.672077 0.339652 0.756591 0.300187
H67   H     H_    0.537084 0.084758 0.298389 0.194988
H68   H     H_    0.657832 0.673635 0.339764 0.172191
H69   H     H_    0.677635 0.752487 0.416103 0.131581
H70   H     H_    0.672910 0.796814 0.237110 0.248169
H71   H     H_    0.699858 0.873462 0.314406 0.234536
H72   H     H_    0.840985 0.773478 0.341562 0.273026
H73   H     H_    0.848236 0.818337 0.241689 0.277011
H74   H     H_    0.814964 0.703635 0.258762 0.252100
H75   H     H_    0.597403 0.283252 0.363620 0.229477
H76   H     H_    0.427322 0.317520 0.343575 0.268529
H77   H     H_    0.427069 0.209879 0.294824 0.248060
H78   H     H_    0.399158 0.917747 0.690090 0.197007
H79   H     H_    0.503756 0.296472 0.253480 0.233637
H80   H     H_    0.456457 0.705592 0.645792 0.227094
H81   H     H_    0.294414 0.701030 0.614243 0.243210
H82   H     H_    0.280033 0.819394 0.637096 0.243626
H83   H     H_    0.299976 0.739224 0.714504 0.237810
H84   H     H_    0.458112 0.867750 0.271258 0.258912
H85   H     H_    0.555977 0.903611 0.153057 0.246075
H86   H     H_    0.618586 0.983178 0.206818 0.248674
H87   H     H_    0.495004 0.005841 0.186725 0.242108
H88   H     H_    0.326754 0.131767 0.703969 0.251191
H89   H     H_    0.611175 0.712575 0.698647 0.217434
H90   H     H_    0.382212 0.104375 0.833852 0.238880
H91   H     H_    0.466175 0.021533 0.790811 0.249794
H92   H     H_    0.338420 0.001535 0.797599 0.233058
N1    N     N_R   0.249970 0.499930 0.499970 -0.147765
N2    N     N_2   0.449724 0.675631 0.021442 -0.314998
N3    N     N_2   0.351472 0.492502 0.933204 -0.318898
N4    N     N_2   0.718340 0.555945 0.095292 -0.299997
N5    N     N_2   0.548287 0.234667 0.355924 -0.318960
N6    N     N_2   0.420689 0.765003 0.636933 -0.308165
N7    N     N_2   0.515150 0.909032 0.275553 -0.265094
N8    N     N_2   0.388247 0.094266 0.709632 -0.258793
N9    N     N_R   0.750030 0.500070 0.500030 -0.141124
N10   N     N_2   0.612696 0.643388 0.698468 -0.290441
N11   N     N_2   0.353171 0.492161 0.250460 -0.246177
N12   N     N_2   0.112771 0.600669 0.299158 -0.278125
N13   N     N_2   0.887984 0.377413 0.691728 -0.284012
N14   N     N_2   0.703652 0.505753 0.259158 -0.284917
N15   N     N_2   0.332144 0.457729 0.767737 -0.289202
N16   N     N_2   0.602085 0.474200 0.958919 -0.306867
O1    O     O_R   0.419720 0.632140 0.499990 -0.640049
O2    O     O_3   0.744226 0.374671 0.588128 -0.622450
O3    O     O_3   0.459206 0.235666 0.640821 -0.637838
O4    O     O_3   0.548746 0.765346 0.358702 -0.659111
O5    O     O_R   0.580280 0.367860 0.500010 -0.627415
O6    O     O_R   0.580270 0.632160 0.499980 -0.629494
O7    O     O_R   0.419730 0.367840 0.500020 -0.598430
O8    O     O_R   0.410240 0.500000 0.615800 -0.603985
O9    O     O_R   0.589760 0.500000 0.384200 -0.614697
O10   O     O_R   0.570790 0.500020 0.615800 -0.567640
O11   O     O_R   0.429210 0.499980 0.384200 -0.558494
O12   O     O_3   0.259966 0.601644 0.389296 -0.638149
Zn1   Zn    Zn3+2 0.392800 0.499980 0.500010 0.978873
Zn2   Zn    Zn3+2 0.607200 0.500020 0.499990 0.964241

loop_
_geom_bond_atom_site_label_1
_geom_bond_atom_site_label_2
_ccdc_geom_bond_type
C33   H56   S    
C10   N8    S    
C66   C68   S    
C8    C10   A    
C34   C56   A    
C23   C45   A    
H33   N14   S    
C55   N14   S    
C14   C18   A    
C47   O12   S    
C36   C42   S    
C46   N11   S    
C24   C27   A    
C49   H16   S    
C53   N12   S    
C6    C9    A    
C57   N15   S    
C1    O1    A    
C61   H59   S    
C57   H41   S    
C64   H64   S    
C26   N13   S    
C17   O9    A    
C15   C19   A    
C71   H86   S    
C70   H82   S    
C69   H76   S    
O10   Zn2   S    
C54   H30   S    
C44   H3    S    
C35   C37   A    
C1    C56   S    
C39   N4    S    
O5    Zn2   S    
C66   H70   S    
C58   H44   S    
C33   C36   A    
C54   N13   S    
C52   H21   S    
C7    C9    A    
C69   N5    S    
C60   H52   S    
C34   O4    S    
C19   C26   A    
C70   N6    S    
O9    Zn2   S    
C66   H71   S    
C41   N14   S    
C61   H58   S    
C46   H8    S    
C17   O11   A    
C53   H27   S    
O11   Zn1   S    
C16   O10   A    
C13   H12   S    
C45   C67   A    
O1    Zn1   S    
C31   C33   A    
C30   C41   A    
C9    N7    S    
C72   N8    S    
C30   C32   A    
H51   N3    S    
H29   N13   S    
C68   H74   S    
C59   H48   S    
C14   O12   S    
C22   C28   A    
C55   H35   S    
C11   N1    A    
C17   C30   S    
C63   H63   S    
C49   H14   S    
C18   C25   A    
N1    Zn1   S    
H5    N11   S    
H89   N10   S    
C42   N2    S    
C7    C74   A    
C31   N10   S    
C53   H26   S    
C59   H49   S    
C50   O2    S    
C54   H32   S    
C70   H81   S    
C69   H77   S    
C32   C35   A    
H55   N4    S    
C60   H54   S    
H25   N12   S    
C39   C41   A    
C23   O3    S    
C25   N12   S    
C57   H39   S    
C67   N5    S    
C16   C29   S    
C12   O5    A    
C58   H43   S    
C69   H79   S    
C51   C52   S    
C13   C24   A    
H42   N16   S    
C3    C74   A    
C62   H61   S    
C37   C43   S    
C2    C4    A    
C62   C63   S    
C12   O7    A    
C46   H7    S    
O7    Zn1   S    
H84   N7    S    
C47   C48   S    
C5    C23   A    
C53   H28   S    
C15   O2    S    
C58   H46   S    
C50   C51   S    
C72   H90   S    
C48   H13   S    
H80   N6    S    
C67   C74   A    
C47   H10   S    
C73   N6    S    
C2    C73   A    
C57   H40   S    
C68   H73   S    
C16   O8    A    
O8    Zn1   S    
C51   H19   S    
C62   O3    S    
C50   H18   S    
C48   C49   S    
C20   C22   A    
C47   H9    S    
C55   H36   S    
C32   N11   S    
C4    C6    A    
C42   C43   D    
C60   N3    S    
C3    C4    A    
N9    Zn2   S    
C7    H67   S    
C68   H72   S    
C38   N3    S    
C40   N15   S    
C64   H66   S    
C1    O6    A    
C59   H50   S    
C13   N9    A    
H47   N2    S    
C65   O4    S    
C27   H23   S    
C71   N7    S    
C56   C73   A    
C71   H87   S    
C54   H31   S    
C55   H37   S    
H75   N5    S    
C72   H92   S    
C60   H53   S    
C2    C8    A    
C44   N10   S    
C49   H15   S    
C12   C45   S    
C3    C5    A    
H38   N15   S    
H88   N8    S    
C25   C27   A    
C71   H85   S    
C43   N16   S    
C26   C28   A    
C72   H91   S    
C15   N9    A    
C58   N16   S    
C70   H83   S    
C63   H62   S    
C62   H60   S    
C44   H4    S    
C5    C10   A    
C29   C31   A    
C11   H1    S    
C36   C38   A    
C38   C40   A    
C65   H68   S    
C35   H45   S    
C8    H78   S    
C28   H34   S    
C65   H69   S    
C29   C40   A    
C52   H24   S    
C52   H22   S    
C18   C20   A    
C61   H57   S    
C51   H20   S    
C63   C64   S    
C6    C34   A    
C50   H17   S    
C20   C21   A    
O6    Zn2   S    
C11   C22   A    
C37   C39   A    
C65   C66   S    
C21   C24   A    
C48   H11   S    
C61   N4    S    
C46   H6    S    
C44   H2    S    
C14   N1    A    
C59   N2    S    
C19   C21   A    
C64   H65   S    
