data_mof_unit_35154.cif
_audit_creation_date              2012-12-11T16:56:13-0500
_audit_creation_method            fapswitch 2.2
_symmetry_space_group_name_H-M    P1
_symmetry_Int_Tables_number       1
_space_group_crystal_system       triclinic
_cell_length_a                    6.978787
_cell_length_b                    14.511886
_cell_length_c                    16.209362
_cell_angle_alpha                 90.457438
_cell_angle_beta                  90.020467
_cell_angle_gamma                 89.947251
_cell_volume                      1641.55587919

loop_
_atom_site_label
_atom_site_type_symbol
_atom_type_description
_atom_site_fract_x
_atom_site_fract_y
_atom_site_fract_z
_atom_type_partial_charge
O1    O     O_R   0.505830 0.583360 0.413880 -0.535286
O2    O     O_R   0.175830 0.595460 0.585520 -0.543053
O3    O     O_R   0.005520 0.416640 0.586120 -0.541224
C1    C     C_R   0.344494 0.617655 0.614201 0.699875
O4    O     O_R   0.176120 0.594390 0.414490 -0.545203
O5    O     O_R   0.005810 0.415570 0.413870 -0.541446
C2    C     C_R   0.344842 0.616299 0.386032 0.692993
O6    O     O_R   0.505540 0.584430 0.586130 -0.537280
O7    O     O_3   0.339200 0.441330 0.500000 -0.369888
V1    V     V_3+5 0.064350 0.510880 0.500000 1.388279
O8    O     O_R   0.676100 0.404540 0.414480 -0.539574
C3    C     C_R   0.845143 0.382479 0.385921 0.697066
O9    O     O_R   0.675810 0.405610 0.585510 -0.539439
C4    C     C_R   0.845072 0.383584 0.613462 0.743571
V2    V     V_3+5 0.564340 0.489120 0.500000 1.401659
O10   O     O_3   0.839360 0.558670 0.500000 -0.372869
C5    C     C_2   0.721857 0.206821 0.784407 -0.129716
C6    C     C_2   0.885610 0.181169 0.822185 -0.302603
H1    H     H_    0.587132 0.176896 0.804289 0.138351
H2    H     H_    0.022048 0.210096 0.804148 0.127176
C7    C     C_2   0.709395 0.275386 0.716470 -0.136760
C8    C     C_2   0.861710 0.315077 0.680144 -0.311642
H3    H     H_    0.566269 0.293184 0.695595 0.136324
H4    H     H_    0.006004 0.297749 0.699029 0.129653
C9    C     C_R   0.720539 0.186503 0.238286 0.080582
C10   C     C_R   0.880650 0.181993 0.186351 -0.079046
C11   C     C_R   0.033171 0.242126 0.203709 -0.183679
H5    H     H_    0.155070 0.243507 0.163253 0.166094
C12   C     C_R   0.023026 0.305909 0.269400 -0.163869
H6    H     H_    0.139539 0.354043 0.278110 0.132556
C13   C     C_R   0.858625 0.311967 0.319560 -0.088384
C14   C     C_R   0.710549 0.249107 0.304161 0.027275
C15   C     C_3   0.504820 0.269563 0.288341 -0.373230
C16   C     C_3   0.516845 0.203954 0.215232 0.179551
H7    H     H_    0.480715 0.342779 0.271296 0.187164
H8    H     H_    0.411439 0.243791 0.338662 0.132800
H9    H     H_    0.422829 0.142178 0.220280 0.076425
C17   C     C_R   0.501783 0.751293 0.688797 0.062146
C18   C     C_R   0.351861 0.687485 0.681706 -0.106082
C19   C     C_R   0.203899 0.693843 0.740830 -0.178855
H10   H     H_    0.082973 0.647430 0.737473 0.125133
C20   C     C_R   0.216976 0.755784 0.808333 -0.194924
H11   H     H_    0.104618 0.755920 0.854304 0.128912
C21   C     C_R   0.378095 0.813422 0.818694 -0.141701
C22   C     C_R   0.514182 0.812502 0.755258 0.120543
C23   C     C_3   0.727881 0.805264 0.757760 -0.047158
C24   C     C_3   0.713719 0.738886 0.684224 -0.402557
H12   H     H_    0.778102 0.770348 0.814619 0.110241
H13   H     H_    0.757255 0.667307 0.699298 0.151326
H14   H     H_    0.774373 0.765412 0.625670 0.174411
C25   C     C_R   0.516058 0.686899 0.265525 0.049289
C26   C     C_R   0.353534 0.681525 0.315941 -0.076404
C27   C     C_R   0.199925 0.740877 0.297919 -0.192685
H15   H     H_    0.075229 0.741675 0.337198 0.130317
C28   C     C_R   0.212001 0.804554 0.232909 -0.195067
H16   H     H_    0.096406 0.852324 0.222889 0.144292
C29   C     C_R   0.377956 0.811793 0.184461 -0.054902
C30   C     C_R   0.529324 0.751974 0.202370 0.071687
C31   C     C_3   0.728023 0.777474 0.227042 0.183525
C32   C     C_3   0.716216 0.703755 0.292988 -0.457164
H17   H     H_    0.834196 0.764134 0.177322 0.097477
H18   H     H_    0.724168 0.730457 0.357447 0.178643
H19   H     H_    0.809635 0.643283 0.279938 0.147868
O11   O     O_R   0.229930 0.912420 0.917160 -0.541840
O12   O     O_R   0.559420 0.902500 0.088780 -0.525323
O13   O     O_R   0.729660 0.081330 0.089380 -0.535376
C33   C     C_R   0.390626 0.881073 0.117655 0.709604
O14   O     O_R   0.559650 0.901420 0.917750 -0.545355
O15   O     O_R   0.729880 0.080250 0.917130 -0.537672
C34   C     C_R   0.390718 0.879200 0.889147 0.693704
O16   O     O_R   0.229700 0.913500 0.089410 -0.544815
O17   O     O_3   0.396250 0.055540 0.003280 -0.381201
V3    V     V_3+5 0.671130 0.986010 0.003260 1.414694
O18   O     O_R   0.059600 0.091310 0.917720 -0.545219
C35   C     C_R   0.890894 0.112976 0.889472 0.739720
O19   O     O_R   0.059370 0.092380 0.088750 -0.550185
C36   C     C_R   0.890295 0.115125 0.116807 0.716989
V4    V     V_3+5 0.171120 0.007820 0.003230 1.382685
O20   O     O_3   0.896130 0.938240 0.003240 -0.374036
C37   C     C_3   0.836695 0.896004 0.740981 -0.303705
C38   C     C_3   0.738374 0.961714 0.680696 -0.747689
H20   H     H_    0.712411 0.927346 0.620339 0.224104
H21   H     H_    0.600288 0.986729 0.706564 0.218551
H22   H     H_    0.831887 0.022431 0.670472 0.215915
H23   H     H_    0.856621 0.932934 0.800623 0.183406
H24   H     H_    0.981635 0.879107 0.716949 0.189146
O21   O     O_3   0.732507 0.867654 0.259538 -0.635905
H25   H     H_    0.835584 0.870018 0.301569 0.282474
O22   O     O_3   0.503542 0.251495 0.140306 -0.638633
H26   H     H_    0.462496 0.205762 0.098179 0.304449

loop_
_geom_bond_atom_site_label_1
_geom_bond_atom_site_label_2
_ccdc_geom_bond_type
C28   H16   S    
C6    C35   S    
C11   C12   A    
C16   H9    S    
C1    O6    A    
C38   H20   S    
C24   H13   S    
C27   H15   S    
C21   C22   A    
C10   C11   A    
C12   H6    S    
C32   H19   S    
O19   V4    S    
C2    C26   S    
O5    C3    A    
C17   C18   A    
V2    O10   S    
C15   H8    S    
O12   V3    S    
C32   H18   S    
C17   C22   A    
C37   H24   S    
C15   H7    S    
O8    V2    S    
O12   C33   A    
O17   V4    S    
O15   V3    S    
O1    V2    S    
O11   C34   A    
O7    V1    S    
C33   O16   A    
C9    C16   S    
O14   V3    S    
C9    C14   A    
C19   C20   A    
C31   C32   S    
C7    C8    D    
C20   C21   A    
C29   C33   S    
C38   H21   S    
C15   C16   S    
C24   H14   S    
C27   C28   A    
C23   H12   S    
C31   H17   S    
C10   C36   S    
O18   C35   A    
C25   C26   A    
O19   C36   A    
C18   C19   A    
O4    C2    A    
V4    O20   S    
C37   C38   S    
C9    C10   A    
C22   C23   S    
O13   V3    S    
C5    C7    S    
O2    C1    A    
C28   C29   A    
C37   H23   S    
C13   C14   A    
C1    C18   S    
C5    C6    D    
V3    O20   S    
C25   C30   A    
C21   C34   S    
C17   C24   S    
O3    C4    A    
C19   H10   S    
O6    V2    S    
O9    V2    S    
C3    C13   S    
C8    H4    S    
C20   H11   S    
O2    V1    S    
C38   H22   S    
C26   C27   A    
O13   C36   A    
C23   C24   S    
O1    C2    A    
O11   V4    S    
O17   V3    S    
O5    V1    S    
O8    C3    A    
C14   C15   S    
C4    C8    S    
C7    H3    S    
C30   C31   S    
C16   O22   S    
O4    V1    S    
C12   C13   A    
O3    V1    S    
V1    O10   S    
C23   C37   S    
C29   C30   A    
C5    H1    S    
O15   C35   A    
C6    H2    S    
O7    V2    S    
C31   O21   S    
O21   H25   S    
O14   C34   A    
O18   V4    S    
C11   H5    S    
C25   C32   S    
O22   H26   S    
O9    C4    A    
O16   V4    S    
