data_mof_unit_9000.cif
_audit_creation_date              2012-12-11T14:52:46-0500
_audit_creation_method            fapswitch 2.2
_symmetry_space_group_name_H-M    P1
_symmetry_Int_Tables_number       1
_space_group_crystal_system       triclinic
_cell_length_a                    19.00734
_cell_length_b                    10.940837
_cell_length_c                    18.933301
_cell_angle_alpha                 89.958981
_cell_angle_beta                  90.966132
_cell_angle_gamma                 89.722667
_cell_volume                      3936.69038628

loop_
_atom_site_label
_atom_site_type_symbol
_atom_type_description
_atom_site_fract_x
_atom_site_fract_y
_atom_site_fract_z
_atom_type_partial_charge
C1    C     C_R   0.287683 0.005668 0.861157 0.547938
C2    C     C_R   0.708178 0.515462 0.042015 0.400408
C3    C     C_3   0.030749 0.312706 0.063735 -0.039017
C4    C     C_1   0.354793 0.790031 0.023348 0.215213
C5    C     C_1   0.643769 0.816483 0.977094 0.163813
C6    C     C_1   0.854793 0.290031 0.023348 0.215206
C7    C     C_1   0.143769 0.316482 0.977094 0.163809
C8    C     C_1   0.184076 0.780276 0.409459 0.261806
C9    C     C_1   0.885823 0.662799 0.557276 0.254286
C10   C     C_1   0.684061 0.280277 0.409455 0.261716
C11   C     C_1   0.385967 0.162251 0.557188 0.253979
C12   C     C_1   0.548832 0.614889 0.922057 0.337991
C13   C     C_R   0.795936 0.023561 0.960141 0.396129
C14   C     C_1   0.475974 0.587168 0.065353 0.383214
C15   C     C_1   0.048831 0.114887 0.922058 0.337991
C16   C     C_1   0.975972 0.087169 0.065354 0.383210
C17   C     C_1   0.105883 0.641187 0.055747 0.363048
C18   C     C_1   0.881464 0.679853 0.938487 0.379915
C19   C     C_1   0.605882 0.141187 0.055747 0.363048
C20   C     C_1   0.381464 0.179854 0.938487 0.379916
C21   C     C_1   0.121537 0.678800 0.914728 0.457041
C22   C     C_1   0.875210 0.693938 0.081185 0.456824
C23   C     C_1   0.621537 0.178800 0.914728 0.457048
C24   C     C_R   0.208178 0.015462 0.042015 0.400410
C25   C     C_1   0.375210 0.193938 0.081185 0.456823
C26   C     C_R   0.285255 0.497503 0.030970 0.400067
C27   C     C_R   0.719233 0.487647 0.971540 0.393102
C28   C     C_R   0.785255 0.997502 0.030970 0.400065
C29   C     C_R   0.219233 0.987647 0.971540 0.393099
C30   C     C_R   0.222927 0.532962 0.064138 -0.036224
C31   C     C_R   0.775920 0.538235 0.935250 -0.048651
C32   C     C_R   0.722927 0.032962 0.064138 -0.036221
C33   C     C_R   0.711532 0.003019 0.138812 0.539201
C34   C     C_R   0.275920 0.038235 0.935250 -0.048654
C35   C     C_R   0.169394 0.593342 0.024128 -0.099105
C36   C     C_R   0.825357 0.612190 0.972532 -0.098533
C37   C     C_R   0.669394 0.093342 0.024128 -0.099105
C38   C     C_R   0.325357 0.112190 0.972532 -0.098532
C39   C     C_R   0.178434 0.615093 0.952590 -0.060226
C40   C     C_R   0.818600 0.628769 0.044534 -0.061460
C41   C     C_R   0.678434 0.115093 0.952590 -0.060226
C42   C     C_R   0.318600 0.128769 0.044534 -0.061458
C43   C     C_R   0.243498 0.584019 0.920447 -0.033506
C44   C     C_R   0.787683 0.505668 0.861157 0.547934
C45   C     C_R   0.757050 0.586906 0.079130 -0.034427
C46   C     C_R   0.743498 0.084019 0.920447 -0.033506
C47   C     C_R   0.257050 0.086906 0.079130 -0.034425
C48   C     C_R   0.456442 0.735105 0.525399 0.318631
C49   C     C_R   0.466053 0.740712 0.453396 0.330951
C50   C     C_R   0.956499 0.235018 0.525405 0.318630
C51   C     C_R   0.966094 0.240624 0.453399 0.330938
C52   C     C_R   0.504015 0.837070 0.424673 -0.092127
C53   C     C_R   0.483011 0.827687 0.570184 -0.088813
C54   C     C_R   0.003970 0.337064 0.424655 -0.092106
C55   C     C_R   0.211532 0.503019 0.138812 0.539207
C56   C     C_R   0.982984 0.327692 0.570171 -0.088836
C57   C     C_R   0.528336 0.932740 0.468851 0.315139
C58   C     C_R   0.517940 0.927525 0.541398 0.326641
C59   C     C_R   0.028186 0.432833 0.468811 0.315152
C60   C     C_R   0.017793 0.427631 0.541359 0.326591
C61   C     C_R   0.440068 0.816054 0.862884 0.540521
C62   C     C_R   0.559173 0.815673 0.137069 0.535622
C63   C     C_R   0.940068 0.316054 0.862884 0.540512
C64   C     C_R   0.059173 0.315673 0.137069 0.535614
C65   C     C_R   0.223786 0.705887 0.524688 -0.079601
C66   C     C_3   0.523420 0.720654 0.962602 -0.080905
C67   C     C_R   0.814330 0.607279 0.458067 -0.149410
C68   C     C_R   0.723778 0.205896 0.524684 -0.079607
C69   C     C_R   0.314373 0.106980 0.458003 -0.149389
C70   C     C_R   0.220687 0.690436 0.452599 0.004389
C71   C     C_R   0.820183 0.613273 0.529981 -0.050417
C72   C     C_R   0.720684 0.190449 0.452594 0.004431
C73   C     C_R   0.320267 0.112918 0.529918 -0.050451
C74   C     C_R   0.249257 0.583567 0.423874 0.055848
C75   C     C_R   0.761859 0.578081 0.571751 0.007219
C76   C     C_R   0.749269 0.083594 0.423866 0.055834
C77   C     C_3   0.485379 0.707656 0.032867 -0.078430
C78   C     C_R   0.261913 0.077923 0.571712 0.007211
C79   C     C_R   0.285258 0.498107 0.467148 -0.058115
C80   C     C_R   0.696769 0.554009 0.539704 -0.162869
C81   C     C_R   0.785295 0.998160 0.467137 -0.058084
C82   C     C_R   0.196793 0.053995 0.539687 -0.162902
C83   C     C_R   0.287637 0.513873 0.539428 -0.052332
C84   C     C_R   0.689459 0.565520 0.467339 -0.130025
C85   C     C_R   0.787675 0.013925 0.539417 -0.052310
C86   C     C_R   0.189466 0.065526 0.467327 -0.129995
C87   C     C_R   0.255241 0.616003 0.568135 0.067896
C88   C     C_3   0.023419 0.220654 0.962603 -0.080906
C89   C     C_R   0.748678 0.590927 0.426532 0.018037
C90   C     C_R   0.755251 0.116025 0.568129 0.067851
C91   C     C_R   0.248688 0.090828 0.426501 0.018096
C92   C     C_R   0.259882 0.635656 0.851167 0.558025
C93   C     C_R   0.740312 0.636031 0.148882 0.558955
C94   C     C_R   0.759882 0.135656 0.851167 0.558047
C95   C     C_R   0.240312 0.136030 0.148882 0.558952
C96   C     C_R   0.273384 0.043813 0.644684 0.541918
C97   C     C_R   0.728698 0.045208 0.353886 0.570688
C98   C     C_R   0.773367 0.543857 0.644702 0.541906
C99   C     C_3   0.985378 0.207656 0.032868 -0.078430
C100  C     C_R   0.228695 0.545202 0.353888 0.570591
C101  C     C_R   0.466250 0.822614 0.644924 0.617063
C102  C     C_R   0.530822 0.824519 0.353372 0.612190
C103  C     C_R   0.966233 0.322613 0.644915 0.616972
C104  C     C_R   0.030810 0.324519 0.353365 0.612095
C105  C     C_R   0.261121 0.641634 0.642102 0.560629
C106  C     C_R   0.739668 0.636622 0.356038 0.552659
C107  C     C_R   0.761124 0.141644 0.642098 0.560663
C108  C     C_R   0.239671 0.136604 0.356028 0.552623
C109  C     C_3   0.474460 0.903890 0.038287 0.379141
C110  C     C_R   0.295936 0.523561 0.960141 0.396129
C111  C     C_3   0.512745 0.917504 0.967722 0.358945
C112  C     C_3   0.974461 0.403890 0.038286 0.379140
C113  C     C_3   0.012745 0.417503 0.967722 0.358943
C114  C     C_3   0.429327 0.800119 0.007502 -0.080676
C115  C     C_3   0.569028 0.824413 0.992935 -0.103261
C116  C     C_3   0.929326 0.300120 0.007502 -0.080676
C117  C     C_3   0.069028 0.324412 0.992935 -0.103260
C118  C     C_3   0.467514 0.814962 0.936693 -0.030558
C119  C     C_3   0.530749 0.812706 0.063735 -0.039018
C120  C     C_3   0.967514 0.314962 0.936693 -0.030558
Cr1   Cr    Cr6+3 0.229630 0.835900 0.747350 1.104661
Cr2   Cr    Cr6+3 0.614200 0.677120 0.250660 1.129059
Cr3   Cr    Cr6+3 0.885800 0.177120 0.749340 1.127957
Cr4   Cr    Cr6+3 0.114200 0.177120 0.250660 1.129070
Cr5   Cr    Cr6+3 0.770370 0.835900 0.252650 1.109834
Cr6   Cr    Cr6+3 0.729630 0.335900 0.747350 1.104635
Cr7   Cr    Cr6+3 0.270370 0.335900 0.252650 1.109812
Cr8   Cr    Cr6+3 0.387410 0.989850 0.750850 1.123583
Cr9   Cr    Cr6+3 0.612590 0.989850 0.249150 1.140373
Cr10  Cr    Cr6+3 0.887410 0.489850 0.750850 1.123633
Cr11  Cr    Cr6+3 0.112590 0.489850 0.249150 1.140416
Cr12  Cr    Cr6+3 0.385800 0.677120 0.749340 1.127931
F1    F     F_    0.450680 0.994686 0.081447 -0.629051
F2    F     F_    0.675568 0.407541 0.939573 -0.598244
F3    F     F_    0.836751 0.939333 0.067408 -0.604106
F4    F     F_    0.175567 0.907541 0.939573 -0.598244
F5    F     F_    0.420983 0.637977 0.551093 -0.583428
F6    F     F_    0.440360 0.649206 0.412023 -0.567937
F7    F     F_    0.921133 0.137803 0.551114 -0.583354
F8    F     F_    0.940477 0.149032 0.412047 -0.567900
F9    F     F_    0.566125 0.027192 0.442945 -0.570203
F10   F     F_    0.544987 0.016344 0.583733 -0.562312
F11   F     F_    0.065870 0.527388 0.442883 -0.570105
F12   F     F_    0.519409 0.026870 0.934106 -0.639271
F13   F     F_    0.044722 0.516581 0.583668 -0.562290
F14   F     F_    0.950681 0.494687 0.081447 -0.629050
F15   F     F_    0.019410 0.526869 0.934105 -0.639274
F16   F     F_    0.358626 0.493206 0.931436 -0.590274
F17   F     F_    0.650408 0.470296 0.074020 -0.579154
F18   F     F_    0.858626 0.993206 0.931436 -0.590271
F19   F     F_    0.150408 0.970296 0.074020 -0.579151
F20   F     F_    0.336751 0.439334 0.067408 -0.604104
H1    H     H_    0.201445 0.788404 0.546941 0.145396
H2    H     H_    0.637319 0.558307 0.443808 0.183496
H3    H     H_    0.813898 0.946575 0.572739 0.149423
H4    H     H_    0.137310 0.058431 0.443815 0.183526
H5    H     H_    0.859786 0.629688 0.426590 0.162592
H6    H     H_    0.701420 0.288397 0.546940 0.145366
H7    H     H_    0.359830 0.129291 0.426503 0.162451
H8    H     H_    0.307375 0.414711 0.445863 0.155273
H9    H     H_    0.651689 0.528333 0.570595 0.158557
H10   H     H_    0.807430 0.914780 0.445850 0.155300
H11   H     H_    0.151699 0.028448 0.570597 0.158597
H12   H     H_    0.313844 0.446508 0.572753 0.149344
N1    N     N_1   0.296276 0.781963 0.037905 -0.281830
N2    N     N_1   0.471068 0.492417 0.091716 -0.094895
N3    N     N_1   0.067077 0.032556 0.888706 -0.132077
N4    N     N_1   0.971066 0.992419 0.091718 -0.094892
N5    N     N_1   0.055971 0.681315 0.080957 -0.117332
N6    N     N_1   0.925436 0.735168 0.911820 -0.106296
N7    N     N_1   0.555971 0.181315 0.080957 -0.117340
N8    N     N_1   0.425435 0.235169 0.911820 -0.106305
N9    N     N_1   0.077320 0.730880 0.884297 -0.104026
N10   N     N_1   0.919349 0.745237 0.111497 -0.105440
N11   N     N_1   0.577320 0.230879 0.884297 -0.104032
N12   N     N_1   0.702175 0.805244 0.962556 -0.327605
N13   N     N_1   0.419349 0.245237 0.111497 -0.105455
N14   N     N_1   0.796276 0.281964 0.037906 -0.281834
N15   N     N_1   0.202175 0.305243 0.962556 -0.327611
N16   N     N_1   0.154223 0.849690 0.373736 -0.244060
N17   N     N_1   0.937964 0.703707 0.578785 -0.146920
N18   N     N_1   0.654200 0.349679 0.373731 -0.244191
N19   N     N_1   0.438155 0.203018 0.578678 -0.146898
N20   N     N_1   0.567078 0.532558 0.888705 -0.132091
O1    O     O_R   0.214270 0.709000 0.827470 -0.506138
O2    O     O_R   0.543270 0.717630 0.330160 -0.452086
O3    O     O_R   0.956730 0.217630 0.669840 -0.449743
O4    O     O_R   0.043270 0.217630 0.330160 -0.452044
O5    O     O_R   0.320620 0.625640 0.672920 -0.473029
O6    O     O_R   0.679380 0.625640 0.327080 -0.495617
O7    O     O_R   0.820620 0.125640 0.672920 -0.473123
O8    O     O_R   0.179380 0.125640 0.327080 -0.495626
O9    O     O_3   0.334280 0.834290 0.749180 -0.348218
O10   O     O_3   0.665720 0.834290 0.250820 -0.351719
O11   O     O_3   0.834280 0.334290 0.749180 -0.348240
O12   O     O_R   0.785730 0.709000 0.172530 -0.516064
O13   O     O_3   0.165720 0.334290 0.250820 -0.351743
O14   O     O_R   0.236160 0.958490 0.823130 -0.423799
O15   O     O_R   0.763840 0.958490 0.176870 -0.418144
O16   O     O_R   0.736160 0.458490 0.823130 -0.423810
O17   O     O_R   0.263840 0.458490 0.176870 -0.418131
O18   O     O_R   0.332080 0.075470 0.831280 -0.514389
O19   O     O_R   0.667920 0.075470 0.168720 -0.507893
O20   O     O_R   0.832080 0.575470 0.831280 -0.514391
O21   O     O_R   0.167920 0.575470 0.168720 -0.507874
O22   O     O_R   0.446300 0.918110 0.826620 -0.445926
O23   O     O_R   0.714270 0.209000 0.827470 -0.506129
O24   O     O_R   0.553700 0.918110 0.173380 -0.451961
O25   O     O_R   0.946300 0.418110 0.826620 -0.445936
O26   O     O_R   0.053700 0.418110 0.173380 -0.451956
O27   O     O_R   0.457110 0.716200 0.831760 -0.492179
O28   O     O_R   0.542890 0.716200 0.168240 -0.489916
O29   O     O_R   0.957110 0.216200 0.831760 -0.492174
O30   O     O_R   0.042890 0.216200 0.168240 -0.489921
O31   O     O_R   0.320980 0.624310 0.823030 -0.456203
O32   O     O_R   0.679020 0.624310 0.176970 -0.454823
O33   O     O_R   0.820980 0.124310 0.823030 -0.456188
O34   O     O_R   0.285730 0.209000 0.172530 -0.516074
O35   O     O_R   0.179020 0.124310 0.176970 -0.454820
O36   O     O_R   0.213890 0.710430 0.665540 -0.500598
O37   O     O_R   0.786110 0.710430 0.334460 -0.521353
O38   O     O_R   0.713890 0.210430 0.665540 -0.500524
O39   O     O_R   0.286110 0.210430 0.334460 -0.521354
O40   O     O_R   0.235810 0.959820 0.673020 -0.507562
O41   O     O_R   0.764190 0.959820 0.326980 -0.501338
O42   O     O_R   0.735810 0.459820 0.673020 -0.507601
O43   O     O_R   0.264190 0.459820 0.326980 -0.501297
O44   O     O_R   0.331700 0.076900 0.669350 -0.505473
O45   O     O_R   0.445950 0.919440 0.676520 -0.456761
O46   O     O_R   0.668300 0.076900 0.330650 -0.451769
O47   O     O_R   0.831700 0.576900 0.669350 -0.505441
O48   O     O_R   0.168300 0.576900 0.330650 -0.451855
O49   O     O_R   0.554050 0.919440 0.323480 -0.445119
O50   O     O_R   0.945950 0.419440 0.676520 -0.456652
O51   O     O_R   0.054050 0.419440 0.323480 -0.445062
O52   O     O_R   0.456730 0.717630 0.669840 -0.449789

loop_
_geom_bond_atom_site_label_1
_geom_bond_atom_site_label_2
_ccdc_geom_bond_type
Cr11  O48   S    
C83   C87   A    
C83   H12   S    
Cr8   O45   S    
C53   C58   A    
C78   C82   A    
C28   F3    S    
C81   H10   S    
C7    C117  S    
C97   O41   A    
C1    O14   A    
C112  C116  S    
C72   C76   A    
C45   C93   S    
Cr9   O10   S    
C11   N19   T    
Cr4   O30   S    
C3    C64   S    
Cr7   O39   S    
C52   C102  S    
C102  O2    A    
C30   C35   A    
C111  C118  S    
C96   O44   A    
C54   C104  S    
Cr11  O13   S    
Cr2   O10   S    
C90   C107  S    
C38   C42   A    
C86   C91   A    
C109  C111  S    
C85   H3    S    
C13   C46   A    
C17   N5    T    
Cr2   O2    S    
C106  O37   A    
C23   N11   T    
C82   H11   S    
C33   O15   A    
C65   C70   A    
C55   O17   A    
C67   C89   A    
C95   O34   A    
C4    N1    T    
C92   O31   A    
C61   O27   A    
C14   C77   S    
Cr1   O9    S    
C86   H4    S    
C24   C29   A    
C65   H1    S    
C19   C37   S    
C69   H7    S    
C84   H2    S    
Cr6   O11   S    
C104  O51   A    
C53   C101  S    
C96   O40   A    
C87   C105  S    
C89   C106  S    
C70   C74   A    
C95   O35   A    
C41   C46   A    
C13   C28   A    
C69   C73   A    
C2    C27   A    
C43   C110  A    
Cr5   O10   S    
C88   C120  S    
C3    C117  S    
C75   C80   A    
C26   C110  A    
C112  F14   S    
C80   C84   A    
C61   O22   A    
C107  O38   A    
C51   F8    S    
C49   C52   A    
C2    F17   S    
C84   C89   A    
Cr3   O33   S    
Cr4   O35   S    
C59   F11   S    
C59   C60   A    
C34   C38   A    
C49   F6    S    
C5    C115  S    
C93   O32   A    
Cr7   O43   S    
C24   C47   A    
C15   N3    T    
Cr6   O42   S    
Cr12  O27   S    
Cr8   O22   S    
C63   O25   A    
C109  C114  S    
Cr5   O41   S    
C1    O18   A    
Cr7   O13   S    
C62   O24   A    
C112  C113  S    
C22   N10   T    
C1    C34   S    
Cr2   O6    S    
C54   C59   A    
C18   N6    T    
C2    C45   A    
C48   C53   A    
C55   O21   A    
C104  O4    A    
C71   C75   A    
C66   C115  S    
C27   C31   A    
C105  O5    A    
C36   C40   A    
C103  O3    A    
Cr8   O9    S    
Cr10  O11   S    
C64   O30   A    
C78   C96   S    
C79   H8    S    
Cr4   O4    S    
C108  O39   A    
C92   O1    A    
C74   C100  S    
Cr5   O12   S    
Cr11  O51   S    
C76   C97   S    
C82   C86   A    
C73   C78   A    
C12   C66   S    
C29   C34   A    
C33   O19   A    
C94   O33   A    
C50   C56   A    
C116  C120  S    
Cr9   O49   S    
C68   C72   A    
Cr9   O19   S    
C76   C81   A    
C100  O43   A    
C35   C39   A    
C24   F19   S    
C64   O26   A    
C113  C120  S    
C20   C38   S    
C8    N16   T    
C68   C90   A    
C97   O46   A    
C21   C39   S    
C28   C32   A    
C3    C112  S    
Cr8   O44   S    
C105  O36   A    
C22   C40   S    
Cr11  O26   S    
C50   C51   A    
C7    N15   T    
C67   H5    S    
Cr12  O31   S    
Cr8   O18   S    
C32   C37   A    
C63   O29   A    
C65   C87   A    
Cr7   O17   S    
C6    C116  S    
C62   C119  S    
C114  C118  S    
C111  F12   S    
C113  C117  S    
C48   F5    S    
C48   C49   A    
C20   N8    T    
C26   C30   A    
C103  O50   A    
C115  C119  S    
C74   C79   A    
Cr3   O29   S    
C11   C73   S    
Cr12  O9    S    
C10   N18   T    
Cr1   O36   S    
Cr2   O28   S    
C31   C44   S    
C14   N2    T    
C60   F13   S    
C106  O6    A    
Cr3   O7    S    
C77   C114  S    
Cr11  O21   S    
C37   C41   A    
Cr4   O8    S    
Cr10  O20   S    
C109  C119  S    
Cr9   O46   S    
Cr6   O16   S    
Cr9   O24   S    
C66   C77   S    
C101  O45   A    
C62   O28   A    
C58   F10   S    
C46   C94   S    
C61   C118  S    
C50   F7    S    
C27   F2    S    
C8    C70   S    
C91   C108  S    
C94   O23   A    
C9    C71   S    
C56   C103  S    
C19   N7    T    
C77   C119  S    
Cr10  O50   S    
C25   C42   S    
C13   F18   S    
C39   C43   A    
C85   C90   A    
Cr6   O38   S    
C16   C99   S    
C44   O16   A    
Cr5   O37   S    
C99   C116  S    
C30   C55   S    
Cr10  O25   S    
C21   N9    T    
C43   C92   S    
C23   C41   S    
C57   F9    S    
Cr6   O23   S    
C51   C54   A    
C32   C33   S    
C113  F15   S    
C26   F20   S    
C88   C117  S    
C68   H6    S    
C79   C83   A    
C63   C120  S    
Cr3   O11   S    
C57   C58   A    
C12   N20   T    
Cr10  O47   S    
C16   N4    T    
C93   O12   A    
Cr4   O13   S    
C5    N12   T    
Cr1   O40   S    
Cr2   O32   S    
C67   C71   A    
C42   C47   A    
C75   C98   S    
C109  F1    S    
Cr3   O3    S    
C81   C85   A    
C80   H9    S    
C110  F16   S    
C88   C99   S    
C9    N17   T    
C52   C57   A    
C4    C114  S    
Cr1   O1    S    
C98   O47   A    
Cr12  O52   S    
C3    C99   S    
C29   F4    S    
C56   C60   A    
C40   C45   A    
Cr5   O15   S    
C102  O49   A    
C66   C118  S    
C101  O52   A    
C107  O7    A    
C44   O20   A    
C47   C95   S    
C31   C36   A    
C108  O8    A    
C100  O48   A    
C111  C115  S    
C17   C35   S    
Cr1   O14   S    
C69   C91   A    
C25   N13   T    
C18   C36   S    
Cr12  O5    S    
C6    N14   T    
Cr7   O34   S    
C15   C88   S    
C98   O42   A    
C10   C72   S    
