data_mof_unit_49749.cif
_audit_creation_date              2012-12-10T19:24:55-0500
_audit_creation_method            fapswitch 2.2
_symmetry_space_group_name_H-M    P1
_symmetry_Int_Tables_number       1
_space_group_crystal_system       triclinic
_cell_length_a                    15.703111
_cell_length_b                    10.477725
_cell_length_c                    9.753683
_cell_angle_alpha                 90.280909
_cell_angle_beta                  89.922964
_cell_angle_gamma                 90.21755
_cell_volume                      1604.76927572

loop_
_atom_site_label
_atom_site_type_symbol
_atom_type_description
_atom_site_fract_x
_atom_site_fract_y
_atom_site_fract_z
_atom_type_partial_charge
C1    C     C_R   0.500461 0.257680 0.499638 0.862269
C2    C     C_R   0.499536 0.742319 0.500362 0.862262
C3    C     C_3   0.579088 0.956682 0.472194 -0.250789
C4    C     C_3   0.420901 0.043317 0.527805 -0.250794
C5    C     C_3   0.498990 0.877202 0.500865 -0.009920
C6    C     C_3   0.501001 0.122798 0.499134 -0.009915
C7    C     C_3   0.474670 0.959571 0.625125 -0.206939
C8    C     C_3   0.525319 0.040428 0.374873 -0.206932
C9    C     C_3   0.523291 0.390320 0.047929 -0.066437
C10   C     C_3   0.476709 0.609679 0.952071 -0.066433
C11   C     C_3   0.575052 0.475733 0.951028 -0.063499
C12   C     C_3   0.424948 0.524266 0.048972 -0.063491
C13   C     C_3   0.448188 0.414606 0.951051 -0.077329
C14   C     C_3   0.551812 0.585394 0.048949 -0.077326
C15   C     C_R   0.338090 0.499938 0.500006 0.900461
C16   C     C_R   0.661910 0.500057 0.499994 0.900474
C17   C     C_3   0.968976 0.412159 0.587284 -0.220086
C18   C     C_3   0.031025 0.587793 0.412758 -0.220078
C19   C     C_3   0.023006 0.383332 0.458730 0.070285
C20   C     C_3   0.976997 0.616620 0.541314 0.070286
C21   C     C_1   0.249240 0.497790 0.499794 -0.209681
C22   C     C_1   0.750760 0.502190 0.500212 -0.209661
C23   C     C_3   0.030459 0.522756 0.626707 -0.211854
C24   C     C_3   0.969544 0.477196 0.373335 -0.211842
C25   C     C_3   0.083129 0.493074 0.497791 0.157354
C26   C     C_3   0.916873 0.506879 0.502252 0.157356
C27   C     C_1   0.173947 0.495192 0.498816 -0.106940
C28   C     C_1   0.826054 0.504775 0.501206 -0.106928
C29   C     C_3   0.554295 0.041213 0.595267 0.064600
C30   C     C_3   0.445695 0.958785 0.404731 0.064597
H1    H     H_    0.942746 0.340439 0.659404 0.124645
H2    H     H_    0.057258 0.659511 0.340639 0.124644
H3    H     H_    0.943242 0.458993 0.269406 0.138232
H4    H     H_    0.056762 0.540958 0.730635 0.138245
H5    H     H_    0.643185 0.916692 0.450926 0.131330
H6    H     H_    0.356804 0.083306 0.549070 0.131305
H7    H     H_    0.453018 0.921268 0.725252 0.129781
H8    H     H_    0.546969 0.078727 0.274743 0.129781
H9    H     H_    0.638245 0.455300 0.904960 0.138836
H10   H     H_    0.361754 0.544701 0.095039 0.138834
H11   H     H_    0.542766 0.297947 0.093228 0.118020
H12   H     H_    0.457234 0.702054 0.906772 0.118020
H13   H     H_    0.404700 0.342622 0.904769 0.122458
H14   H     H_    0.595301 0.657377 0.095230 0.122459
N1    N     N_3   0.499940 0.500030 0.863290 -0.075497
N2    N     N_3   0.500060 0.499970 0.136710 -0.075494
O1    O     O_R   0.500000 0.313960 0.616610 -0.610964
O2    O     O_R   0.500000 0.686040 0.383390 -0.610958
O3    O     O_R   0.500040 0.313950 0.383350 -0.631525
O4    O     O_R   0.499960 0.686050 0.616650 -0.631526
O5    O     O_R   0.376760 0.499990 0.616610 -0.617722
O6    O     O_R   0.623240 0.500010 0.383390 -0.617718
O7    O     O_R   0.376790 0.499980 0.383350 -0.610512
O8    O     O_R   0.623210 0.500020 0.616650 -0.610518
Zn1   Zn    Zn3+2 0.499980 0.500010 0.655740 0.942899
Zn2   Zn    Zn3+2 0.500020 0.499990 0.344260 0.942906
C31   C     C_R   0.040328 0.248754 0.410829 0.109468
C32   C     C_R   0.971161 0.169241 0.376657 -0.167914
C33   C     C_R   0.984911 0.044362 0.330690 -0.106341
C34   C     C_R   0.067781 0.997599 0.318854 -0.093102
C35   C     C_R   0.136904 0.075579 0.353349 -0.149858
C36   C     C_R   0.123438 0.200511 0.399231 -0.169217
H15   H     H_    0.906510 0.204025 0.385746 0.125414
H16   H     H_    0.931289 0.983641 0.305009 0.129065
H17   H     H_    0.078396 0.900865 0.283635 0.117233
H18   H     H_    0.201096 0.039470 0.344511 0.148592
H19   H     H_    0.178191 0.257882 0.425263 0.137680
C37   C     C_R   0.959688 0.751194 0.589233 0.109446
C38   C     C_R   0.028869 0.830737 0.623256 -0.167916
C39   C     C_R   0.015134 0.955613 0.669243 -0.106281
C40   C     C_R   0.932264 0.002343 0.681264 -0.093169
C41   C     C_R   0.863125 0.924326 0.646935 -0.149826
C42   C     C_R   0.876576 0.799398 0.601032 -0.169177
H20   H     H_    0.093521 0.795976 0.614023 0.125412
H21   H     H_    0.068768 0.016362 0.694805 0.129083
H22   H     H_    0.921661 0.099073 0.716504 0.117226
H23   H     H_    0.798932 0.960409 0.655942 0.148648
H24   H     H_    0.821809 0.741988 0.575147 0.137683
C43   C     C_R   0.616538 0.094426 0.698210 0.127960
C44   C     C_R   0.607152 0.069668 0.838888 -0.145456
C45   C     C_R   0.664537 0.122131 0.933295 -0.154203
C46   C     C_R   0.731338 0.199816 0.888134 -0.131725
C47   C     C_R   0.740938 0.225052 0.748437 -0.142508
C48   C     C_R   0.683985 0.172308 0.653642 -0.151332
H25   H     H_    0.555604 0.010435 0.876127 0.108311
H26   H     H_    0.656983 0.102971 0.041600 0.117792
H27   H     H_    0.775498 0.240731 0.961394 0.122959
H28   H     H_    0.792484 0.285479 0.713580 0.128324
H29   H     H_    0.692104 0.192710 0.545640 0.107262
C49   C     C_R   0.383456 0.905556 0.301789 0.127946
C50   C     C_R   0.316038 0.827613 0.346350 -0.151288
C51   C     C_R   0.259102 0.774831 0.251558 -0.142477
C52   C     C_R   0.268686 0.800094 0.111862 -0.131721
C53   C     C_R   0.335455 0.877838 0.066708 -0.154162
C54   C     C_R   0.392825 0.930343 0.161113 -0.145485
H30   H     H_    0.307933 0.807179 0.454352 0.107216
H31   H     H_    0.207583 0.714344 0.286414 0.128327
H32   H     H_    0.224542 0.759143 0.038604 0.122959
H33   H     H_    0.342998 0.897013 0.958406 0.117789
H34   H     H_    0.444346 0.989613 0.123882 0.108327

loop_
_geom_bond_atom_site_label_1
_geom_bond_atom_site_label_2
_ccdc_geom_bond_type
C4    H6    S    
C52   C53   A    
C7    C29   S    
C10   H12   S    
C30   C49   S    
C45   C46   A    
C49   C50   A    
C31   C36   A    
C14   N2    S    
C19   C31   S    
C33   H16   S    
C17   C23   S    
C36   H19   S    
C18   C24   S    
C17   C26   S    
C15   O7    A    
O1    Zn1   S    
C24   C26   S    
C38   C39   A    
C43   C48   A    
C11   C14   S    
C46   H27   S    
C3    C29   S    
C9    C13   S    
C2    O4    A    
C41   H23   S    
C50   H30   S    
C35   H18   S    
C37   C38   A    
O4    Zn1   S    
C42   H24   S    
C39   C40   A    
C15   O5    A    
O5    Zn1   S    
C45   H26   S    
C41   C42   A    
C47   H28   S    
C21   C27   T    
C9    N2    S    
C22   C28   T    
C53   C54   A    
C18   C25   S    
C8    H8    S    
C4    C7    S    
C51   H31   S    
C1    C6    S    
C49   C54   A    
C12   N2    S    
C3    C8    S    
C10   C14   S    
C50   C51   A    
C5    C7    S    
C54   H34   S    
C1    O1    A    
C6    C8    S    
C2    O2    A    
C32   C33   A    
C34   C35   A    
C12   H10   S    
C44   H25   S    
C47   C48   A    
C29   C43   S    
C20   C23   S    
C3    H5    S    
C23   H4    S    
C10   N1    S    
C7    H7    S    
C38   H20   S    
C11   H9    S    
C9    C11   S    
C10   C12   S    
C4    C6    S    
C34   H17   S    
C17   H1    S    
C11   N1    S    
C2    C5    S    
C18   H2    S    
C48   H29   S    
C13   H13   S    
C14   H14   S    
C5    C30   S    
O7    Zn2   S    
C32   H15   S    
O2    Zn2   S    
O8    Zn1   S    
C16   C22   S    
C9    H11   S    
C20   C37   S    
C16   O6    A    
C44   C45   A    
C3    C5    S    
C25   C27   S    
O3    Zn2   S    
C26   C28   S    
C24   H3    S    
C8    C30   S    
C19   C24   S    
C37   C42   A    
C40   C41   A    
C13   N1    S    
C31   C32   A    
C40   H22   S    
C15   C21   S    
C20   C26   S    
C53   H33   S    
C51   C52   A    
C17   C19   S    
C18   C20   S    
C23   C25   S    
C35   C36   A    
C19   C25   S    
C16   O8    A    
C43   C44   A    
C33   C34   A    
C6    C29   S    
C12   C13   S    
N1    Zn1   S    
C46   C47   A    
N2    Zn2   S    
C39   H21   S    
C1    O3    A    
C52   H32   S    
C4    C30   S    
O6    Zn2   S    
