data_mof_unit_7219.cif
_audit_creation_date              2012-12-10T18:50:44-0500
_audit_creation_method            fapswitch 2.2
_symmetry_space_group_name_H-M    P1
_symmetry_Int_Tables_number       1
_space_group_crystal_system       triclinic
_cell_length_a                    10.66838
_cell_length_b                    9.916487
_cell_length_c                    15.735374
_cell_angle_alpha                 90.090136
_cell_angle_beta                  91.170858
_cell_angle_gamma                 90.115426
_cell_volume                      1664.33696185

loop_
_atom_site_label
_atom_site_type_symbol
_atom_type_description
_atom_site_fract_x
_atom_site_fract_y
_atom_site_fract_z
_atom_type_partial_charge
C1    C     C_R   0.260149 0.499948 0.499810 0.976379
C2    C     C_3   0.654172 0.554637 0.952213 0.881909
C3    C     C_3   0.654650 0.532320 0.052936 0.711780
C4    C     C_1   0.512695 0.504781 0.825747 0.025580
C5    C     C_1   0.509785 0.501775 0.174452 0.057242
C6    C     C_1   0.504536 0.500125 0.249622 -0.113592
C7    C     C_R   0.061670 0.409340 0.446652 0.382088
C8    C     C_R   0.065783 0.591572 0.553165 0.393122
C9    C     C_R   0.932206 0.409205 0.448204 -0.280779
C10   C     C_R   0.936096 0.591807 0.552090 -0.301738
C11   C     C_R   0.871496 0.500389 0.500298 -0.099083
C12   C     C_R   0.127168 0.500105 0.499952 -0.122518
C13   C     C_R   0.565078 0.071971 0.560923 -0.167822
C14   C     C_R   0.565116 0.928604 0.560910 -0.164809
C15   C     C_R   0.499987 0.499926 0.338408 0.899652
C16   C     C_R   0.435239 0.928527 0.438424 0.499953
C17   C     C_R   0.435445 0.070694 0.438343 0.487344
C18   C     C_R   0.739474 0.500139 0.500364 0.908738
C19   C     C_R   0.500322 0.500158 0.661602 0.902700
C20   C     C_3   0.426655 0.617775 0.047900 0.155595
C21   C     C_3   0.465985 0.368754 0.046437 0.151195
C22   C     C_3   0.487148 0.366035 0.949807 -0.581139
C23   C     C_3   0.419777 0.609582 0.949819 -0.425907
C24   C     C_1   0.506014 0.501241 0.750469 -0.186069
C25   C     C_3   0.516176 0.505118 0.082843 0.025487
C26   C     C_3   0.519950 0.509689 0.917365 0.001618
H1    H     H_    0.324646 0.574316 0.929308 0.153821
H2    H     H_    0.400208 0.327473 0.917611 0.195539
H3    H     H_    0.329917 0.600993 0.071808 0.103091
H4    H     H_    0.363021 0.363027 0.057704 0.129997
H5    H     H_    0.563570 0.294606 0.934000 0.244779
H6    H     H_    0.432138 0.711328 0.921505 0.244983
H7    H     H_    0.878712 0.340661 0.407674 0.168936
H8    H     H_    0.885580 0.660649 0.592584 0.145216
H9    H     H_    0.617331 0.125966 0.609849 0.173783
H10   H     H_    0.617398 0.875059 0.609828 0.160025
N1    N     N_R   0.499970 0.857200 0.499980 -0.166122
N2    N     N_R   0.499970 0.142800 0.499980 -0.175516
O1    O     O_R   0.316750 0.614620 0.499990 -0.608522
O2    O     O_R   0.316750 0.385380 0.499990 -0.618965
O3    O     O_R   0.499990 0.614720 0.377140 -0.624619
O4    O     O_R   0.499990 0.385280 0.377140 -0.603416
O5    O     O_R   0.683220 0.614710 0.500000 -0.617161
O6    O     O_R   0.683220 0.385290 0.500000 -0.618579
O7    O     O_R   0.499980 0.614620 0.622860 -0.613474
O8    O     O_R   0.499980 0.385380 0.622860 -0.616987
Zn1   Zn    Zn3+2 0.499980 0.653120 0.500000 0.977993
Zn2   Zn    Zn3+2 0.499980 0.346880 0.500000 0.979355
O9    O     O_3   0.365983 0.865551 0.375235 -0.713996
H11   H     H_    0.342844 0.775602 0.395485 0.370403
O10   O     O_3   0.366552 0.132886 0.375015 -0.686286
H12   H     H_    0.346220 0.223876 0.394586 0.402311
O11   O     O_3   0.523388 0.257469 0.086497 -0.695095
H13   H     H_    0.474442 0.176477 0.068914 0.367368
O12   O     O_3   0.467625 0.747053 0.073005 -0.656344
H14   H     H_    0.439810 0.761167 0.132170 0.357777
O13   O     O_3   0.701189 0.650657 0.092689 -0.678110
H15   H     H_    0.725997 0.628493 0.152199 0.355821
O14   O     O_3   0.733773 0.424469 0.078491 -0.757878
H16   H     H_    0.720398 0.346678 0.039894 0.379852
O15   O     O_3   0.674998 0.695810 0.937007 -0.558384
C27   C     C_3   0.689414 0.731874 0.850673 -0.268062
H17   H     H_    0.726836 0.650605 0.809875 0.171165
H18   H     H_    0.756270 0.817457 0.847893 0.184616
H19   H     H_    0.598629 0.767780 0.823648 0.163210
O16   O     O_3   0.747599 0.473376 0.913037 -0.684172
C28   C     C_3   0.871943 0.516451 0.932320 -0.231384
H20   H     H_    0.928891 0.426955 0.950047 0.188207
H21   H     H_    0.880538 0.590419 0.985339 0.219527
H22   H     H_    0.913536 0.561330 0.874814 0.160613
O17   O     O_3   0.125694 0.325368 0.392483 -0.757813
H23   H     H_    0.064827 0.268907 0.359781 0.356878
O18   O     O_3   0.134139 0.676591 0.606379 -0.752508
H24   H     H_    0.075737 0.733187 0.639224 0.331204

loop_
_geom_bond_atom_site_label_1
_geom_bond_atom_site_label_2
_ccdc_geom_bond_type
C4    C26   S    
O12   H14   S    
C19   O7    A    
C11   C18   S    
C13   H9    S    
C27   H17   S    
O10   H12   S    
C18   O6    A    
N1    Zn1   S    
C21   H4    S    
N2    Zn2   S    
C21   C22   S    
C27   H19   S    
C20   C23   S    
C3    C25   S    
C16   N1    A    
C8    C12   A    
C28   H22   S    
C23   H6    S    
C17   O10   S    
C27   H18   S    
C2    C3    S    
O3    Zn1   S    
C19   O8    A    
O14   H16   S    
C2    C26   S    
O4    Zn2   S    
O11   H13   S    
C16   O9    S    
C14   N1    A    
C21   O11   S    
C9    C11   A    
O13   H15   S    
C5    C6    T    
C1    C12   S    
C9    H7    S    
C20   O12   S    
C5    C25   S    
C3    O13   S    
O1    Zn1   S    
C8    O18   S    
C13   N2    A    
C19   C24   S    
C23   H1    S    
C20   H3    S    
O7    Zn1   S    
C7    O17   S    
O15   C27   S    
C4    C24   T    
O8    Zn2   S    
C7    C12   A    
C6    C15   S    
C10   C11   A    
C1    O1    A    
C22   C26   S    
C13   C14   A    
C10   H8    S    
O6    Zn2   S    
O17   H23   S    
O16   C28   S    
C17   N2    A    
C15   O3    A    
C20   C25   S    
C8    C10   A    
O9    H11   S    
O18   H24   S    
C23   C26   S    
C7    C9    A    
C21   C25   S    
O2    Zn2   S    
C14   H10   S    
C22   H2    S    
C1    O2    A    
C2    O16   S    
C22   H5    S    
C18   O5    A    
O5    Zn1   S    
C28   H20   S    
C15   O4    A    
C16   C17   A    
C28   H21   S    
C2    O15   S    
C3    O14   S    
