data_mof_unit_56257.cif
_audit_creation_date              2012-12-10T19:08:04-0500
_audit_creation_method            fapswitch 2.2
_symmetry_space_group_name_H-M    P1
_symmetry_Int_Tables_number       1
_space_group_crystal_system       triclinic
_cell_length_a                    9.073668
_cell_length_b                    10.804039
_cell_length_c                    9.56927
_cell_angle_alpha                 90.343094
_cell_angle_beta                  90.203154
_cell_angle_gamma                 90.519408
_cell_volume                      938.035748767

loop_
_atom_site_label
_atom_site_type_symbol
_atom_type_description
_atom_site_fract_x
_atom_site_fract_y
_atom_site_fract_z
_atom_type_partial_charge
C1    C     C_R   0.508111 0.262570 0.499676 0.816680
C2    C     C_R   0.573193 0.933267 0.383543 -0.201407
C3    C     C_R   0.519951 0.870653 0.501622 -0.182896
C4    C     C_R   0.495400 0.937508 0.623924 0.116059
C5    C     C_3   0.368026 0.933280 0.722259 -0.432947
C6    C     C_3   0.371883 0.073884 0.721417 -0.418736
C7    C     C_R   0.577887 0.587817 0.074500 0.199193
C8    C     C_R   0.410674 0.421559 0.071627 0.348924
C9    C     C_R   0.411669 0.421845 0.923512 -0.098089
C10   C     C_R   0.577749 0.587870 0.927377 0.240813
C11   C     C_3   0.739848 0.611246 0.922232 -0.471598
C12   C     C_R   0.220753 0.499892 0.499832 0.863260
C13   C     C_3   0.740015 0.611029 0.080886 -0.472027
C14   C     C_R   0.502923 0.737603 0.500329 0.812108
C15   C     C_R   0.779247 0.500100 0.500167 0.823936
C16   C     C_1   0.065564 0.499943 0.499767 -0.163730
C17   C     C_1   0.934420 0.500022 0.500203 -0.180885
C18   C     C_R   0.498868 0.064556 0.623029 0.083397
C19   C     C_R   0.529998 0.129613 0.500792 -0.210112
C20   C     C_R   0.583238 0.062536 0.383271 0.410045
Cu1   Cu    Cu3+1 0.499990 0.499980 0.640670 0.950345
Cu2   Cu    Cu3+1 0.500010 0.500020 0.359330 0.992494
H1    H     H_    0.766813 0.703309 0.877286 0.197478
H2    H     H_    0.801941 0.532095 0.125368 0.231242
H3    H     H_    0.767212 0.702936 0.127535 0.197223
H4    H     H_    0.605970 0.882344 0.290984 0.178788
H5    H     H_    0.266807 0.892988 0.673593 0.193653
H6    H     H_    0.398839 0.893393 0.825016 0.207414
H7    H     H_    0.272864 0.115506 0.672314 0.196497
H8    H     H_    0.404942 0.114959 0.823743 0.220411
H9    H     H_    0.342376 0.357271 0.865933 0.164917
H10   H     H_    0.801770 0.532514 0.876648 0.226185
N1    N     N_R   0.500920 0.500930 0.147930 -0.211564
N2    N     N_R   0.500930 0.500890 0.852020 -0.206895
O1    O     O_R   0.500000 0.319640 0.618810 -0.583396
O2    O     O_R   0.500020 0.319680 0.381230 -0.528349
O3    O     O_R   0.288380 0.499980 0.618770 -0.587829
O4    O     O_R   0.288400 0.500020 0.381190 -0.537056
O5    O     O_R   0.499980 0.680320 0.618770 -0.577370
O6    O     O_R   0.500000 0.680360 0.381190 -0.586821
O7    O     O_R   0.711600 0.499980 0.618810 -0.581677
O8    O     O_R   0.711620 0.500020 0.381230 -0.587430
O9    O     O_3   0.641323 0.118345 0.266358 -0.696170
H11   H     H_    0.693798 0.194698 0.296695 0.332755
Br1   Br    Br    0.279403 0.304692 0.156568 -0.486833

loop_
_geom_bond_atom_site_label_1
_geom_bond_atom_site_label_2
_ccdc_geom_bond_type
C7    C10   A    
O9    H11   S    
Cu1   O1    S    
C5    H6    S    
C11   C13   S    
C15   O8    A    
C19   C20   A    
Cu1   O5    S    
Cu2   O6    S    
C6    H7    S    
C2    C3    A    
C4    C18   A    
C10   N2    A    
Cu1   Cu2   S    
C7    N1    A    
C1    O1    A    
Cu2   O8    S    
C3    C14   S    
Cu1   O7    S    
C5    C6    S    
C11   H1    S    
C6    H8    S    
C11   H10   S    
C8    N1    A    
C1    O2    A    
C12   O4    A    
C9    N2    A    
C6    C18   S    
C1    C19   S    
C16   C17   T    
C10   C11   S    
C9    H9    S    
C2    C20   A    
C3    C4    A    
Cu2   O4    S    
C7    C13   S    
C20   O9    S    
Cu1   O3    S    
C15   O7    A    
C2    H4    S    
C18   C19   A    
C12   O3    A    
C15   C17   S    
Cu2   N1    S    
C8    Br1   S    
C8    C9    A    
Cu1   N2    S    
C14   O5    A    
C5    H5    S    
C14   O6    A    
Cu2   O2    S    
C12   C16   S    
C13   H2    S    
C4    C5    S    
C13   H3    S    
