data_mof_unit_7440.cif
_audit_creation_date              2012-12-11T17:35:47-0500
_audit_creation_method            fapswitch 2.2
_symmetry_space_group_name_H-M    P1
_symmetry_Int_Tables_number       1
_space_group_crystal_system       triclinic
_cell_length_a                    19.710719
_cell_length_b                    19.790258
_cell_length_c                    20.765173
_cell_angle_alpha                 107.771283
_cell_angle_beta                  106.895442
_cell_angle_gamma                 110.89284
_cell_volume                      6439.09234918

loop_
_atom_site_label
_atom_site_type_symbol
_atom_type_description
_atom_site_fract_x
_atom_site_fract_y
_atom_site_fract_z
_atom_type_partial_charge
C1    C     C_R   0.724483 0.718377 0.647675 0.485615
C2    C     C_R   0.457899 0.227664 0.462571 -0.065538
C3    C     C_R   0.507171 0.484667 0.726982 0.077062
C4    C     C_R   0.743549 0.498791 0.523225 0.058571
C5    C     C_R   0.584464 0.579530 0.357034 0.004783
C6    C     C_R   0.275720 0.429833 0.509286 -0.154253
C7    C     C_R   0.456132 0.692170 0.526566 -0.199187
C8    C     C_R   0.339959 0.309350 0.280814 0.463089
C9    C     C_R   0.267662 0.308226 0.345346 0.459002
C10   C     C_R   0.530415 0.699966 0.463273 0.496061
C11   C     C_R   0.515746 0.445932 0.292084 -0.056487
C12   C     C_R   0.430241 0.271747 0.501716 -0.208318
C13   C     C_R   0.341094 0.564706 0.570693 0.517822
C14   C     C_R   0.565256 0.515578 0.291542 -0.041211
C15   C     C_R   0.271906 0.495299 0.551704 -0.118353
C16   C     C_R   0.472964 0.719373 0.476710 -0.084456
C17   C     C_R   0.261359 0.280599 0.272527 -0.293597
C18   C     C_3   0.067042 0.507991 0.668365 -0.327527
C19   C     C_3   0.039074 0.562602 0.641194 0.476793
C20   C     C_1   0.816516 0.496419 0.553183 -0.043300
C21   C     C_1   0.212858 0.489275 0.578779 -0.024403
C22   C     C_3   0.978676 0.434128 0.616192 -0.339413
C23   C     C_R   0.527619 0.555186 0.718766 -0.030501
C24   C     C_3   0.952723 0.490024 0.589453 -0.102158
C25   C     C_3   0.001343 0.413135 0.549960 0.469077
C26   C     C_3   0.087705 0.485863 0.600900 -0.096816
C27   C     C_3   0.975351 0.467936 0.523561 0.264883
C28   C     C_3   0.060125 0.541194 0.575094 0.245611
C29   C     C_1   0.878139 0.493644 0.573866 0.122691
C30   C     C_1   0.158624 0.485885 0.594527 0.101962
C31   C     C_3   0.451640 0.948419 0.482171 -0.349524
C32   C     C_3   0.469412 0.981018 0.427592 0.654303
C33   C     C_1   0.427775 0.143260 0.438925 -0.036450
C34   C     C_R   0.668073 0.432129 0.473482 -0.122166
C35   C     C_1   0.436235 0.759142 0.445725 -0.030539
C36   C     C_3   0.376487 0.960780 0.467597 -0.357044
C37   C     C_3   0.395687 0.994322 0.413275 0.046624
C38   C     C_3   0.324062 0.875242 0.399242 0.666939
C39   C     C_3   0.398113 0.862739 0.413692 0.064339
C40   C     C_3   0.341792 0.909080 0.344223 -0.340525
C41   C     C_3   0.417348 0.896053 0.359271 -0.360654
C42   C     C_1   0.407731 0.073710 0.423147 0.007044
C43   C     C_1   0.412326 0.800195 0.425818 0.007031
C44   C     C_R   0.603296 0.520434 0.240263 0.150134
C45   C     C_R   0.459680 0.419127 0.654663 -0.142871
C46   C     C_R   0.591248 0.449597 0.184385 -0.168764
C47   C     C_R   0.616116 0.453442 0.128752 -0.161250
C48   C     C_R   0.653317 0.528519 0.128115 0.220270
C49   C     C_R   0.673790 0.599770 0.188636 -0.186831
C50   C     C_R   0.648398 0.595996 0.243930 -0.174253
C51   C     C_R   0.575367 0.537305 0.933236 -0.357559
C52   C     C_R   0.546621 0.541216 0.865191 0.535401
C53   C     C_R   0.596230 0.477047 0.936806 0.207134
C54   C     C_R   0.535767 0.481542 0.799026 -0.004322
C55   C     C_R   0.555099 0.420472 0.802316 -0.251327
C56   C     C_R   0.735821 0.567723 0.537842 -0.128073
C57   C     C_R   0.584764 0.418104 0.870809 -0.177775
C58   C     C_R   0.787037 0.845056 0.770410 0.129299
C59   C     C_R   0.765105 0.897545 0.810737 -0.191467
C60   C     C_R   0.824239 0.976876 0.864357 -0.262891
C61   C     C_R   0.905204 0.004442 0.876911 0.110162
C62   C     C_R   0.926554 0.954607 0.832703 0.504316
C63   C     C_R   0.867698 0.874037 0.781494 -0.315779
C64   C     C_R   0.105591 0.187788 0.072094 -0.191473
C65   C     C_R   0.176848 0.240032 0.139207 -0.141841
C66   C     C_R   0.044611 0.118631 0.066910 0.248046
C67   C     C_R   0.502689 0.275092 0.436677 0.476848
C68   C     C_R   0.187785 0.224057 0.201501 0.187929
C69   C     C_R   0.127276 0.155603 0.196542 -0.170581
C70   C     C_R   0.055985 0.103451 0.129571 -0.218991
C71   C     C_R   0.652082 0.714382 0.711854 -0.246680
C72   C     C_R   0.726591 0.760326 0.715732 -0.050955
H1    H     H_    0.240609 0.368169 0.499062 0.186241
H2    H     H_    0.413496 0.696854 0.547886 0.169787
H3    H     H_    0.383416 0.248214 0.518524 0.135049
H4    H     H_    0.943456 0.390917 0.632906 0.155675
H5    H     H_    0.296241 0.894441 0.288594 0.151122
H6    H     H_    0.566079 0.616965 0.762750 0.116010
H7    H     H_    0.576901 0.578284 0.982716 0.142603
H8    H     H_    0.659743 0.652052 0.286335 0.123198
H9    H     H_    0.547500 0.374698 0.751874 0.147149
H10   H     H_    0.600728 0.397137 0.083416 0.125966
H11   H     H_    0.597770 0.369710 0.872321 0.130924
H12   H     H_    0.223138 0.293206 0.142773 0.154271
H13   H     H_    0.099199 0.200728 0.024300 0.138340
H14   H     H_    0.654058 0.369670 0.451610 0.150098
H15   H     H_    0.886015 0.833249 0.753078 0.181689
H16   H     H_    0.010124 0.049771 0.125725 0.131241
H17   H     H_    0.433175 0.355287 0.640254 0.108629
H18   H     H_    0.784013 0.629489 0.574305 0.167800
N1    N     N_R   0.652850 0.649780 0.604930 -0.104512
N2    N     N_R   0.343210 0.456700 0.500210 -0.073872
N3    N     N_R   0.498730 0.654240 0.540230 -0.063553
N4    N     N_R   0.391920 0.352990 0.355070 -0.135574
N5    N     N_R   0.347150 0.350220 0.395070 -0.111307
N6    N     N_R   0.543500 0.657010 0.500230 -0.112190
N7    N     N_R   0.505660 0.466740 0.355080 -0.055151
N8    N     N_R   0.384980 0.540480 0.540220 -0.084845
N9    N     N_2   0.653850 0.534082 0.061877 -0.099892
N10   N     N_2   0.615120 0.467589 0.003523 -0.092462
N11   N     N_2   0.967769 0.073814 0.943699 -0.074659
N12   N     N_R   0.456500 0.342990 0.499770 -0.065316
N13   N     N_2   0.975481 0.057954 0.998135 -0.078920
N14   N     N_R   0.494340 0.533260 0.644920 -0.045098
N15   N     N_R   0.615020 0.459520 0.459780 -0.044804
N16   N     N_R   0.452560 0.449470 0.604910 -0.043004
N17   N     N_R   0.656790 0.543300 0.499790 -0.054088
N18   N     N_R   0.501270 0.345760 0.459770 -0.087194
N19   N     N_R   0.608080 0.647010 0.644930 -0.061714
N20   N     N_R   0.547440 0.550530 0.395090 -0.052150
Ni1   Ni    Ni4+2 0.599250 0.599260 0.500010 0.210372
Ni2   Ni    Ni4+2 0.400750 0.400740 0.499990 0.214401
Ni3   Ni    Ni4+2 0.496570 0.592910 0.591740 0.242361
Ni4   Ni    Ni4+2 0.503430 0.407090 0.408260 0.218278
O1    O     O_3   0.775891 0.752434 0.619797 -0.671051
C73   C     C_3   0.743121 0.787213 0.578307 0.281561
H19   H     H_    0.709161 0.813865 0.601778 0.075115
H20   H     H_    0.702053 0.740149 0.518733 0.123633
C74   C     C_3   0.812219 0.855342 0.579842 -0.940881
H21   H     H_    0.845053 0.830734 0.553081 0.259652
H22   H     H_    0.787890 0.884624 0.548689 0.221614
H23   H     H_    0.855346 0.902078 0.639231 0.245778
O2    O     O_3   0.360285 0.287730 0.222431 -0.639547
C75   C     C_3   0.392286 0.235409 0.228610 0.264165
H24   H     H_    0.353816 0.186082 0.238229 0.107170
H25   H     H_    0.454789 0.271003 0.275450 0.156262
C76   C     C_3   0.396404 0.195693 0.155611 -0.895648
H26   H     H_    0.435279 0.242920 0.144632 0.245684
H27   H     H_    0.422669 0.155222 0.160343 0.217688
H28   H     H_    0.334424 0.159008 0.107450 0.267359
O3    O     O_3   0.204426 0.287934 0.364921 -0.637122
C77   C     C_3   0.152965 0.317652 0.336461 0.244660
H29   H     H_    0.127335 0.293551 0.274184 0.106354
H30   H     H_    0.186527 0.385220 0.362259 0.098343
C78   C     C_3   0.081257 0.291750 0.354843 -0.872629
H31   H     H_    0.102337 0.317411 0.416903 0.267483
H32   H     H_    0.040296 0.313962 0.331639 0.200288
H33   H     H_    0.046521 0.224368 0.329031 0.257088
O4    O     O_3   0.560930 0.711038 0.412936 -0.652658
C79   C     C_3   0.594094 0.792936 0.426335 0.249275
H34   H     H_    0.629239 0.836299 0.487968 0.065838
H35   H     H_    0.545387 0.805118 0.399288 0.115411
C80   C     C_3   0.651106 0.808301 0.389990 -0.957733
H36   H     H_    0.616665 0.769340 0.327759 0.264507
H37   H     H_    0.679465 0.873108 0.401872 0.219039
H38   H     H_    0.699629 0.793998 0.412872 0.254089
H39   H     H_    0.501999 0.385548 0.257268 0.129910
O5    O     O_3   0.376890 0.639992 0.632709 -0.646160
C81   C     C_3   0.321679 0.670140 0.631928 0.265144
H40   H     H_    0.285837 0.647087 0.660324 0.134087
H41   H     H_    0.279865 0.653892 0.573495 0.115541
C82   C     C_3   0.369069 0.762413 0.676931 -0.920036
H42   H     H_    0.404836 0.789076 0.650002 0.250845
H43   H     H_    0.326320 0.786486 0.678925 0.219266
H44   H     H_    0.411087 0.780819 0.735704 0.263477
O6    O     O_3   0.052655 0.639835 0.687269 -0.628547
C83   C     C_3   0.136513 0.691616 0.735661 0.267348
H45   H     H_    0.173647 0.690803 0.704234 0.115793
H46   H     H_    0.156351 0.673543 0.780450 0.099747
C84   C     C_3   0.152456 0.778371 0.773515 -0.887947
H47   H     H_    0.117483 0.782040 0.806619 0.267465
H48   H     H_    0.218237 0.819715 0.812274 0.209519
H49   H     H_    0.133896 0.798273 0.729979 0.252804
H50   H     H_    0.106285 0.524083 0.727240 0.158956
O7    O     O_3   0.108484 0.596440 0.556136 -0.654086
C85   C     C_3   0.069930 0.638895 0.533731 0.280542
H51   H     H_    0.053027 0.668095 0.576656 0.139063
H52   H     H_    0.014588 0.597508 0.478712 0.140224
C86   C     C_3   0.128177 0.705648 0.524260 -0.943759
H53   H     H_    0.145105 0.678724 0.480345 0.269365
H54   H     H_    0.098755 0.739848 0.506840 0.217596
H55   H     H_    0.184014 0.748417 0.578676 0.260391
O8    O     O_3   0.923731 0.447948 0.449355 -0.631887
C87   C     C_3   0.955869 0.423676 0.399607 0.273230
H56   H     H_    0.946569 0.361580 0.387597 0.137565
H57   H     H_    0.021835 0.466177 0.422598 0.125623
C88   C     C_3   0.911356 0.421673 0.325160 -0.923028
H58   H     H_    0.920192 0.483239 0.334894 0.259371
H59   H     H_    0.935480 0.401755 0.285201 0.213144
H60   H     H_    0.845367 0.378422 0.299667 0.265885
O9    O     O_3   0.987565 0.336053 0.503160 -0.634321
C89   C     C_3   0.905683 0.277578 0.474846 0.267815
H61   H     H_    0.863047 0.297596 0.449817 0.113532
H62   H     H_    0.894865 0.265144 0.520722 0.103718
C90   C     C_3   0.887244 0.198713 0.413207 -0.905490
H63   H     H_    0.927716 0.176107 0.436546 0.265106
H64   H     H_    0.823041 0.152006 0.390845 0.212703
H65   H     H_    0.896903 0.208999 0.366161 0.252605
O10   O     O_3   0.545582 0.041272 0.442754 -0.650702
C91   C     C_3   0.601734 0.012258 0.452805 0.266339
H66   H     H_    0.581581 0.957079 0.400757 0.087877
H67   H     H_    0.610134 0.997940 0.501457 0.084353
C92   C     C_3   0.683569 0.077598 0.469231 -0.919085
H68   H     H_    0.705677 0.133760 0.520996 0.257266
H69   H     H_    0.728540 0.055759 0.478113 0.212728
H70   H     H_    0.677807 0.091844 0.420819 0.250634
H71   H     H_    0.497254 0.964027 0.538254 0.146531
H72   H     H_    0.434535 0.868803 0.315779 0.150455
O11   O     O_3   0.248401 0.813732 0.383307 -0.630040
C93   C     C_3   0.192737 0.843360 0.378092 0.262363
H73   H     H_    0.189059 0.868963 0.337073 0.084727
H74   H     H_    0.210270 0.890819 0.434591 0.092233
C94   C     C_3   0.108678 0.773714 0.350630 -0.877084
H75   H     H_    0.109891 0.746537 0.390168 0.259081
H76   H     H_    0.064507 0.796569 0.347684 0.205738
H77   H     H_    0.088705 0.726128 0.293429 0.257458
H78   H     H_    0.359329 0.987853 0.511198 0.146938
O12   O     O_3   0.517710 0.594923 0.860080 -0.627407
C95   C     C_3   0.579181 0.676198 0.911120 0.237651
H79   H     H_    0.637833 0.688666 0.908362 0.076233
H80   H     H_    0.588462 0.689948 0.970014 0.104177
C96   C     C_3   0.552960 0.733515 0.890704 -0.872145
H81   H     H_    0.495522 0.723901 0.894607 0.262572
H82   H     H_    0.600768 0.797562 0.930445 0.204137
H83   H     H_    0.543192 0.722452 0.832203 0.252604
H84   H     H_    0.702351 0.657897 0.188848 0.120970
H85   H     H_    0.559080 0.390437 0.180712 0.111663
O13   O     O_3   0.007660 0.981196 0.849649 -0.619390
C97   C     C_3   0.019341 0.985003 0.786631 0.249857
H86   H     H_    0.994757 0.021744 0.767144 0.081146
H87   H     H_    0.990019 0.922994 0.739064 0.111583
C98   C     C_3   0.109909 0.025394 0.809203 -0.854904
H88   H     H_    0.136131 0.989476 0.827739 0.258380
H89   H     H_    0.119976 0.028906 0.760136 0.204146
H90   H     H_    0.141184 0.087906 0.856292 0.256212
H91   H     H_    0.135442 0.142336 0.244260 0.159815
H92   H     H_    0.808177 0.015439 0.899129 0.150995
H93   H     H_    0.703010 0.876953 0.802315 0.134756
O14   O     O_3   0.521440 0.248196 0.377659 -0.690159
C99   C     C_3   0.555811 0.197653 0.384853 0.262156
H94   H     H_    0.506863 0.133754 0.358632 0.151282
H95   H     H_    0.596051 0.217421 0.444966 0.110954
C100  C     C_3   0.606265 0.199524 0.341447 -0.923597
H96   H     H_    0.658299 0.261596 0.366727 0.250404
H97   H     H_    0.630245 0.156884 0.343508 0.222770
H98   H     H_    0.568040 0.180833 0.281366 0.260742
H99   H     H_    0.627629 0.734244 0.749613 0.135458
H100  H     H_    0.634751 0.640264 0.382464 0.122588

loop_
_geom_bond_atom_site_label_1
_geom_bond_atom_site_label_2
_ccdc_geom_bond_type
C80   H38   S    
C94   H75   S    
C40   C41   S    
C83   H45   S    
C11   H39   S    
C78   H33   S    
C41   H72   S    
C86   H53   S    
N12   Ni2   S    
C18   C26   S    
C24   C27   S    
C22   H4    S    
C70   H16   S    
C69   H91   S    
C27   O8    S    
N14   N16   A    
N4    Ni4   S    
N2    N8    A    
C78   H31   S    
C39   C41   S    
N16   Ni2   S    
O9    C89   S    
C94   H76   S    
C49   H84   S    
O7    C85   S    
C33   C42   T    
C62   O13   S    
C75   H25   S    
C36   C37   S    
C79   H35   S    
C37   C40   S    
N5    Ni2   S    
C81   H41   S    
C16   C35   S    
C38   C39   S    
C3    C54   S    
C67   N18   A    
C90   H64   S    
C5    N20   A    
N18   Ni4   S    
C80   H36   S    
C13   N8    A    
C95   C96   S    
C73   H19   S    
C99   C100  S    
C78   H32   S    
C18   C19   S    
C34   H14   S    
C47   H10   S    
N1    Ni1   S    
C37   C42   S    
C49   C50   A    
C87   H56   S    
C91   C92   S    
C95   H80   S    
C6    C15   A    
C24   C29   S    
C3    C23   A    
C47   C48   A    
C44   C46   A    
C93   H73   S    
C92   H69   S    
C22   C25   S    
C32   C41   S    
C96   H83   S    
N12   N18   A    
C55   H9    S    
C45   H17   S    
C100  H96   S    
C9    N5    A    
C31   C36   S    
N19   Ni3   S    
C65   C68   A    
C56   H18   S    
C2    C12   A    
O11   C93   S    
N11   N13   D    
C46   H85   S    
C52   O12   S    
C4    C56   A    
C85   H52   S    
C19   O6    S    
C86   H54   S    
C9    C17   A    
C61   C62   A    
C18   H50   S    
N2    Ni2   S    
N6    Ni1   S    
C52   C54   A    
C7    H2    S    
C51   H7    S    
C20   C29   T    
C9    O3    S    
C53   N10   S    
C7    N3    A    
C94   H77   S    
C4    C34   A    
C1    C72   A    
C5    H100  S    
C51   C52   A    
C84   H49   S    
C77   C78   S    
N15   Ni4   S    
O2    C75   S    
C8    N4    A    
O5    C81   S    
C2    C67   A    
C81   C82   S    
C97   H86   S    
C53   C57   A    
O12   C95   S    
N8    Ni3   S    
C39   C43   S    
C98   H90   S    
C88   H59   S    
C58   C59   A    
O8    C87   S    
C3    C45   A    
O10   C91   S    
N20   Ni1   S    
C23   N14   A    
C60   C61   A    
C51   C53   A    
C36   H78   S    
C84   H48   S    
C61   N11   S    
C76   H27   S    
C56   N17   A    
C12   N12   A    
O14   C99   S    
C19   C28   S    
C97   H87   S    
N15   N17   A    
N9    N10   D    
C82   H44   S    
C10   N6    A    
C74   H21   S    
C92   H70   S    
O13   C97   S    
C62   C63   A    
C57   H11   S    
C95   H79   S    
N4    N5    A    
N3    Ni3   S    
C32   C37   S    
C79   H34   S    
C79   C80   S    
C99   H95   S    
C59   H93   S    
C100  H97   S    
C87   C88   S    
C5    C14   A    
C74   H22   S    
C28   O7    S    
C75   C76   S    
C2    C33   S    
C93   H74   S    
C48   C49   A    
C82   H43   S    
C92   H68   S    
C83   C84   S    
C55   C57   A    
C89   H61   S    
C85   H51   S    
C86   H55   S    
C22   C24   S    
C91   H66   S    
C10   O4    S    
C76   H26   S    
C71   H99   S    
C64   H13   S    
C31   H71   S    
C35   C43   T    
C45   N16   A    
C6    H1    S    
C14   C44   S    
C74   H23   S    
C44   C50   A    
C58   C63   A    
C80   H37   S    
C48   N9    S    
C54   C55   A    
O6    C83   S    
C17   C68   S    
C91   H67   S    
C89   H62   S    
C63   H15   S    
C98   H89   S    
C18   C22   S    
C34   N15   A    
N17   Ni1   S    
C66   N13   S    
C68   C69   A    
C31   C32   S    
C7    C16   A    
C96   H82   S    
C88   H60   S    
C90   H65   S    
C50   H8    S    
O4    C79   S    
C8    O2    S    
C26   C30   S    
C65   H12   S    
N3    N6    A    
C21   C30   T    
C26   C28   S    
C8    C17   A    
C73   C74   S    
C11   N7    A    
C60   H92   S    
C84   H47   S    
N1    N19   A    
C13   C15   A    
C19   C24   S    
C25   C26   S    
C76   H28   S    
C99   H94   S    
C10   C16   A    
C81   H40   S    
C64   C65   A    
C97   C98   S    
C38   C40   S    
N7    N20   A    
C58   C72   S    
C90   H63   S    
C66   C70   A    
C15   C21   S    
C93   C94   S    
C6    N2    A    
C71   N19   A    
C36   C38   S    
C11   C14   A    
C73   H20   S    
C32   O10   S    
C77   H29   S    
C23   H6    S    
C69   C70   A    
C98   H88   S    
C100  H98   S    
C87   H57   S    
C46   C47   A    
C25   O9    S    
C38   O11   S    
N14   Ni3   S    
C4    C20   S    
C59   C60   A    
C71   C72   A    
C96   H81   S    
C67   O14   S    
C85   C86   S    
C83   H46   S    
C88   H58   S    
C1    N1    A    
C12   H3    S    
C27   C28   S    
C31   C39   S    
C40   H5    S    
C82   H42   S    
C1    O1    S    
C13   O5    S    
O1    C73   S    
N7    Ni4   S    
C77   H30   S    
C89   C90   S    
O3    C77   S    
C64   C66   A    
C75   H24   S    
C25   C27   S    
