data_mof_unit_48727.cif
_audit_creation_date              2012-12-10T18:16:24-0500
_audit_creation_method            fapswitch 2.2
_symmetry_space_group_name_H-M    P1
_symmetry_Int_Tables_number       1
_space_group_crystal_system       triclinic
_cell_length_a                    12.595934
_cell_length_b                    13.208968
_cell_length_c                    27.312334
_cell_angle_alpha                 91.226321
_cell_angle_beta                  102.036329
_cell_angle_gamma                 83.547415
_cell_volume                      4416.14148169

loop_
_atom_site_label
_atom_site_type_symbol
_atom_type_description
_atom_site_fract_x
_atom_site_fract_y
_atom_site_fract_z
_atom_type_partial_charge
C1    C     C_R   0.439625 0.691440 0.496013 0.862042
C2    C     C_R   0.587595 0.503705 0.734860 -0.090434
C3    C     C_R   0.485741 0.525053 0.748291 0.315447
C4    C     C_R   0.443629 0.576760 0.895924 -0.071189
C5    C     C_R   0.512303 0.633958 0.875577 -0.007722
C6    C     C_R   0.564608 0.710190 0.904005 -0.139866
C7    C     C_R   0.390424 0.499373 0.866973 -0.088263
C8    C     C_R   0.497181 0.504555 0.647394 -0.026257
C9    C     C_R   0.489952 0.519277 0.353166 -0.079157
C10   C     C_R   0.490968 0.673254 0.027641 0.034740
C11   C     C_R   0.339594 0.567530 0.014022 0.046239
C12   C     C_R   0.500330 0.499931 0.594154 0.852943
C13   C     C_R   0.414693 0.622776 0.046616 0.079247
C14   C     C_R   0.567076 0.724724 0.061493 -0.255017
C15   C     C_R   0.571935 0.723016 0.112877 0.004507
C16   C     C_R   0.498771 0.669123 0.132314 -0.070855
C17   C     C_R   0.415730 0.624097 0.098640 -0.069781
C18   C     C_R   0.335717 0.577335 0.117014 -0.061665
C19   C     C_R   0.348567 0.566736 0.169167 0.493732
C20   C     C_R   0.508561 0.653207 0.184050 0.502606
C21   C     C_R   0.436545 0.642795 0.286635 -0.122380
C22   C     C_R   0.452267 0.618554 0.336658 -0.233944
C23   C     C_R   0.559169 0.309586 0.509336 0.865773
C24   C     C_R   0.514132 0.441364 0.319471 0.090773
C25   C     C_R   0.501079 0.467133 0.267933 0.195011
C26   C     C_R   0.459799 0.568650 0.252239 0.266925
C27   C     C_R   0.491691 0.667113 0.975734 0.062254
C28   C     C_R   0.429456 0.596930 0.945447 0.072228
C29   C     C_R   0.354787 0.545810 0.964777 -0.002951
C30   C     C_R   0.555116 0.726245 0.953263 -0.219945
C31   C     C_R   0.315543 0.446804 0.886797 0.164125
C32   C     C_R   0.252186 0.534640 0.031914 -0.267708
C33   C     C_R   0.248991 0.539573 0.082490 0.006673
C34   C     C_R   0.498917 0.500917 0.406114 0.873476
C35   C     C_R   0.301208 0.470340 0.935523 -0.199893
C36   C     C_R   0.723809 0.057972 0.550987 -0.185184
C37   C     C_R   0.589670 0.203322 0.524691 -0.071513
C38   C     C_R   0.302786 0.839895 0.462651 -0.002115
C39   C     C_R   0.277820 0.944471 0.455026 -0.174703
C40   C     C_R   0.351626 0.010771 0.476983 -0.214919
C41   C     C_R   0.449508 0.974330 0.509973 0.059304
C42   C     C_R   0.471925 0.870062 0.521746 0.032218
C43   C     C_R   0.530390 0.038619 0.528624 0.035465
C44   C     C_R   0.638582 0.996551 0.547370 0.134404
C45   C     C_R   0.525617 0.615379 0.826604 0.505698
C46   C     C_R   0.655673 0.897136 0.565640 -0.270950
C47   C     C_R   0.567253 0.839198 0.558388 0.011073
C48   C     C_R   0.506859 0.143515 0.530617 0.107147
C49   C     C_R   0.699223 0.159811 0.535385 -0.245664
C50   C     C_R   0.401815 0.801155 0.495262 -0.172327
C51   C     C_R   0.083848 0.351645 0.428172 -0.329908
C52   C     C_R   0.799619 0.631215 0.558391 -0.029580
C53   C     C_R   0.895797 0.675459 0.562823 -0.267194
C54   C     C_R   0.973089 0.638087 0.534848 0.181216
C55   C     C_R   0.958066 0.545132 0.507528 -0.042049
C56   C     C_R   0.415322 0.478140 0.819234 0.490814
C57   C     C_R   0.853139 0.509625 0.500704 0.206078
C58   C     C_R   0.038867 0.486800 0.485645 -0.006030
C59   C     C_R   0.007964 0.406907 0.451811 0.192261
C60   C     C_R   0.902473 0.379946 0.443002 -0.286699
C61   C     C_R   0.826966 0.429212 0.467851 -0.188538
C62   C     C_R   0.150862 0.498283 0.498552 -0.084757
C63   C     C_R   0.191251 0.373133 0.439289 0.128075
C64   C     C_R   0.390107 0.534818 0.711177 -0.107956
C65   C     C_R   0.395623 0.523303 0.661238 -0.214391
C66   C     C_R   0.593400 0.494292 0.684455 -0.209189
H1    H     H_    0.672483 0.479348 0.674451 0.158587
H2    H     H_    0.311187 0.552020 0.721139 0.141679
H3    H     H_    0.184138 0.505776 0.006725 0.143057
H4    H     H_    0.251974 0.424993 0.951804 0.164665
H5    H     H_    0.764978 0.205318 0.534161 0.169966
H6    H     H_    0.733173 0.869248 0.589414 0.138931
H7    H     H_    0.808092 0.026594 0.563776 0.143347
H8    H     H_    0.661950 0.495305 0.763376 0.149356
H9    H     H_    0.333490 0.090210 0.466231 0.151717
H10   H     H_    0.203695 0.974650 0.429424 0.147851
H11   H     H_    0.879638 0.317218 0.418299 0.156766
H12   H     H_    0.059809 0.291878 0.401621 0.148853
H13   H     H_    0.184098 0.546753 0.528507 0.161860
H14   H     H_    0.739024 0.662960 0.578535 0.156088
H15   H     H_    0.615013 0.756970 0.888555 0.190897
H16   H     H_    0.905900 0.743829 0.585137 0.152812
H17   H     H_    0.748252 0.402645 0.460602 0.215987
H18   H     H_    0.433191 0.677461 0.362750 0.154867
H19   H     H_    0.405196 0.719776 0.274236 0.160706
H20   H     H_    0.628506 0.762624 0.049247 0.142962
H21   H     H_    0.596984 0.787052 0.972527 0.145770
H22   H     H_    0.320272 0.531497 0.633390 0.151739
N1    N     N_R   0.477783 0.538410 0.799694 -0.345017
N2    N     N_R   0.438246 0.597303 0.200527 -0.338049
N3    N     N_R   0.222180 0.444690 0.474320 -0.122691
N4    N     N_R   0.776980 0.554780 0.525420 -0.128699
O1    O     O_R   0.366730 0.627160 0.487740 -0.604776
O2    O     O_2   0.590153 0.688620 0.217796 -0.549689
O3    O     O_2   0.379581 0.397421 0.792334 -0.596321
O4    O     O_2   0.275547 0.522260 0.188815 -0.557088
O5    O     O_R   0.544830 0.662520 0.504140 -0.602742
O6    O     O_R   0.410970 0.482310 0.563040 -0.626723
O7    O     O_R   0.589070 0.517670 0.579450 -0.612205
O8    O     O_R   0.455170 0.337480 0.495860 -0.615263
O9    O     O_R   0.633270 0.372840 0.512260 -0.645143
O10   O     O_R   0.410930 0.482330 0.420550 -0.596455
O11   O     O_R   0.589030 0.517690 0.436960 -0.617334
O12   O     O_2   0.585067 0.674481 0.805744 -0.566119
Zn1   Zn    Zn3+2 0.381080 0.476390 0.489050 0.955370
Zn2   Zn    Zn3+2 0.618920 0.523610 0.510950 0.945415
C67   C     C_3   0.249379 0.367983 0.856015 -0.310621
C68   C     C_3   0.159586 0.328271 0.878079 -0.940126
H23   H     H_    0.195597 0.281786 0.912131 0.264398
H24   H     H_    0.101604 0.392466 0.886820 0.267738
H25   H     H_    0.113043 0.278473 0.850245 0.266881
H26   H     H_    0.207512 0.403117 0.819464 0.239183
H27   H     H_    0.306103 0.300720 0.849553 0.250534
C69   C     C_3   0.552475 0.333233 0.339051 -0.393280
C70   C     C_3   0.675130 0.306636 0.343167 -0.874573
H28   H     H_    0.694324 0.285432 0.306297 0.270902
H29   H     H_    0.719258 0.372362 0.358328 0.269912
H30   H     H_    0.704780 0.240471 0.368696 0.246086
H31   H     H_    0.535641 0.323068 0.376800 0.202366
H32   H     H_    0.505814 0.276858 0.315639 0.210793
C71   C     C_1   0.156008 0.502826 0.096979 0.271842
N5    N     N_1   0.081386 0.473412 0.108348 -0.169971
C72   C     C_3   0.530457 0.389177 0.229518 -0.415538
C73   C     C_3   0.638144 0.405794 0.215079 -0.817007
H33   H     H_    0.627608 0.472863 0.190246 0.266614
H34   H     H_    0.702078 0.417054 0.248849 0.273417
H35   H     H_    0.666486 0.338220 0.194430 0.246895
H36   H     H_    0.537380 0.309982 0.242927 0.213912
H37   H     H_    0.464782 0.391989 0.195405 0.220271
C74   C     C_3   0.407909 0.185159 0.552569 -0.407762
C75   C     C_3   0.443312 0.235060 0.603475 -0.775706
H38   H     H_    0.496451 0.295194 0.601151 0.243512
H39   H     H_    0.370261 0.269660 0.617040 0.249164
H40   H     H_    0.489287 0.176952 0.631037 0.254003
H41   H     H_    0.347850 0.237297 0.526781 0.228324
H42   H     H_    0.360884 0.122704 0.559685 0.204552
C76   C     C_1   0.229060 0.774921 0.432999 0.170691
N6    N     N_1   0.170103 0.723079 0.409085 -0.187490
C77   C     C_1   0.564074 0.768367 0.597232 0.153910
N7    N     N_1   0.561740 0.714090 0.629510 -0.190946
C78   C     C_1   0.269195 0.317023 0.414422 0.219088
N8    N     N_1   0.331308 0.271317 0.394251 -0.233243
C79   C     C_3   0.053354 0.711335 0.527687 -0.409345
C80   C     C_3   0.137572 0.726228 0.575739 -0.865435
H43   H     H_    0.098963 0.773506 0.602756 0.255423
H44   H     H_    0.172829 0.652285 0.593849 0.248267
H45   H     H_    0.204478 0.765947 0.566883 0.259574
H46   H     H_    0.093763 0.689505 0.496187 0.216943
H47   H     H_    0.007092 0.786773 0.516218 0.210727
C81   C     C_1   0.654813 0.777065 0.144027 0.275286
N9    N     N_1   0.721216 0.820471 0.168746 -0.166899

loop_
_geom_bond_atom_site_label_1
_geom_bond_atom_site_label_2
_ccdc_geom_bond_type
C10   C27   A    
C58   C62   A    
C56   O3    S    
C21   C26   A    
C24   C69   S    
C57   N4    A    
C41   C42   A    
N3    Zn1   S    
C74   H41   S    
C75   H40   S    
C69   C70   S    
C72   C73   S    
C23   O9    A    
C53   C54   A    
C8    C66   A    
O8    Zn1   S    
C34   O10   A    
O6    Zn1   S    
C64   H2    S    
C28   C29   A    
C2    C3    A    
C46   H6    S    
C4    C7    A    
C5    C6    A    
C9    C22   A    
C79   C80   S    
C68   H23   S    
O10   Zn1   S    
C18   C19   A    
C67   H26   S    
C67   H27   S    
C12   O7    A    
O1    Zn1   S    
C54   C55   A    
C35   H4    S    
C16   C17   A    
C70   H29   S    
C67   C68   S    
C45   N1    A    
C43   C48   A    
C12   O6    A    
C69   H31   S    
C2    H8    S    
C8    C12   S    
C54   C79   S    
C59   C60   A    
C6    H15   S    
C21   C22   A    
C72   H37   S    
C27   C30   A    
C33   C71   S    
C41   C43   A    
C48   C74   S    
C7    C56   A    
C80   H45   S    
C4    C28   A    
C44   C46   A    
C79   H46   S    
C21   H19   S    
C60   H11   S    
C7    C31   A    
C15   C16   A    
C62   H13   S    
C51   C63   A    
C24   C25   A    
C14   H20   S    
C80   H44   S    
C10   C14   A    
C1    O5    A    
C39   C40   A    
C80   H43   S    
C75   H39   S    
C58   C59   A    
C23   C37   S    
C20   N2    A    
C60   C61   A    
C22   H18   S    
C43   C44   A    
C45   O12   S    
C37   C49   A    
C8    C65   A    
C16   C20   A    
C70   H30   S    
C62   N3    A    
C17   C18   A    
C63   C78   S    
C39   H10   S    
C37   C48   A    
C25   C72   S    
C71   N5    T    
C42   C50   A    
C73   H35   S    
O5    Zn2   S    
N4    Zn2   S    
C40   C41   A    
C6    C30   A    
C11   C32   A    
C55   C57   A    
C61   H17   S    
C9    C34   S    
C31   C35   A    
C36   C44   A    
C51   C59   A    
C63   N3    A    
C75   H38   S    
C52   C53   A    
C65   H22   S    
C73   H34   S    
C1    C50   S    
O9    Zn2   S    
O7    Zn2   S    
C20   O2    S    
C46   C47   A    
C56   N1    A    
C81   N9    T    
C31   C67   S    
C74   H42   S    
C4    C5    A    
C2    C66   A    
C10   C13   A    
C77   N7    T    
C68   H25   S    
C9    C24   A    
C57   C61   A    
C32   H3    S    
C38   C50   A    
C26   N2    S    
C76   N6    T    
C29   C35   A    
C34   O11   A    
C40   H9    S    
C13   C17   A    
C3    N1    S    
C23   O8    A    
C64   C65   A    
C74   C75   S    
C25   C26   A    
C51   H12   S    
C19   N2    A    
C78   N8    T    
C32   C33   A    
C11   C13   A    
C72   H36   S    
C38   C39   A    
C5    C45   A    
C38   C76   S    
C68   H24   S    
C66   H1    S    
O11   Zn2   S    
C42   C47   A    
C3    C64   A    
C18   C33   A    
C52   N4    A    
C36   H7    S    
C36   C49   A    
C79   H47   S    
C11   C29   A    
C1    O1    A    
C49   H5    S    
C55   C58   A    
C47   C77   S    
C27   C28   A    
C14   C15   A    
C53   H16   S    
C30   H21   S    
C52   H14   S    
C15   C81   S    
C69   H32   S    
C19   O4    S    
C70   H28   S    
C73   H33   S    
