data_mof_unit_53535.cif
_audit_creation_date              2012-12-10T16:49:25-0500
_audit_creation_method            fapswitch 2.2
_symmetry_space_group_name_H-M    P1
_symmetry_Int_Tables_number       1
_space_group_crystal_system       triclinic
_cell_length_a                    7.874388
_cell_length_b                    8.596652
_cell_length_c                    12.816856
_cell_angle_alpha                 88.081593
_cell_angle_beta                  88.349164
_cell_angle_gamma                 92.95465
_cell_volume                      865.571895248

loop_
_atom_site_label
_atom_site_type_symbol
_atom_type_description
_atom_site_fract_x
_atom_site_fract_y
_atom_site_fract_z
_atom_type_partial_charge
C1    C     C_R   0.456369 0.206367 0.497781 0.937948
C2    C     C_R   0.691970 0.398095 0.141516 0.028373
C3    C     C_R   0.537212 0.381074 0.870987 0.424231
C4    C     C_R   0.393397 0.449943 0.134430 0.448926
C5    C     C_R   0.547923 0.409297 0.976400 -0.049752
C6    C     C_R   0.405737 0.468433 0.027272 -0.066449
C7    C     C_2   0.434846 0.044579 0.513973 -0.118250
C8    C     C_2   0.563531 0.956064 0.483778 -0.136390
C9    C     C_3   0.234915 0.243043 0.206918 -0.303931
C10   C     C_3   0.661012 0.197095 0.770527 -0.327092
C11   C     C_3   0.080924 0.700576 0.329875 -0.187919
C12   C     C_R   0.543616 0.793656 0.500930 0.890534
C13   C     C_3   0.980545 0.217701 0.586861 -0.190733
C14   C     C_R   0.464656 0.495484 0.699905 0.885991
C15   C     C_R   0.531296 0.485086 0.300690 0.881517
C16   C     C_R   0.543300 0.449050 0.190362 -0.240766
C17   C     C_R   0.435812 0.479589 0.812080 -0.176234
C18   C     C_R   0.282585 0.544684 0.969840 0.077309
C19   C     C_R   0.690389 0.368094 0.034073 0.066411
C20   C     C_R   0.306658 0.561227 0.861642 0.047290
H1    H     H_    0.124498 0.211153 0.260365 0.172977
H2    H     H_    0.213805 0.772701 0.830305 0.191438
H3    H     H_    0.062689 0.543633 0.056684 0.243226
H4    H     H_    0.201181 0.697703 0.075609 0.180690
H5    H     H_    0.878308 0.382406 0.921311 0.188988
H6    H     H_    0.805836 0.196713 0.958223 0.225150
H7    H     H_    0.204988 0.754148 0.351055 0.175178
H8    H     H_    0.015382 0.790929 0.284892 0.118755
H9    H     H_    0.094389 0.601517 0.278090 0.226943
H10   H     H_    0.047328 0.147757 0.645340 0.171017
H11   H     H_    0.023137 0.186839 0.507102 0.159638
H12   H     H_    0.348706 0.206892 0.249256 0.147662
H13   H     H_    0.844904 0.185173 0.598064 0.155184
H14   H     H_    0.329701 0.917500 0.640872 0.208124
H15   H     H_    0.200231 0.930393 0.534634 0.223882
H16   H     H_    0.818142 0.984045 0.454493 0.200677
H17   H     H_    0.700921 0.965307 0.347185 0.169477
H18   H     H_    0.220989 0.175455 0.134901 0.170036
H19   H     H_    0.770059 0.285004 0.765851 0.190036
H20   H     H_    0.597269 0.188763 0.695355 0.202755
H21   H     H_    0.713295 0.081954 0.787746 0.169850
H22   H     H_    0.935116 0.330752 0.155277 0.239989
H23   H     H_    0.800388 0.265966 0.250808 0.187021
H24   H     H_    0.074070 0.619149 0.814416 0.214446
N1    N     N_2   0.054030 0.541640 0.471970 0.192835
N2    N     N_2   0.945970 0.458360 0.528030 0.199972
N3    N     N_3   0.835708 0.363878 0.202938 -0.405302
N4    N     N_3   0.200738 0.659998 0.802292 -0.416183
N5    N     N_3   0.148806 0.625099 0.019709 -0.471105
N6    N     N_3   0.837495 0.307910 0.984190 -0.476372
N7    N     N_3   0.290820 0.988715 0.579204 -0.484056
N8    N     N_3   0.706634 0.017350 0.419685 -0.460358
O1    O     O_R   0.609680 0.261530 0.506880 -0.646993
O2    O     O_3   0.538326 0.224684 0.848013 -0.610293
O3    O     O_3   0.978898 0.655009 0.417795 -0.528985
O4    O     O_3   0.016337 0.375826 0.604876 -0.521717
O5    O     O_R   0.390320 0.738470 0.493120 -0.653430
O6    O     O_R   0.323330 0.288220 0.488910 -0.612051
O7    O     O_R   0.676670 0.711780 0.511090 -0.571883
O8    O     O_R   0.619510 0.488830 0.661140 -0.642904
O9    O     O_R   0.380490 0.511170 0.338860 -0.611667
O10   O     O_R   0.333160 0.515520 0.643180 -0.545399
O11   O     O_R   0.666840 0.484480 0.356820 -0.573872
O12   O     O_3   0.237917 0.405282 0.182023 -0.628174
Zn1   Zn    Zn3+2 0.691200 0.482180 0.511990 1.023410
Zn2   Zn    Zn3+2 0.308800 0.517820 0.488010 1.020370

loop_
_geom_bond_atom_site_label_1
_geom_bond_atom_site_label_2
_ccdc_geom_bond_type
C4    C16   A    
N1    N2    D    
H2    N4    S    
O11   Zn1   S    
C13   H13   S    
C5    C19   A    
C2    N3    S    
C9    O12   S    
O1    Zn1   S    
C8    N8    S    
H16   N8    S    
C11   H7    S    
O5    Zn2   S    
C8    C12   S    
C13   O4    S    
C15   O9    A    
C7    N7    S    
C7    C8    D    
C1    O6    A    
O7    Zn1   S    
C10   H21   S    
C1    O1    A    
C14   C17   S    
C9    H1    S    
H14   N7    S    
C20   N4    S    
C2    C16   A    
C11   H8    S    
C10   O2    S    
C12   O5    A    
C4    C6    A    
C9    H18   S    
C13   H11   S    
O8    Zn1   S    
C3    C17   A    
C18   C20   A    
H22   N3    S    
H6    N6    S    
H15   N7    S    
C5    C6    A    
C6    C18   A    
C3    O2    S    
H3    N5    S    
C11   H9    S    
O10   Zn2   S    
C15   C16   S    
C14   O10   A    
C19   N6    S    
C13   H10   S    
H4    N5    S    
C17   C20   A    
C11   O3    S    
N1    O3    S    
N2    Zn1   S    
C10   H20   S    
N2    O4    S    
N1    Zn2   S    
H17   N8    S    
C4    O12   S    
H5    N6    S    
C14   O8    A    
C15   O11   A    
C9    H12   S    
C2    C19   A    
C1    C7    S    
C12   O7    A    
H23   N3    S    
O9    Zn2   S    
O6    Zn2   S    
H24   N4    S    
C18   N5    S    
C10   H19   S    
C3    C5    A    
