data_mof_unit_27669.cif
_audit_creation_date              2012-12-11T14:03:32-0500
_audit_creation_method            fapswitch 2.2
_symmetry_space_group_name_H-M    P1
_symmetry_Int_Tables_number       1
_space_group_crystal_system       triclinic
_cell_length_a                    6.9521
_cell_length_b                    11.396366
_cell_length_c                    18.670228
_cell_angle_alpha                 90.0
_cell_angle_beta                  92.896934
_cell_angle_gamma                 89.999935
_cell_volume                      1477.32709974

loop_
_atom_site_label
_atom_site_type_symbol
_atom_type_description
_atom_site_fract_x
_atom_site_fract_y
_atom_site_fract_z
_atom_type_partial_charge
O1    O     O_R   0.330540 0.606360 0.598870 -0.538071
O2    O     O_R   0.669460 0.106360 0.401130 -0.538071
O3    O     O_R   0.026770 0.620470 0.750430 -0.531902
O4    O     O_R   0.973230 0.120470 0.249570 -0.531902
O5    O     O_R   0.856460 0.393640 0.750930 -0.540103
O6    O     O_R   0.143540 0.893640 0.249070 -0.540103
C1    C     C_R   0.198673 0.648340 0.774523 0.697048
C2    C     C_R   0.801327 0.148340 0.225477 0.697049
O7    O     O_R   0.000920 0.620350 0.599420 -0.548323
O8    O     O_R   0.999080 0.120350 0.400580 -0.548324
O9    O     O_R   0.830430 0.393520 0.598850 -0.540223
O10   O     O_R   0.169570 0.893520 0.401150 -0.540223
C3    C     C_R   0.166654 0.647849 0.574557 0.765009
C4    C     C_R   0.833346 0.147849 0.425443 0.765009
O11   O     O_R   0.356570 0.606480 0.750960 -0.531561
O12   O     O_R   0.643430 0.106480 0.249040 -0.531561
O13   O     O_3   0.176990 0.425580 0.674890 -0.378953
O14   O     O_3   0.823010 0.925580 0.325110 -0.378953
V1    V     V_3+5 0.902170 0.513810 0.674910 1.445648
V2    V     V_3+5 0.097830 0.013810 0.325090 1.445647
O15   O     O_R   0.500800 0.379530 0.599380 -0.550319
O16   O     O_R   0.499200 0.879530 0.400620 -0.550319
C5    C     C_R   0.666545 0.352046 0.574519 0.758466
C6    C     C_R   0.333455 0.852046 0.425481 0.758467
O17   O     O_R   0.526650 0.379650 0.750390 -0.543872
O18   O     O_R   0.473350 0.879650 0.249610 -0.543873
C7    C     C_R   0.698617 0.351406 0.774283 0.714629
C8    C     C_R   0.301384 0.851406 0.225717 0.714629
V3    V     V_3+5 0.402160 0.486190 0.674900 1.432203
V4    V     V_3+5 0.597840 0.986190 0.325100 1.432203
O19   O     O_3   0.677210 0.574420 0.674910 -0.364272
O20   O     O_3   0.322790 0.074420 0.325090 -0.364272
C9    C     C_R   0.722086 0.068697 0.877968 0.150828
C10   C     C_R   0.277914 0.568697 0.122032 0.150828
H1    H     H_    0.695719 0.115788 0.766472 0.131803
H2    H     H_    0.304276 0.615787 0.233528 0.131803
H3    H     H_    0.746214 0.937625 0.998585 0.172450
H4    H     H_    0.253773 0.437624 0.001415 0.172450
C11   C     C_R   0.714951 0.268408 0.833989 -0.072519
C12   C     C_R   0.285050 0.768408 0.166011 -0.072518
C13   C     C_R   0.791186 0.350916 0.180400 -0.095243
C14   C     C_R   0.208824 0.850916 0.819600 -0.095244
C15   C     C_R   0.781226 0.432578 0.125066 -0.057636
C16   C     C_R   0.218791 0.932578 0.874934 -0.057638
C17   C     C_R   0.765668 0.395782 0.053849 -0.135523
C18   C     C_R   0.234350 0.895782 0.946151 -0.135524
C19   C     C_R   0.759331 0.274775 0.035931 0.098095
C20   C     C_R   0.240676 0.774775 0.964068 0.098095
C21   C     C_R   0.769405 0.191677 0.093060 0.086202
C22   C     C_R   0.230594 0.691677 0.906939 0.086202
C23   C     C_R   0.743679 0.233611 0.963418 0.046911
C24   C     C_R   0.256326 0.733611 0.036582 0.046911
C25   C     C_R   0.738554 0.110399 0.949472 0.094249
C26   C     C_R   0.261445 0.610399 0.050528 0.094248
C27   C     C_R   0.749478 0.031431 0.006996 -0.186328
C28   C     C_R   0.250516 0.531431 0.993004 -0.186326
C29   C     C_R   0.764555 0.071111 0.077256 -0.209126
C30   C     C_R   0.235437 0.571111 0.922744 -0.209126
C31   C     C_R   0.732359 0.310895 0.904094 -0.223055
C32   C     C_R   0.267648 0.810895 0.095906 -0.223051
C33   C     C_R   0.709537 0.148059 0.821076 -0.205420
C34   C     C_R   0.290461 0.648058 0.178924 -0.205421
C35   C     C_R   0.785363 0.230932 0.165185 -0.050161
C36   C     C_R   0.214638 0.730932 0.834815 -0.050162
H5    H     H_    0.734974 0.404872 0.910126 0.114240
H6    H     H_    0.265039 0.904875 0.089873 0.114239
H7    H     H_    0.804155 0.381423 0.235402 0.109907
H8    H     H_    0.195857 0.881422 0.764598 0.109907
H9    H     H_    0.759170 0.464740 0.014436 0.120361
H10   H     H_    0.240860 0.964740 0.985563 0.120361
H11   H     H_    0.786007 0.525398 0.137447 0.132022
H12   H     H_    0.214021 0.025397 0.862553 0.132023
H13   H     H_    0.772366 0.005675 0.119347 0.124771
H14   H     H_    0.227621 0.505675 0.880653 0.124771
C37   C     C_2   0.831880 0.233724 0.484714 -0.344976
C38   C     C_2   0.168120 0.733724 0.515286 -0.344977
H15   H     H_    0.969196 0.270579 0.503834 0.149711
H16   H     H_    0.030804 0.770579 0.496166 0.149711
C39   C     C_2   0.668024 0.266173 0.515247 -0.342597
C40   C     C_2   0.331976 0.766173 0.484753 -0.342597
H17   H     H_    0.530709 0.229321 0.496124 0.150589
H18   H     H_    0.469291 0.729321 0.503876 0.150589
I1    I     I_    0.714501 0.887527 0.849932 -0.504956
I2    I     I_    0.285508 0.387527 0.150067 -0.504957

loop_
_geom_bond_atom_site_label_1
_geom_bond_atom_site_label_2
_ccdc_geom_bond_type
C12   C32   A    
C22   C36   A    
O4    C2    A    
V1    O19   S    
C21   C29   A    
C19   C21   A    
O9    V1    S    
C10   I2    S    
C21   C35   A    
C38   H16   S    
O3    C1    A    
C8    C12   S    
O12   V4    S    
C9    I1    S    
C10   C34   A    
C12   C34   A    
O17   V3    S    
O7    V1    S    
C17   C19   A    
C29   H13   S    
O7    C3    A    
C24   C32   A    
O5    C7    A    
C6    C40   S    
O6    C8    A    
O8    V2    S    
O3    V1    S    
O14   V4    S    
C20   C22   A    
C32   H6    S    
C2    O12   A    
C14   H8    S    
C13   C15   A    
C14   C16   A    
H2    C34   S    
C24   C26   A    
O11   V3    S    
C18   C20   A    
C25   C27   A    
C9    C25   A    
C11   C33   A    
C26   C28   A    
C17   H9    S    
C22   C30   A    
C13   H7    S    
C40   H18   S    
O8    C4    A    
C7    C11   S    
C39   H17   S    
C19   C23   A    
C1    O11   A    
C16   C18   A    
O15   V3    S    
C23   C25   A    
H3    C27   S    
O1    C3    A    
C37   H15   S    
C3    C38   S    
C11   C31   A    
O10   V2    S    
O1    V3    S    
H1    C33   S    
C15   C17   A    
C10   C26   A    
C27   C29   A    
O16   C6    A    
C23   C31   A    
C13   C35   A    
C14   C36   A    
C30   H14   S    
V2    O20   S    
C15   H11   S    
O16   V4    S    
C38   C40   D    
O18   V4    S    
O5    V1    S    
O17   C7    A    
O6    V2    S    
O10   C6    A    
O18   C8    A    
O2    V4    S    
C4    C37   S    
O15   C5    A    
V3    O19   S    
O13   V3    S    
C31   H5    S    
V4    O20   S    
O9    C5    A    
O13   V1    S    
C28   C30   A    
C16   H12   S    
O14   V2    S    
O2    C4    A    
C1    C36   S    
C18   H10   S    
C2    C35   S    
O4    V2    S    
C20   C24   A    
H4    C28   S    
C9    C33   A    
C5    C39   S    
C37   C39   D    
