data_mof_unit_49283.cif
_audit_creation_date              2012-12-11T17:29:28-0500
_audit_creation_method            fapswitch 2.2
_symmetry_space_group_name_H-M    P1
_symmetry_Int_Tables_number       1
_space_group_crystal_system       triclinic
_cell_length_a                    7.055482
_cell_length_b                    21.445113
_cell_length_c                    23.704391
_cell_angle_alpha                 90.102214
_cell_angle_beta                  90.48462
_cell_angle_gamma                 90.319302
_cell_volume                      3586.41731038

loop_
_atom_site_label
_atom_site_type_symbol
_atom_type_description
_atom_site_fract_x
_atom_site_fract_y
_atom_site_fract_z
_atom_type_partial_charge
O1    O     O_R   0.385180 0.195030 0.193850 -0.532722
O2    O     O_R   0.614820 0.804970 0.806150 -0.532630
O3    O     O_R   0.714780 0.188250 0.308340 -0.536497
O4    O     O_R   0.285220 0.811750 0.691660 -0.536459
O5    O     O_R   0.885140 0.307540 0.308730 -0.538419
O6    O     O_R   0.114860 0.692460 0.691270 -0.538434
C1    C     C_R   0.546306 0.173380 0.327476 0.719805
C2    C     C_R   0.453697 0.826634 0.672534 0.721558
O7    O     O_R   0.714890 0.187670 0.194260 -0.535288
O8    O     O_R   0.285110 0.812330 0.805740 -0.535226
O9    O     O_R   0.885250 0.306950 0.193830 -0.534123
O10   O     O_R   0.114750 0.693050 0.806170 -0.534104
C3    C     C_R   0.545433 0.172629 0.175029 0.725989
C4    C     C_R   0.454567 0.827371 0.824971 0.726132
O11   O     O_R   0.385070 0.195610 0.308740 -0.533408
O12   O     O_R   0.614930 0.804390 0.691260 -0.533057
O13   O     O_3   0.551660 0.290420 0.251280 -0.372137
O14   O     O_3   0.448340 0.709580 0.748720 -0.373040
V1    V     V_3+5 0.826490 0.244020 0.251290 1.416725
V2    V     V_3+5 0.173510 0.755980 0.748710 1.416154
O15   O     O_R   0.214970 0.314310 0.194240 -0.532937
O16   O     O_R   0.785030 0.685690 0.805760 -0.532959
C5    C     C_R   0.046096 0.329132 0.175012 0.717958
C6    C     C_R   0.953905 0.670861 0.824982 0.717371
O17   O     O_R   0.214860 0.314890 0.308320 -0.540103
O18   O     O_R   0.785140 0.685110 0.691680 -0.541404
C7    C     C_R   0.047517 0.329558 0.327451 0.728033
C8    C     C_R   0.952377 0.670404 0.672543 0.727004
V3    V     V_3+5 0.326500 0.258540 0.251290 1.415885
V4    V     V_3+5 0.673500 0.741460 0.748710 1.414618
O19   O     O_3   0.051460 0.212150 0.251290 -0.367641
O20   O     O_3   0.948540 0.787850 0.748710 -0.367317
C9    C     C_3   0.904375 0.473244 0.543508 0.149259
C10   C     C_3   0.086511 0.524860 0.457607 0.143985
C11   C     C_3   0.096694 0.450975 0.520086 0.334286
C12   C     C_3   0.894241 0.547044 0.480986 0.358048
C13   C     C_1   0.042952 0.374242 0.373030 -0.220952
C14   C     C_1   0.956041 0.625399 0.627150 -0.221697
C15   C     C_3   0.824247 0.478596 0.482996 0.339406
C16   C     C_3   0.166868 0.519277 0.517881 0.315760
C17   C     C_3   0.018024 0.456221 0.458889 -0.208303
C18   C     C_3   0.973726 0.541967 0.542077 -0.207587
C19   C     C_1   0.038660 0.411334 0.411754 -0.009697
C20   C     C_1   0.958047 0.587846 0.588742 -0.021227
H1    H     H_    0.279187 0.564331 0.973909 0.190220
H2    H     H_    0.720849 0.435601 0.026030 0.190155
C21   C     C_R   0.171317 0.493878 0.030236 0.444015
C22   C     C_R   0.828719 0.506055 0.969705 0.444105
C23   C     C_R   0.014238 0.456495 0.044826 -0.045624
C24   C     C_R   0.985793 0.543442 0.955119 -0.045721
C25   C     C_R   0.843507 0.463353 0.014671 -0.312134
C26   C     C_R   0.156529 0.536579 0.985269 -0.311842
C27   C     C_1   0.026443 0.411680 0.090976 0.031163
C28   C     C_1   0.973571 0.588277 0.908986 0.031026
C29   C     C_1   0.963940 0.625709 0.870564 -0.186545
C30   C     C_1   0.036065 0.374267 0.129414 -0.185771
H3    H     H_    0.206966 0.043371 0.457112 0.113271
H4    H     H_    0.793040 0.956690 0.542934 0.113286
C31   C     C_R   0.322211 0.980899 0.519470 -0.154424
C32   C     C_R   0.677794 0.019163 0.480578 -0.154425
H5    H     H_    0.183590 0.966538 0.534053 0.112282
H6    H     H_    0.816416 0.033522 0.465993 0.112279
C33   C     C_R   0.486582 0.955925 0.544227 0.135749
C34   C     C_R   0.513423 0.044135 0.455819 0.135735
C35   C     C_R   0.664455 0.975377 0.524448 -0.152884
C36   C     C_R   0.335550 0.024685 0.475599 -0.152910
C37   C     C_1   0.473068 0.910450 0.589644 -0.056968
C38   C     C_1   0.526937 0.089597 0.410392 -0.057014
C39   C     C_1   0.536875 0.127665 0.372535 -0.181676
C40   C     C_1   0.463130 0.872368 0.627490 -0.181561
H7    H     H_    0.205630 0.041343 0.042386 0.112710
H8    H     H_    0.794370 0.958657 0.957614 0.112718
C41   C     C_R   0.322944 0.980195 0.979596 -0.153808
C42   C     C_R   0.677056 0.019805 0.020404 -0.153814
H9    H     H_    0.184728 0.965342 0.964332 0.112050
H10   H     H_    0.815272 0.034658 0.035668 0.112045
C43   C     C_R   0.487968 0.956257 0.955010 0.134740
C44   C     C_R   0.512032 0.043742 0.044990 0.134744
C45   C     C_R   0.665124 0.976447 0.975829 -0.153135
C46   C     C_R   0.334875 0.023553 0.024171 -0.153140
C47   C     C_1   0.475674 0.911037 0.908837 -0.056093
C48   C     C_1   0.524326 0.088963 0.091163 -0.056111
C49   C     C_1   0.534223 0.126878 0.129507 -0.183117
C50   C     C_1   0.465777 0.873122 0.870493 -0.183104
O21   O     O_3   0.196277 0.398915 0.540967 -0.551060
C51   C     C_3   0.272447 0.412135 0.595022 0.149126
H11   H     H_    0.181469 0.442981 0.620919 0.090114
H12   H     H_    0.411880 0.435501 0.590479 0.206436
C52   C     C_3   0.298222 0.351445 0.627273 -0.767274
H13   H     H_    0.381893 0.317952 0.601996 0.230244
H14   H     H_    0.373260 0.360785 0.667803 0.178929
H15   H     H_    0.158237 0.330203 0.636602 0.219719
O22   O     O_3   0.794111 0.599239 0.460653 -0.547290
C53   C     C_3   0.731694 0.588404 0.404692 0.139396
H16   H     H_    0.596407 0.562143 0.405315 0.162939
H17   H     H_    0.833592 0.561316 0.378920 0.135055
C54   C     C_3   0.701306 0.650662 0.375391 -0.755629
H18   H     H_    0.839329 0.674816 0.369630 0.224047
H19   H     H_    0.634749 0.642891 0.333333 0.177344
H20   H     H_    0.608058 0.680929 0.400969 0.228075
N1    N     N_2   0.804967 0.445417 0.590450 -0.493180
H21   H     H_    0.860464 0.457717 0.629261 0.243717
C55   C     C_3   0.763578 0.379533 0.585066 -0.519540
H22   H     H_    0.702156 0.362112 0.624992 0.176237
H23   H     H_    0.893381 0.352496 0.576599 0.223475
H24   H     H_    0.660131 0.371334 0.550383 0.232719
N2    N     N_2   0.182981 0.553456 0.410599 -0.504534
H25   H     H_    0.290299 0.526596 0.394602 0.268317
C56   C     C_3   0.233924 0.618367 0.418040 -0.517136
H26   H     H_    0.283702 0.637515 0.377295 0.182438
H27   H     H_    0.348295 0.623246 0.450158 0.230171
H28   H     H_    0.110537 0.646170 0.431621 0.229668
O23   O     O_3   0.355404 0.536914 0.531126 -0.512937
C57   C     C_3   0.353014 0.582606 0.573576 0.079234
H29   H     H_    0.291314 0.563029 0.612864 0.117635
H30   H     H_    0.281451 0.625558 0.558115 0.139732
C58   C     C_3   0.548035 0.601594 0.589676 -0.666180
H31   H     H_    0.621100 0.620282 0.552113 0.267479
H32   H     H_    0.541322 0.638665 0.622275 0.179849
H33   H     H_    0.618789 0.560028 0.607688 0.239190
O24   O     O_3   0.636885 0.459742 0.468827 -0.514539
C59   C     C_3   0.644516 0.408892 0.431275 0.070987
H34   H     H_    0.724835 0.369349 0.450093 0.137469
H35   H     H_    0.701071 0.424905 0.390103 0.126676
C60   C     C_3   0.452289 0.384447 0.417326 -0.674130
H36   H     H_    0.381969 0.420834 0.391861 0.214349
H37   H     H_    0.464590 0.341502 0.391392 0.177766
H38   H     H_    0.375187 0.372991 0.456338 0.275280
O25   O     O_3   0.343213 0.486324 0.057681 -0.541335
C61   C     C_3   0.357835 0.531402 0.100968 0.114662
H39   H     H_    0.239687 0.526220 0.131577 0.107825
H40   H     H_    0.356573 0.579468 0.083189 0.117001
C62   C     C_3   0.543766 0.522527 0.132835 -0.705943
H41   H     H_    0.665079 0.531020 0.104300 0.226477
H42   H     H_    0.552860 0.556019 0.168549 0.167909
H43   H     H_    0.552199 0.474303 0.149674 0.224932
O26   O     O_3   0.656823 0.513610 0.942260 -0.541120
C63   C     C_3   0.642282 0.468571 0.898937 0.115388
H44   H     H_    0.643470 0.420491 0.916686 0.116697
H45   H     H_    0.760506 0.473768 0.868356 0.106157
C64   C     C_3   0.456435 0.477487 0.867035 -0.708554
H46   H     H_    0.448104 0.525720 0.850214 0.224947
H47   H     H_    0.447383 0.444015 0.831304 0.166821
H48   H     H_    0.335041 0.468997 0.895541 0.226670

loop_
_geom_bond_atom_site_label_1
_geom_bond_atom_site_label_2
_ccdc_geom_bond_type
C33   C35   A    
N1    H21   S    
C58   H31   S    
O13   V3    S    
C12   C18   S    
C4    C50   S    
H3    C36   S    
O4    C2    A    
V1    O19   S    
C54   H20   S    
C57   H29   S    
C5    C30   S    
C21   C23   A    
O21   C51   S    
C6    C29   S    
O9    V1    S    
C9    C15   S    
C42   H10   S    
C22   O26   S    
C21   O25   S    
C9    N1    S    
C10   N2    S    
C34   C38   S    
O23   C57   S    
H8    C45   S    
O3    C1    A    
C56   H27   S    
C31   C36   A    
C44   C46   A    
O12   V4    S    
C54   H18   S    
C2    C40   S    
C32   H6    S    
O10   C6    A    
O7    C3    A    
O13   V1    S    
O5    C7    A    
C12   O22   S    
O7    V1    S    
C22   C25   A    
O6    C8    A    
O8    V2    S    
C38   C39   T    
C23   C25   A    
C60   H38   S    
C24   C26   A    
N2    H25   S    
O3    V1    S    
O14   V4    S    
C43   C47   S    
C52   H14   S    
C17   C19   S    
O14   V2    S    
C16   C18   S    
N1    C55   S    
C58   H33   S    
N2    C56   S    
C10   C17   S    
C18   C20   S    
C11   C17   S    
H7    C46   S    
C54   H19   S    
O11   V3    S    
C43   C45   A    
O17   V3    S    
C33   C37   S    
C31   H5    S    
C51   H12   S    
C15   C17   S    
O8    C4    A    
C64   H48   S    
C51   H11   S    
C1    O11   A    
C53   C54   S    
O15   V3    S    
H2    C25   S    
C63   C64   S    
C64   H47   S    
C34   C36   A    
C13   C19   T    
C61   H40   S    
C14   C20   T    
C62   H43   S    
C44   C48   S    
H4    C35   S    
C16   O23   S    
C8    C14   S    
O10   V2    S    
O1    V3    S    
C55   H23   S    
O22   C53   S    
C24   C28   S    
C52   H15   S    
C53   H17   S    
C22   C24   A    
O24   C59   S    
C63   H45   S    
C32   C35   A    
O18   V4    S    
C42   C45   A    
O15   C5    A    
C62   H41   S    
O16   C6    A    
C56   H28   S    
C61   C62   S    
O1    C3    A    
C41   H9    S    
C59   H35   S    
C47   C50   T    
C62   H42   S    
O25   C61   S    
V2    O20   S    
C27   C30   T    
C9    C18   S    
C28   C29   T    
O16   V4    S    
C31   C33   A    
C12   C15   S    
C51   C52   S    
C1    C39   S    
C57   H30   S    
C21   C26   A    
O5    V1    S    
O17   C7    A    
O6    V2    S    
O26   C63   S    
C3    C49   S    
O18   C8    A    
C15   O24   S    
O2    V4    S    
C32   C34   A    
C37   C40   T    
H1    C26   S    
C59   C60   S    
C58   H32   S    
C11   C16   S    
C52   H13   S    
V3    O19   S    
C64   H46   S    
V4    O20   S    
C11   O21   S    
C60   H36   S    
C7    C13   S    
C23   C27   S    
O9    C5    A    
C9    C11   S    
C41   C46   A    
C61   H39   S    
C55   H24   S    
C10   C12   S    
C53   H16   S    
O2    C4    A    
C57   C58   S    
C63   H44   S    
O4    V2    S    
C2    O12   A    
C48   C49   T    
C42   C44   A    
C55   H22   S    
C60   H37   S    
C41   C43   A    
C10   C16   S    
C59   H34   S    
C56   H26   S    
