data_mof_unit_16425.cif
_audit_creation_date              2012-12-10T19:47:25-0500
_audit_creation_method            fapswitch 2.2
_symmetry_space_group_name_H-M    P1
_symmetry_Int_Tables_number       1
_space_group_crystal_system       triclinic
_cell_length_a                    10.9844
_cell_length_b                    11.015623
_cell_length_c                    12.671979
_cell_angle_alpha                 92.499846
_cell_angle_beta                  90.965982
_cell_angle_gamma                 90.01118
_cell_volume                      1531.63201572

loop_
_atom_site_label
_atom_site_type_symbol
_atom_type_description
_atom_site_fract_x
_atom_site_fract_y
_atom_site_fract_z
_atom_type_partial_charge
C1    C     C_R   0.261741 0.497020 0.502247 0.877487
C2    C     C_R   0.738259 0.502981 0.497753 0.877494
C3    C     C_R   0.493659 0.871963 0.498163 -0.131535
C4    C     C_R   0.506342 0.128037 0.501837 -0.131507
C5    C     C_R   0.513508 0.932194 0.403447 -0.049166
C6    C     C_R   0.486496 0.067806 0.596553 -0.049160
C7    C     C_R   0.168027 0.495251 0.877970 -0.172547
C8    C     C_R   0.831972 0.504742 0.122030 -0.172546
C9    C     C_R   0.141368 0.464026 0.772126 0.441501
C10   C     C_R   0.858630 0.535970 0.227873 0.441501
C11   C     C_R   0.122277 0.557511 0.700137 0.000001
C12   C     C_R   0.877722 0.442487 0.299864 0.000002
C13   C     C_R   0.129195 0.679440 0.736948 -0.100599
C14   C     C_R   0.870808 0.320557 0.263055 -0.100590
C15   C     C_R   0.155315 0.710093 0.843700 0.023115
C16   C     C_R   0.844688 0.289901 0.156303 0.023116
C17   C     C_R   0.176365 0.616693 0.913596 -0.286337
C18   C     C_R   0.823637 0.383299 0.086405 -0.286338
C19   C     C_R   0.935505 0.539153 0.590261 0.392778
C20   C     C_R   0.064495 0.460849 0.409739 0.392779
C21   C     C_R   0.872083 0.506261 0.495430 -0.184089
C22   C     C_R   0.127917 0.493740 0.504570 -0.184092
C23   C     C_R   0.503059 0.261816 0.500872 0.809167
C24   C     C_R   0.496941 0.738184 0.499128 0.809150
C25   C     C_R   0.937188 0.469624 0.404162 -0.171760
C26   C     C_R   0.062812 0.530377 0.595839 -0.171759
C27   C     C_2   0.456494 0.481049 0.032356 -0.284210
C28   C     C_2   0.543506 0.518949 0.967644 -0.284214
C29   C     C_1   0.528216 0.519642 0.852528 0.252732
C30   C     C_1   0.471783 0.480357 0.147472 0.252746
C31   C     C_R   0.551012 0.205792 0.872231 -0.149192
C32   C     C_R   0.448992 0.794200 0.127772 -0.149189
C33   C     C_R   0.571440 0.167880 0.766659 0.028748
C34   C     C_R   0.428565 0.832116 0.233343 0.028759
C35   C     C_R   0.469304 0.134368 0.700529 -0.068301
C36   C     C_R   0.530701 0.865633 0.299472 -0.068312
C37   C     C_R   0.349576 0.146664 0.740995 0.455672
C38   C     C_R   0.650429 0.853339 0.259004 0.455671
C39   C     C_R   0.334068 0.182594 0.846909 -0.058775
C40   C     C_R   0.665936 0.817408 0.153090 -0.058765
C41   C     C_R   0.433926 0.209378 0.912398 -0.253117
C42   C     C_R   0.566078 0.790619 0.087603 -0.253118
C43   C     C_R   0.476826 0.940838 0.594038 -0.005771
C44   C     C_R   0.523176 0.059162 0.405962 -0.005749
Cu1   Cu    Cu3+1 0.492140 0.492110 0.395880 1.043950
Cu2   Cu    Cu3+1 0.507860 0.507890 0.604120 1.043944
H1    H     H_    0.420287 0.233689 0.994899 0.171635
H2    H     H_    0.579716 0.766307 0.005102 0.171637
H3    H     H_    0.107327 0.750107 0.682845 0.220366
H4    H     H_    0.892676 0.249891 0.317159 0.220367
H5    H     H_    0.629252 0.550863 0.001025 0.163298
H6    H     H_    0.370748 0.449134 0.998975 0.163299
H7    H     H_    0.626127 0.230103 0.925261 0.205991
H8    H     H_    0.373875 0.769886 0.074744 0.205984
H9    H     H_    0.243626 0.188482 0.879276 0.177354
H10   H     H_    0.756378 0.811523 0.120722 0.177355
H11   H     H_    0.194789 0.637252 0.996673 0.208372
H12   H     H_    0.805214 0.362738 0.003329 0.208368
H13   H     H_    0.177615 0.424249 0.933890 0.156603
H14   H     H_    0.822384 0.575742 0.066108 0.156603
N1    N     N_1   0.480320 0.480250 0.239400 -0.148512
N2    N     N_1   0.519680 0.519750 0.760600 -0.148517
O1    O     O_R   0.313000 0.493330 0.412070 -0.522080
O2    O     O_R   0.687000 0.506670 0.587930 -0.522086
O3    O     O_R   0.326280 0.506660 0.587930 -0.588157
O4    O     O_R   0.673720 0.493340 0.412070 -0.588157
O5    O     O_R   0.493370 0.312980 0.412070 -0.559760
O6    O     O_R   0.506630 0.687020 0.587930 -0.559756
O7    O     O_R   0.506650 0.326310 0.587930 -0.601136
O8    O     O_R   0.493350 0.673690 0.412070 -0.601140
C45   C     C_2   0.152277 0.838969 0.882781 0.886837
O9    O     O_2   0.181720 0.866813 0.974148 -0.589600
O10   O     O_R   0.113226 0.929014 0.815539 -0.697663
H15   H     H_    0.110311 0.012420 0.852413 0.356690
C46   C     C_2   0.847730 0.161024 0.117224 0.886842
O11   O     O_2   0.818283 0.133178 0.025859 -0.589578
O12   O     O_R   0.886787 0.070982 0.184467 -0.697659
H16   H     H_    0.889703 0.987576 0.147594 0.356694
O13   O     O_3   0.871249 0.586093 0.675935 -0.690353
H17   H     H_    0.905361 0.553888 0.741855 0.332538
O14   O     O_3   0.128750 0.413910 0.324064 -0.690345
H18   H     H_    0.094639 0.446117 0.258145 0.332543
C47   C     C_2   0.700079 0.162671 0.730237 0.905401
O15   O     O_2   0.726883 0.108179 0.647813 -0.575051
O16   O     O_R   0.791845 0.220955 0.791388 -0.751701
H19   H     H_    0.875246 0.211727 0.758885 0.367086
C48   C     C_2   0.299928 0.837321 0.269767 0.905409
O17   O     O_2   0.273115 0.891864 0.352165 -0.575025
O18   O     O_R   0.208172 0.778977 0.208646 -0.751728
H20   H     H_    0.124770 0.788210 0.241146 0.367078
O19   O     O_3   0.245984 0.118174 0.681658 -0.679244
H21   H     H_    0.266021 0.111686 0.605821 0.334461
O20   O     O_3   0.754020 0.881833 0.318339 -0.679244
H22   H     H_    0.733984 0.888323 0.394177 0.334463
C49   C     C_2   0.440926 0.882550 0.692534 0.900102
O21   O     O_2   0.343411 0.829836 0.695167 -0.591541
O22   O     O_R   0.517801 0.889075 0.781616 -0.746634
H23   H     H_    0.481826 0.847379 0.843671 0.324938
C50   C     C_2   0.559074 0.117451 0.307466 0.900100
O23   O     O_2   0.656589 0.170164 0.304831 -0.591543
O24   O     O_R   0.482197 0.110925 0.218385 -0.746624
H24   H     H_    0.518171 0.152622 0.156329 0.324935
O25   O     O_3   0.126009 0.342285 0.744770 -0.725069
H25   H     H_    0.115334 0.330798 0.667370 0.345025
O26   O     O_3   0.873986 0.657712 0.255228 -0.725073
H26   H     H_    0.884659 0.669200 0.332628 0.345022

loop_
_geom_bond_atom_site_label_1
_geom_bond_atom_site_label_2
_ccdc_geom_bond_type
C48   O17   D    
O20   H22   S    
C16   C46   S    
O10   H15   S    
C23   O7    A    
C49   O21   D    
O22   H23   S    
C24   O8    A    
C39   C41   A    
O16   H19   S    
C3    C43   A    
O24   H24   S    
Cu2   N2    S    
C28   C29   S    
C35   C37   A    
C28   H5    S    
C20   C25   A    
C23   O5    A    
C33   C47   S    
C5    C36   S    
C6    C35   S    
C7    C9    A    
C7    H13   S    
C19   C26   A    
Cu2   O7    S    
O25   H25   S    
C33   C35   A    
C18   H12   S    
C39   H9    S    
C50   O23   D    
C7    C17   A    
Cu1   O5    S    
C1    O3    A    
C31   C33   A    
O12   H16   S    
C40   C42   A    
C1    C22   S    
C20   O14   S    
C27   C30   S    
C3    C24   S    
C1    O1    A    
C32   H8    S    
C2    O2    A    
O14   H18   S    
C37   O19   S    
Cu2   O3    S    
C4    C6    A    
O19   H21   S    
C45   O10   S    
C4    C23   S    
C4    C44   A    
C11   C26   S    
C40   H10   S    
Cu1   Cu2   S    
Cu1   O1    S    
C8    C18   A    
Cu2   O2    S    
C32   C34   A    
C46   O11   D    
Cu2   O6    S    
C46   O12   S    
C43   C49   S    
C47   O15   D    
C9    O25   S    
C2    C21   S    
C41   H1    S    
C42   H2    S    
C31   H7    S    
C19   O13   S    
C9    C11   A    
C10   C12   A    
C13   H3    S    
C16   C18   A    
C50   O24   S    
C5    C44   A    
C12   C14   A    
C6    C43   A    
C13   C15   A    
C14   C16   A    
Cu1   O4    S    
C27   H6    S    
C15   C17   A    
C21   C25   A    
C29   N2    T    
C31   C41   A    
C47   O16   S    
Cu1   O8    S    
C20   C22   A    
C3    C5    A    
C49   O22   S    
C2    O4    A    
C15   C45   S    
O26   H26   S    
C12   C25   S    
C36   C38   A    
C45   O9    D    
C37   C39   A    
C8    H14   S    
C38   C40   A    
C11   C13   A    
C14   H4    S    
C38   O20   S    
Cu1   N1    S    
C44   C50   S    
C34   C36   A    
C34   C48   S    
C24   O6    A    
O13   H17   S    
C8    C10   A    
C22   C26   A    
C30   N1    T    
C27   C28   D    
C48   O18   S    
C32   C42   A    
C10   O26   S    
O18   H20   S    
C17   H11   S    
C19   C21   A    
