data_mof_unit_43418.cif
_audit_creation_date              2012-10-26T19:41:54-0400
_audit_creation_method            fapswitch 2.2
_symmetry_space_group_name_H-M    P1
_symmetry_Int_Tables_number       1
_space_group_crystal_system       triclinic
_cell_length_a                    10.620509
_cell_length_b                    10.866336
_cell_length_c                    9.604412
_cell_angle_alpha                 88.285662
_cell_angle_beta                  90.127914
_cell_angle_gamma                 93.06119
_cell_volume                      1106.32970646

loop_
_atom_site_label
_atom_site_type_symbol
_atom_type_description
_atom_site_fract_x
_atom_site_fract_y
_atom_site_fract_z
_atom_type_partial_charge
C1    C     C_R   0.492160 0.262543 0.502180 0.541257
C2    C     C_R   0.406158 0.057168 0.603678 0.025264
C3    C     C_R   0.480393 0.128329 0.505142 -0.031920
C4    C     C_R   0.259428 0.500011 0.499746 0.540745
C5    C     C_R   0.537055 0.071671 0.395700 -0.153892
C6    C     C_R   0.526276 0.945611 0.382465 0.027843
C7    C     C_R   0.472044 0.870577 0.491994 -0.025422
C8    C     C_R   0.680666 0.650604 0.139154 -0.058429
C9    C     C_R   0.774562 0.717887 0.065120 -0.132395
C10   C     C_R   0.772733 0.720577 0.921591 -0.172096
C11   C     C_R   0.678753 0.653707 0.851570 -0.092223
C12   C     C_3   0.963237 0.601471 0.429847 -0.126023
C13   C     C_R   0.588511 0.574636 0.922940 0.150389
C14   C     C_R   0.589016 0.573805 0.072409 0.152774
C15   C     C_R   0.415387 0.429328 0.076123 0.006230
C16   C     C_R   0.490886 0.737121 0.497605 0.528319
C17   C     C_R   0.415498 0.429286 0.928297 0.001356
C18   C     C_R   0.740545 0.500452 0.500270 0.542524
C19   C     C_3   0.036614 0.399957 0.570302 -0.125026
C20   C     C_3   0.952182 0.398860 0.438891 -0.117861
C21   C     C_3   0.877523 0.500747 0.500973 0.044251
C22   C     C_3   0.959682 0.501889 0.632523 -0.115223
C23   C     C_3   0.040189 0.499575 0.367604 -0.107551
C24   C     C_3   0.047723 0.602584 0.561240 -0.124921
C25   C     C_2   0.561242 0.900873 0.245084 0.571552
C26   C     C_3   0.122411 0.500639 0.499144 0.045389
C27   C     C_R   0.329646 0.112106 0.702383 -0.100442
C28   C     C_R   0.256441 0.040214 0.797128 -0.117991
C29   C     C_R   0.253902 0.912581 0.792548 -0.116215
C30   C     C_R   0.324298 0.856022 0.692955 -0.099409
C31   C     C_R   0.403332 0.926493 0.598297 0.013475
Cu1   Cu    Cu3+1 0.499990 0.499990 0.640660 0.912335
Cu2   Cu    Cu3+1 0.500010 0.500010 0.359340 0.952005
H1    H     H_    0.909875 0.315582 0.388930 0.121845
H2    H     H_    0.069883 0.317580 0.627669 0.105595
H3    H     H_    0.924139 0.503032 0.741091 0.126917
H4    H     H_    0.089293 0.686082 0.611266 0.103937
H5    H     H_    0.929973 0.683840 0.372511 0.105917
H6    H     H_    0.075619 0.498675 0.258984 0.123661
H7    H     H_    0.586001 0.127288 0.314791 0.166550
H8    H     H_    0.320958 0.210326 0.704970 0.126735
H9    H     H_    0.198699 0.083885 0.872026 0.110128
H10   H     H_    0.500150 0.823434 0.067049 0.336127
H11   H     H_    0.193995 0.857059 0.863722 0.117611
H12   H     H_    0.310434 0.757218 0.687773 0.148527
H13   H     H_    0.346014 0.371323 0.133007 0.114383
H14   H     H_    0.679763 0.667508 0.247540 0.189528
H15   H     H_    0.845166 0.773718 0.119590 0.149038
H16   H     H_    0.842285 0.777923 0.863882 0.121795
H17   H     H_    0.680416 0.669237 0.741928 0.187140
H18   H     H_    0.345969 0.371539 0.875125 0.101973
N1    N     N_R   0.501210 0.501210 0.147910 -0.236959
N2    N     N_R   0.501250 0.501290 0.852040 -0.242685
O1    O     O_R   0.499990 0.319640 0.618810 -0.498787
O2    O     O_R   0.470295 0.837231 0.165247 -0.673329
O3    O     O_R   0.500000 0.319660 0.381240 -0.505066
O4    O     O_R   0.316850 0.499960 0.618770 -0.522415
O5    O     O_R   0.316860 0.499980 0.381190 -0.501074
O6    O     O_R   0.500000 0.680340 0.618760 -0.536871
O7    O     O_R   0.500010 0.680360 0.381190 -0.475234
O8    O     O_R   0.683140 0.500020 0.618810 -0.519650
O9    O     O_R   0.683150 0.500040 0.381230 -0.526146
O10   O     O_2   0.664519 0.931457 0.195471 -0.557860

loop_
_geom_bond_atom_site_label_1
_geom_bond_atom_site_label_2
_ccdc_geom_bond_type
C4    O4    A    
C8    C9    A    
C4    C26   S    
C1    O1    A    
C18   O8    A    
C6    C7    A    
C18   C21   S    
C22   H3    S    
C9    C10   A    
C12   C24   S    
C30   H12   S    
C19   C20   S    
Cu1   O6    S    
C20   C23   S    
C25   O10   D    
C30   C31   A    
C3    C5    A    
C2    C27   A    
C20   H1    S    
Cu1   Cu2   S    
C17   H18   S    
Cu2   O3    S    
C15   N1    A    
C2    C3    A    
C8    H14   S    
C11   H17   S    
C19   H2    S    
C13   C14   A    
Cu2   N1    S    
C11   C13   A    
C12   C23   S    
Cu2   O5    S    
Cu1   O4    S    
C23   H6    S    
Cu1   O1    S    
C28   C29   A    
C1    O3    A    
C24   C26   S    
Cu1   O8    S    
C24   H4    S    
Cu2   O7    S    
C13   N2    A    
C29   H11   S    
C12   H5    S    
C5    C6    A    
C22   C24   S    
C23   C26   S    
C6    C25   S    
C7    C31   A    
C10   C11   A    
C14   N1    A    
C29   C30   A    
C17   N2    A    
Cu1   N2    S    
C19   C22   S    
C20   C21   S    
C9    H15   S    
C16   O7    A    
C5    H7    S    
H10   O2    S    
C27   C28   A    
C15   C17   A    
C19   C26   S    
C27   H8    S    
C7    C16   S    
C8    C14   A    
C28   H9    S    
C15   H13   S    
C4    O5    A    
C21   C22   S    
C10   H16   S    
Cu2   O9    S    
C12   C21   S    
C18   O9    A    
C25   O2    S    
C2    C31   A    
C1    C3    S    
C16   O6    A    
