data_mof_unit_60145.cif
_audit_creation_date              2012-12-11T17:26:03-0500
_audit_creation_method            fapswitch 2.2
_symmetry_space_group_name_H-M    P1
_symmetry_Int_Tables_number       1
_space_group_crystal_system       triclinic
_cell_length_a                    6.948324
_cell_length_b                    18.959592
_cell_length_c                    20.736068
_cell_angle_alpha                 107.588005
_cell_angle_beta                  90.26298
_cell_angle_gamma                 90.534433
_cell_volume                      2603.82660489

loop_
_atom_site_label
_atom_site_type_symbol
_atom_type_description
_atom_site_fract_x
_atom_site_fract_y
_atom_site_fract_z
_atom_type_partial_charge
O1    O     O_R   0.505770 0.444240 0.557370 -0.537350
O2    O     O_R   0.169820 0.415250 0.421330 -0.534597
O3    O     O_R   0.005590 0.555760 0.442630 -0.530183
C1    C     C_R   0.338705 0.393634 0.395290 0.731345
O4    O     O_R   0.175660 0.435500 0.555540 -0.532621
O5    O     O_R   0.011460 0.576150 0.577800 -0.536024
C2    C     C_R   0.344493 0.421164 0.575645 0.711871
O6    O     O_R   0.499890 0.423850 0.422200 -0.534349
O7    O     O_3   0.341200 0.546120 0.507150 -0.363604
V1    V     V_3+5 0.063980 0.491440 0.498670 1.488141
O8    O     O_R   0.682100 0.584750 0.578670 -0.537936
C3    C     C_R   0.852045 0.606240 0.604597 0.716931
O9    O     O_R   0.676270 0.564500 0.444460 -0.528508
C4    C     C_R   0.845095 0.578835 0.424379 0.718697
V2    V     V_3+5 0.564720 0.508560 0.501330 1.489883
O10   O     O_3   0.837360 0.453880 0.492850 -0.367457
C5    C     C_R   0.044823 0.740829 0.204798 -0.169978
H1    H     H_    0.164347 0.733281 0.170067 0.164693
C6    C     C_R   0.903895 0.793373 0.205015 -0.004024
C7    C     C_R   0.750267 0.802443 0.250342 -0.179435
H2    H     H_    0.640420 0.842866 0.251053 0.166199
C8    C     C_R   0.737065 0.759740 0.295095 0.390816
C9    C     C_R   0.878467 0.706704 0.294900 -0.058719
C10   C     C_R   0.032757 0.697594 0.249133 0.392772
C11   C     C_1   0.916822 0.838021 0.158948 0.017123
C12   C     C_1   0.865403 0.661928 0.341098 0.171411
C13   C     C_1   0.855438 0.624339 0.379281 -0.102117
C14   C     C_1   0.926740 0.875614 0.120763 -0.182553
C15   C     C_1   0.916321 0.831612 0.833090 -0.186906
C16   C     C_1   0.900964 0.780175 0.780819 0.016270
C17   C     C_1   0.881458 0.719789 0.719199 0.017168
C18   C     C_1   0.866104 0.668350 0.666928 -0.181668
C19   C     C_1   0.352928 0.331303 0.332769 -0.173489
C20   C     C_1   0.375699 0.280077 0.280654 0.026376
C21   C     C_1   0.406766 0.220025 0.219278 0.022446
C22   C     C_1   0.429531 0.168787 0.167170 -0.184717
H3    H     H_    0.660635 0.331836 0.740706 0.168636
C23   C     C_R   0.555884 0.253154 0.788752 -0.116139
H4    H     H_    0.686184 0.256469 0.818465 0.137781
C24   C     C_R   0.403519 0.206489 0.794780 0.059714
C25   C     C_R   0.236506 0.203242 0.755537 -0.184728
H5    H     H_    0.117634 0.167478 0.759643 0.156517
C26   C     C_R   0.221527 0.245879 0.710723 0.400534
C27   C     C_R   0.374715 0.292836 0.704795 0.035237
C28   C     C_R   0.541338 0.296051 0.744292 -0.154935
C29   C     C_1   0.418085 0.161950 0.840934 -0.013480
C30   C     C_1   0.363076 0.337830 0.658837 0.064620
C31   C     C_1   0.353931 0.375557 0.620731 -0.140664
C32   C     C_1   0.428503 0.124405 0.879169 -0.177889
O11   O     O_R   0.282550 0.076220 0.077760 -0.533214
O12   O     O_R   0.606940 0.064510 0.944450 -0.536663
O13   O     O_R   0.770980 0.923830 0.922210 -0.533111
C33   C     C_R   0.438129 0.078879 0.924333 0.726975
O14   O     O_R   0.612630 0.084760 0.078660 -0.534631
O15   O     O_R   0.776710 0.944230 0.057380 -0.534563
C34   C     C_R   0.443743 0.106427 0.104670 0.721306
O16   O     O_R   0.276820 0.055820 0.942590 -0.534319
O17   O     O_3   0.441200 0.953910 0.992830 -0.367012
V3    V     V_3+5 0.718480 0.008550 0.001330 1.446045
O18   O     O_R   0.106020 0.935440 0.055580 -0.536530
C35   C     C_R   0.937156 0.921127 0.075651 0.724358
O19   O     O_R   0.100330 0.915180 0.921370 -0.536415
C36   C     C_R   0.930387 0.893720 0.895424 0.722496
V4    V     V_3+5 0.217720 0.991360 0.998720 1.446105
O20   O     O_3   0.945130 0.046090 0.007170 -0.366380
Cl1   Cl    Cl    0.213460 0.632106 0.245859 -0.597757
Cl2   Cl    Cl    0.541314 0.774285 0.351057 -0.575113
Cl3   Cl    Cl    0.009051 0.239111 0.662582 -0.652689

loop_
_geom_bond_atom_site_label_1
_geom_bond_atom_site_label_2
_ccdc_geom_bond_type
O5    V1    S    
O2    C1    A    
O8    C3    A    
C15   C36   S    
O19   C36   A    
O1    V2    S    
O13   V3    S    
O15   V3    S    
C4    C13   S    
O11   V4    S    
C25   H5    S    
C6    C7    A    
C27   C30   S    
C1    O6    A    
C16   C17   S    
C9    C10   A    
V4    O20   S    
C7    H2    S    
C19   C20   T    
O7    V2    S    
O4    V1    S    
O3    V1    S    
V1    O10   S    
O9    C4    A    
C2    C31   S    
C11   C14   T    
C23   C24   A    
C25   C26   A    
C29   C32   T    
C12   C13   T    
C15   C16   T    
O3    C4    A    
C32   C33   S    
O15   C35   A    
C24   C25   A    
C5    C6    A    
C7    C8    A    
O18   V4    S    
C5    H1    S    
O6    V2    S    
O14   V3    S    
O9    V2    S    
C26   C27   A    
O5    C3    A    
C23   H4    S    
C6    C11   S    
O14   C34   A    
C8    Cl2   S    
C5    C10   A    
O12   V3    S    
C24   C29   S    
C14   C35   S    
H3    C28   S    
V2    O10   S    
O2    V1    S    
C30   C31   T    
C10   Cl1   S    
O16   V4    S    
O11   C34   A    
C20   C21   S    
O7    V1    S    
C9    C12   S    
O4    C2    A    
C33   O16   A    
C1    C19   S    
C26   Cl3   S    
C23   C28   A    
O19   V4    S    
C21   C22   T    
O17   V4    S    
V3    O20   S    
O17   V3    S    
O1    C2    A    
O8    V2    S    
C8    C9    A    
C3    C18   S    
C27   C28   A    
C17   C18   T    
C22   C34   S    
O18   C35   A    
O12   C33   A    
O13   C36   A    
