data_mof_unit_44998.cif
_audit_creation_date              2012-12-10T16:54:53-0500
_audit_creation_method            fapswitch 2.2
_symmetry_space_group_name_H-M    P1
_symmetry_Int_Tables_number       1
_space_group_crystal_system       triclinic
_cell_length_a                    7.797076
_cell_length_b                    8.568577
_cell_length_c                    15.720081
_cell_angle_alpha                 91.670511
_cell_angle_beta                  85.108494
_cell_angle_gamma                 93.759697
_cell_volume                      1043.885782

loop_
_atom_site_label
_atom_site_type_symbol
_atom_type_description
_atom_site_fract_x
_atom_site_fract_y
_atom_site_fract_z
_atom_type_partial_charge
C1    C     C_R   0.545750 0.794680 0.497799 0.957132
C2    C     C_2   0.430243 0.041779 0.503176 -0.379003
C3    C     C_R   0.501153 0.501760 0.661543 0.892208
C4    C     C_R   0.454253 0.205336 0.502032 0.953484
C5    C     C_R   0.498800 0.497843 0.338400 0.886528
C6    C     C_3   0.432982 0.650114 0.957910 -0.514510
C7    C     C_3   0.687449 0.479865 0.941576 -0.450006
C8    C     C_3   0.687794 0.489479 0.040060 0.362235
C9    C     C_1   0.496447 0.492320 0.249517 -0.190472
C10   C     C_3   0.500992 0.496565 0.916960 0.225094
C11   C     C_3   0.952050 0.301625 0.361116 0.241800
C12   C     C_3   0.422304 0.642351 0.056315 -0.488633
C13   C     C_3   0.056107 0.181781 0.309842 -0.920952
C14   C     C_3   0.753432 0.226971 0.066670 0.119974
C15   C     C_3   0.915898 0.137366 0.053501 -0.886051
C16   C     C_3   0.325905 0.144858 0.855851 0.090576
C17   C     C_3   0.421449 0.030077 0.796624 -0.820232
C18   C     C_3   0.498280 0.489411 0.082592 0.175378
C19   C     C_3   0.380051 0.351732 0.049487 -0.463847
C20   C     C_3   0.380373 0.355475 0.950844 0.369082
C21   C     C_1   0.496553 0.488745 0.174113 -0.045997
C22   C     C_1   0.502531 0.502368 0.825619 -0.063441
C23   C     C_1   0.502993 0.503345 0.750309 -0.187476
C24   C     C_2   0.569774 0.958263 0.496372 -0.389186
H1    H     H_    0.493964 0.747035 0.082691 0.179873
H2    H     H_    0.774983 0.576378 0.913389 0.139547
H3    H     H_    0.746923 0.608368 0.054208 0.111310
H4    H     H_    0.245300 0.375798 0.936773 0.058982
H5    H     H_    0.245864 0.363693 0.078243 0.174319
H6    H     H_    0.948659 0.406553 0.321278 0.153743
H7    H     H_    0.820662 0.247433 0.375709 0.168310
H8    H     H_    0.071776 0.079636 0.349789 0.261348
H9    H     H_    0.987606 0.140479 0.253657 0.215052
H10   H     H_    0.185486 0.234814 0.287762 0.257907
H11   H     H_    0.677202 0.195208 0.011907 0.189868
H12   H     H_    0.303236 0.669493 0.937089 0.190715
H13   H     H_    0.679302 0.187857 0.126605 0.147434
H14   H     H_    0.999592 0.164646 0.106197 0.260443
H15   H     H_    0.881207 0.009581 0.051424 0.210449
H16   H     H_    0.988384 0.171049 0.992281 0.242769
H17   H     H_    0.276351 0.233144 0.815055 0.135907
H18   H     H_    0.215359 0.080633 0.891549 0.144892
H19   H     H_    0.472649 0.938776 0.834227 0.248033
H20   H     H_    0.332390 0.973007 0.751933 0.208607
H21   H     H_    0.530380 0.092936 0.759000 0.256031
H22   H     H_    0.285399 0.646651 0.082599 0.209830
H23   H     H_    0.414513 0.236782 0.070993 0.169270
H24   H     H_    0.701534 0.009401 0.489781 0.186987
H25   H     H_    0.298485 0.990660 0.509683 0.184828
H26   H     H_    0.988873 0.627432 0.558858 0.143342
H27   H     H_    0.521374 0.751466 0.936950 0.198775
H28   H     H_    0.738875 0.370044 0.913874 0.208361
N1    N     N_2   0.950340 0.457950 0.477370 0.093508
N2    N     N_2   0.049660 0.542050 0.522630 -0.087865
O1    O     O_R   0.389240 0.738570 0.505550 -0.622675
O2    O     O_3   0.800990 0.388398 0.074567 -0.619471
O3    O     O_3   0.439416 0.212939 0.914089 -0.629467
O4    O     O_R   0.678400 0.711630 0.491050 -0.644760
O5    O     O_R   0.355360 0.513470 0.630110 -0.623145
O6    O     O_R   0.644510 0.486530 0.615610 -0.625718
O7    O     O_R   0.321600 0.288370 0.508950 -0.557665
O8    O     O_R   0.610760 0.261430 0.494450 -0.636617
O9    O     O_R   0.355490 0.513470 0.384390 -0.575862
O10   O     O_R   0.644640 0.486530 0.369890 -0.660420
O11   O     O_3   0.031793 0.340305 0.436206 -0.495257
Zn1   Zn    Zn3+2 0.306930 0.517990 0.509680 1.001357
Zn2   Zn    Zn3+2 0.693070 0.482010 0.490320 0.953439

loop_
_geom_bond_atom_site_label_1
_geom_bond_atom_site_label_2
_ccdc_geom_bond_type
C6    C10   S    
C7    C10   S    
C2    C4    S    
C17   H19   S    
C15   H14   S    
C5    C9    S    
N2    Zn1   S    
C2    H25   S    
C16   H18   S    
C6    H27   S    
C18   C21   S    
N1    O11   S    
C14   O2    S    
C13   H8    S    
C3    C23   S    
C19   C20   S    
C12   H1    S    
C5    O10   A    
C9    C21   T    
C3    O6    A    
C8    O2    S    
C1    O1    A    
O9    Zn1   S    
C11   H7    S    
C7    C8    S    
C4    O7    A    
N1    N2    D    
C10   C22   S    
C14   H13   S    
C13   H9    S    
C11   C13   S    
C15   H15   S    
H26   N2    S    
C7    H2    S    
C1    O4    A    
O8    Zn2   S    
O7    Zn1   S    
C6    C12   S    
C6    H12   S    
C7    H28   S    
C16   O3    S    
O5    Zn1   S    
C2    C24   D    
O6    Zn2   S    
N1    Zn2   S    
C19   H23   S    
C15   H16   S    
C17   H20   S    
C19   H5    S    
O10   Zn2   S    
C4    O8    A    
O4    Zn2   S    
C13   H10   S    
O1    Zn1   S    
C5    O9    A    
C1    C24   S    
C12   H22   S    
C18   C19   S    
C12   C18   S    
C14   H11   S    
C8    H3    S    
C3    O5    A    
C22   C23   T    
C20   H4    S    
C10   C20   S    
C20   O3    S    
C14   C15   S    
C16   H17   S    
C8    C18   S    
C11   O11   S    
C11   H6    S    
C17   H21   S    
C16   C17   S    
C24   H24   S    
