data_mof_unit_13358.cif
_audit_creation_date              2013-03-05T16:06:40-0500
_audit_creation_method            fapswitch 2.2
_symmetry_space_group_name_H-M    P1
_symmetry_Int_Tables_number       1
_space_group_crystal_system       triclinic
_cell_length_a                    15.01711
_cell_length_b                    15.305669
_cell_length_c                    23.461231
_cell_angle_alpha                 90.110849
_cell_angle_beta                  105.308913
_cell_angle_gamma                 81.583622
_cell_volume                      5141.32329242

loop_
_atom_site_label
_atom_site_type_symbol
_atom_site_description
_atom_site_fract_x
_atom_site_fract_y
_atom_site_fract_z
_atom_type_partial_charge
O1    O     O_R   0.383120 0.605620 0.483150 -0.573479
O2    O     O_R   0.616880 0.394380 0.516850 -0.594139
O3    O     O_R   0.531890 0.639510 0.504600 -0.589796
O4    O     O_R   0.468110 0.360490 0.495400 -0.561811
C1    C     C_R   0.441145 0.663028 0.492023 0.901680
C2    C     C_R   0.558845 0.336909 0.508501 0.927793
O5    O     O_R   0.425590 0.483070 0.573110 -0.639581
O6    O     O_R   0.574410 0.516930 0.426890 -0.623849
O7    O     O_R   0.574360 0.516970 0.594570 -0.578820
O8    O     O_R   0.425640 0.483030 0.405430 -0.558272
C3    C     C_R   0.501203 0.502004 0.610465 0.878237
C4    C     C_R   0.499527 0.498707 0.389628 0.907041
Zn1   Zn    Zn3+2 0.400660 0.477370 0.485670 1.047946
Zn2   Zn    Zn3+2 0.599340 0.522630 0.514330 1.026159
C5    C     C_R   0.563419 0.434227 0.130529 0.538682
C6    C     C_R   0.505744 0.586604 0.881306 0.542392
N1    N     N_R   0.516063 0.505584 0.150539 -0.366237
N2    N     N_R   0.525945 0.508112 0.856248 -0.367386
C7    C     C_R   0.470074 0.576520 0.114020 0.526089
C8    C     C_R   0.544351 0.429594 0.887660 0.522746
C9    C     C_R   0.480787 0.583108 0.056557 -0.017842
C10   C     C_R   0.554174 0.428480 0.948904 -0.014170
C11   C     C_R   0.522885 0.507184 0.033734 -0.093845
C12   C     C_R   0.525157 0.507913 0.974172 -0.093184
C13   C     C_R   0.561360 0.430139 0.070273 -0.019325
C14   C     C_R   0.496957 0.587723 0.939555 -0.021909
C15   C     C_R   0.450209 0.662464 0.021620 0.071099
C16   C     C_R   0.590463 0.350660 0.984902 0.070551
C17   C     C_R   0.460469 0.665388 0.963679 0.072588
C18   C     C_R   0.596204 0.352035 0.045834 0.074378
O9    O     O_2   0.612020 0.367924 0.169145 -0.495316
O10   O     O_2   0.493773 0.662759 0.849438 -0.485916
O11   O     O_2   0.412940 0.639191 0.133241 -0.512383
O12   O     O_2   0.550508 0.353229 0.859116 -0.520145
C19   C     C_R   0.600127 0.475031 0.774463 0.161119
C20   C     C_R   0.548045 0.568528 0.249854 0.157694
C21   C     C_R   0.590869 0.471136 0.714027 -0.143258
C22   C     C_R   0.538625 0.567466 0.307137 -0.210695
H1    H     H_    0.650652 0.442910 0.698795 0.188974
H2    H     H_    0.564561 0.618268 0.336521 0.180931
C23   C     C_R   0.506418 0.505484 0.673290 -0.077734
C24   C     C_R   0.500002 0.499785 0.327631 -0.082436
C25   C     C_R   0.431485 0.548212 0.693290 0.059953
C26   C     C_R   0.474328 0.429863 0.291002 0.117206
C27   C     C_R   0.437713 0.544301 0.753669 -0.115196
C28   C     C_R   0.474715 0.435779 0.231657 -0.128601
H3    H     H_    0.378904 0.573324 0.769533 0.175202
H4    H     H_    0.450996 0.384445 0.202129 0.164372
C29   C     C_R   0.521308 0.507847 0.794443 0.214287
C30   C     C_R   0.511566 0.504454 0.210794 0.226015
C31   C     C_R   0.407222 0.756624 0.498738 -0.142265
C32   C     C_R   0.597705 0.241955 0.516440 -0.179685
C33   C     C_R   0.335543 0.858879 0.558313 -0.157780
C34   C     C_R   0.719292 0.120947 0.511978 -0.164196
C35   C     C_R   0.335041 0.781608 0.526435 0.257767
C36   C     C_R   0.684050 0.210720 0.504468 0.261386
C37   C     C_R   0.466769 0.816671 0.493693 0.070682
C38   C     C_R   0.548429 0.182567 0.537127 0.034558
C39   C     C_R   0.475128 0.888765 0.531703 0.075592
C40   C     C_R   0.584834 0.090870 0.544770 0.045819
C41   C     C_R   0.407502 0.910250 0.564067 -0.053423
C42   C     C_R   0.669243 0.060177 0.529296 -0.052452
C43   C     C_R   0.546292 0.942070 0.537089 0.038319
C44   C     C_R   0.533512 0.027084 0.558966 0.025920
C45   C     C_R   0.473025 0.043252 0.595669 -0.274213
C46   C     C_R   0.632945 0.911392 0.526179 -0.230562
C47   C     C_R   0.411469 0.984832 0.599670 0.330328
C48   C     C_R   0.697372 0.968499 0.526204 0.307702
H5    H     H_    0.278833 0.878624 0.578243 0.237188
H6    H     H_    0.782099 0.098541 0.498487 0.229197
H7    H     H_    0.477304 0.098336 0.624396 0.188680
H8    H     H_    0.654093 0.842099 0.521582 0.211647
N3    N     N_R   0.731690 0.552740 0.533440 -0.186993
N4    N     N_R   0.268310 0.447260 0.466560 -0.178486
C49   C     C_R   0.851688 0.620372 0.598866 0.182319
C50   C     C_R   0.149962 0.375048 0.402313 0.178358
C51   C     C_R   0.758360 0.606617 0.579333 0.314856
C52   C     C_R   0.241931 0.393266 0.420616 0.335528
C53   C     C_R   0.792232 0.515417 0.503553 -0.026571
C54   C     C_R   0.207389 0.479485 0.498042 -0.004142
C55   C     C_R   0.886297 0.529723 0.519677 -0.034072
C56   C     C_R   0.113505 0.463102 0.481462 -0.032659
C57   C     C_R   0.917946 0.572695 0.573103 -0.136367
C58   C     C_R   0.082803 0.420063 0.428130 -0.146135
C59   C     C_R   0.950831 0.497717 0.486854 0.061037
C60   C     C_R   0.048350 0.492755 0.514235 0.060426
C61   C     C_R   0.077747 0.512047 0.574694 -0.009380
C62   C     C_R   0.921349 0.473915 0.427042 -0.000743
C63   C     C_R   0.014206 0.559080 0.602347 0.335008
C64   C     C_R   0.986273 0.428924 0.399610 0.329428
H9    H     H_    0.230746 0.522750 0.533338 0.185990
H10   H     H_    0.767416 0.469508 0.470392 0.216471
N5    N     N_3   0.412363 0.741149 0.045862 -0.374076
H11   H     H_    0.344736 0.763269 0.019816 0.210624
H12   H     H_    0.454167 0.789988 0.045653 0.186570
N6    N     N_3   0.625141 0.271134 0.960056 -0.372075
H13   H     H_    0.588290 0.220864 0.966604 0.206453
H14   H     H_    0.695959 0.252632 0.981282 0.191884
N7    N     N_R   0.046249 0.578695 0.663586 0.218435
O13   O     O_R   0.018769 0.538730 0.703341 -0.331092
O14   O     O_R   0.106450 0.633065 0.680003 -0.321808
N8    N     N_R   0.954324 0.406376 0.338906 0.221737
O15   O     O_R   0.895058 0.350860 0.323926 -0.296310
O16   O     O_R   0.979004 0.446523 0.297994 -0.324128
N9    N     N_R   0.305090 0.361696 0.386967 0.245832
O17   O     O_R   0.290099 0.396707 0.334187 -0.323411
O18   O     O_R   0.355443 0.284159 0.400179 -0.368395
N10   N     N_R   0.692591 0.644704 0.610070 0.251236
O19   O     O_R   0.646216 0.723103 0.593940 -0.391629
O20   O     O_R   0.697000 0.612165 0.662098 -0.324521
N11   N     N_R   0.877136 0.687381 0.640571 0.254355
O21   O     O_R   0.921841 0.748179 0.627913 -0.254497
O22   O     O_R   0.855049 0.689027 0.690624 -0.244049
N12   N     N_R   0.127309 0.305554 0.362033 0.254070
O23   O     O_R   0.146683 0.304170 0.311153 -0.243199
O24   O     O_R   0.086538 0.242885 0.376512 -0.298177
N13   N     N_3   0.166552 0.469455 0.610323 -0.455639
H15   H     H_    0.199179 0.515388 0.637767 0.215691
H16   H     H_    0.154166 0.421395 0.637699 0.235830
N14   N     N_3   0.828102 0.505001 0.391772 -0.446552
H17   H     H_    0.831605 0.544120 0.356165 0.231374
H18   H     H_    0.795662 0.450843 0.375253 0.256503
N15   N     N_3   0.430265 0.746437 0.928597 -0.355023
H19   H     H_    0.359113 0.766510 0.924129 0.204988
H20   H     H_    0.467787 0.795033 0.949825 0.201537
N16   N     N_3   0.634060 0.273046 0.082341 -0.360147
H21   H     H_    0.703041 0.253150 0.080983 0.210456
H22   H     H_    0.594549 0.223156 0.066150 0.190719
N17   N     N_3   0.690963 0.450212 0.814303 -0.413175
H23   H     H_    0.705368 0.501444 0.843261 0.213142
H24   H     H_    0.691783 0.393318 0.838906 0.233525
N18   N     N_3   0.600009 0.631429 0.233753 -0.436421
H25   H     H_    0.651439 0.597744 0.215826 0.204219
H26   H     H_    0.555614 0.676690 0.201890 0.237943
N19   N     N_3   0.354904 0.603556 0.653520 -0.388214
H27   H     H_    0.319171 0.563959 0.622300 0.204020
H28   H     H_    0.307475 0.633161 0.675994 0.249560
N20   N     N_3   0.456684 0.350168 0.315268 -0.326425
H29   H     H_    0.519303 0.320154 0.344144 0.217681
H30   H     H_    0.437700 0.305531 0.282033 0.222274
N21   N     N_R   0.353722 0.002637 0.639707 0.215634
O25   O     O_R   0.321499 0.083790 0.648403 -0.346795
O26   O     O_R   0.346047 0.939680 0.674508 -0.319334
N22   N     N_R   0.788300 0.932883 0.519936 0.222587
O27   O     O_R   0.798667 0.863336 0.488946 -0.350065
O28   O     O_R   0.862362 0.960281 0.552969 -0.293729
N23   N     N_3   0.456575 0.215876 0.542719 -0.402502
H31   H     H_    0.407255 0.176510 0.521654 0.238376
H32   H     H_    0.457901 0.227246 0.586773 0.192900
N24   N     N_3   0.506700 0.808727 0.444078 -0.449343
H33   H     H_    0.511540 0.870920 0.427860 0.212607
H34   H     H_    0.571937 0.769043 0.455563 0.217325
N25   N     N_R   0.732876 0.267635 0.479228 0.217164
O29   O     O_R   0.823442 0.260116 0.497522 -0.347133
O30   O     O_R   0.689534 0.314802 0.431181 -0.418209
N26   N     N_R   0.259634 0.731392 0.521131 0.214515
O31   O     O_R   0.219000 0.703532 0.469743 -0.343521
O32   O     O_R   0.218511 0.730401 0.563442 -0.354061

loop_
_geom_bond_atom_site_label_1
_geom_bond_atom_site_label_2
_geom_bond_distance
_ccdc_geom_bond_type
C16   N6    1.436840 S    
C46   C48   1.395455 A    
C18   N16   1.436700 S    
N5    H11   1.044920 S    
C15   C17   1.409421 A    
C62   C64   1.404302 A    
N23   H31   1.044999 S    
C33   H5    1.081488 S    
C50   C58   1.405790 A    
N13   H16   1.045538 S    
N12   O23   1.300575 A    
N15   H19   1.044961 S    
C59   C60   1.426154 A    
O5    C3    1.308154 A    
N9    O18   1.300460 A    
N16   H21   1.044922 S    
C24   C26   1.405257 A    
C63   N7    1.435774 S    
C52   N9    1.419874 S    
O1    C1    1.304728 A    
C10   C12   1.413492 A    
N26   O31   1.301304 A    
N23   H32   1.043247 S    
C50   C52   1.403118 A    
C61   N13   1.435661 S    
C20   N18   1.433705 S    
C37   C39   1.416404 A    
C38   C40   1.423160 A    
N10   O19   1.298473 A    
C40   C42   1.423833 A    
O4    Zn1   1.904573 S    
C64   N8    1.436456 S    
C4    C24   1.456565 S    
N15   H20   1.044916 S    
C33   C41   1.405509 A    
C46   H8    1.075344 S    
N11   O21   1.301547 A    
C26   C28   1.397009 A    
N18   H25   1.045622 S    
C45   C47   1.396762 A    
N6    H14   1.044941 S    
C19   C29   1.411044 A    
C50   N12   1.439594 S    
C11   C12   1.406891 A    
C48   N22   1.439134 S    
C31   C37   1.398290 A    
C62   N14   1.437547 S    
C19   N17   1.433578 S    
C31   C35   1.411762 A    
C8    O12   1.349515 S    
C27   H3    1.083459 S    
C9    C15   1.414136 A    
C43   C46   1.405644 A    
N5    H12   1.044947 S    
N4    C54   1.359805 A    
N6    H13   1.044920 S    
C23   C25   1.405824 A    
O2    C2    1.305856 A    
C58   C64   1.413539 A    
O6    Zn2   1.989859 S    
C55   C57   1.415391 A    
N14   H18   1.044935 S    
C28   H4    1.083356 S    
C33   C35   1.397973 A    
C9    C11   1.413530 A    
C6    C14   1.407025 A    
C35   N26   1.438238 S    
C57   C63   1.411536 A    
C34   C36   1.392097 A    
C39   C41   1.422835 A    
Zn2   N3    2.039707 S    
N19   H27   1.038138 S    
N22   O28   1.301378 A    
C7    O11   1.349571 S    
C53   C55   1.412273 A    
C38   N23   1.438500 S    
N16   H22   1.044961 S    
C34   C42   1.400885 A    
C45   H7    1.077026 S    
N21   O26   1.301424 A    
C25   N19   1.435951 S    
O7    Zn2   2.018707 S    
C25   C27   1.395591 A    
C41   C47   1.412198 A    
N7    O13   1.301448 A    
C34   H6    1.081621 S    
C27   C29   1.401864 A    
O6    C4    1.295514 A    
C37   N24   1.440830 S    
N3    C53   1.351895 A    
N11   O22   1.301059 A    
N22   O27   1.301611 A    
C32   C38   1.413359 A    
N8    O16   1.301177 A    
C49   C51   1.401934 A    
C53   H10   1.076733 S    
O3    Zn2   1.904572 S    
O8    C4    1.312123 A    
N18   H26   1.042507 S    
O4    C2    1.310218 A    
N7    O14   1.301258 A    
C8    C10   1.405022 A    
C56   C58   1.411795 A    
O7    C3    1.299530 A    
N19   H28   1.045713 S    
N24   H34   1.043231 S    
C15   N5    1.436847 S    
N25   O30   1.301409 A    
C20   C22   1.388363 A    
C47   N21   1.438252 S    
C20   C30   1.410784 A    
N14   H17   1.045708 S    
C19   C21   1.389721 A    
N17   H23   1.045587 S    
C59   C62   1.419527 A    
C13   C18   1.415710 A    
C5    N1    1.365993 A    
C26   N20   1.434975 S    
C7    C9    1.404768 A    
C60   C61   1.414191 A    
C49   N11   1.438307 S    
C51   N10   1.428730 S    
C12   C14   1.414889 A    
C36   N25   1.437123 S    
O3    C1    1.310783 A    
O8    Zn1   2.018711 S    
N1    C30   1.433232 S    
N12   O24   1.301279 A    
C5    O9    1.349403 S    
N20   H30   1.045747 S    
C6    O10   1.349453 S    
N9    O17   1.300480 A    
C28   C30   1.402138 A    
C39   C43   1.416760 A    
C42   C48   1.412418 A    
C40   C44   1.419551 A    
C44   C45   1.405072 A    
C54   H9    1.076937 S    
N26   O32   1.301339 A    
C21   H1    1.084256 S    
C56   C60   1.421429 A    
N13   H15   1.039915 S    
C22   H2    1.084595 S    
C49   C57   1.411094 A    
C17   N15   1.436725 S    
C16   C18   1.409546 A    
N1    C7    1.364355 A    
C54   C56   1.419655 A    
N10   O20   1.300920 A    
C3    C23   1.456535 S    
N2    C8    1.364682 A    
C11   C13   1.414992 A    
C21   C23   1.401749 A    
N8    O15   1.301023 A    
O2    Zn2   1.940857 S    
C5    C13   1.407298 A    
N20   H29   1.045285 S    
C43   C44   1.403469 A    
C22   C24   1.402060 A    
O5    Zn1   1.989859 S    
O1    Zn1   1.940857 S    
Zn1   N4    2.039707 S    
C14   C17   1.415669 A    
C6    N2    1.365902 A    
N4    C52   1.366987 A    
C61   C63   1.404864 A    
N3    C51   1.365745 A    
N24   H33   1.045202 S    
C1    C31   1.471197 S    
C10   C16   1.414145 A    
C2    C32   1.477436 S    
N25   O29   1.301272 A    
N21   O25   1.301450 A    
C55   C59   1.423300 A    
C32   C36   1.413894 A    
N2    C29   1.433247 S    
N17   H24   1.042444 S    
