data_mof_unit_38420.cif
_audit_creation_date              2013-03-05T15:55:18-0500
_audit_creation_method            fapswitch 2.2
_symmetry_space_group_name_H-M    P1
_symmetry_Int_Tables_number       1
_space_group_crystal_system       triclinic
_cell_length_a                    27.690734
_cell_length_b                    10.622053
_cell_length_c                    9.921313
_cell_angle_alpha                 89.670294
_cell_angle_beta                  89.88308
_cell_angle_gamma                 91.874377
_cell_volume                      2916.56310739

loop_
_atom_site_label
_atom_site_type_symbol
_atom_site_description
_atom_site_fract_x
_atom_site_fract_y
_atom_site_fract_z
_atom_type_partial_charge
O1    O     O_R   0.500000 0.316780 0.614690 -0.657832
O2    O     O_R   0.500000 0.316750 0.385360 -0.617098
C1    C     C_R   0.501233 0.260762 0.500329 0.868992
O3    O     O_R   0.428760 0.500030 0.614650 -0.572122
O4    O     O_R   0.428750 0.500010 0.385320 -0.653102
C2    C     C_R   0.406028 0.499479 0.500119 0.889220
Zn1   Zn    Zn3+2 0.500000 0.500020 0.653130 0.975859
Zn2   Zn    Zn3+2 0.500000 0.499980 0.346870 0.987425
O5    O     O_R   0.500000 0.683250 0.614640 -0.617824
O6    O     O_R   0.500000 0.683220 0.385310 -0.589237
O7    O     O_R   0.571250 0.499990 0.614680 -0.627927
O8    O     O_R   0.571240 0.499970 0.385350 -0.581166
C3    C     C_R   0.501433 0.739428 0.499592 0.867841
C4    C     C_R   0.593806 0.498721 0.499924 0.896837
C5    C     C_R   0.174463 0.405763 0.553070 0.561207
O9    O     O_2   0.196983 0.310583 0.614882 -0.549222
N1    N     N_R   0.200945 0.498853 0.488781 -0.342180
C6    C     C_R   0.179477 0.595213 0.422483 0.524186
C7    C     C_R   0.276556 0.516716 0.614536 -0.182139
C8    C     C_R   0.326730 0.517157 0.618621 0.606113
C9    C     C_R   0.328439 0.476435 0.377590 -0.297503
C10   C     C_R   0.278319 0.475677 0.374400 -0.085791
C11   C     C_R   0.252380 0.496429 0.492636 0.214456
C12   C     C_R   0.101033 0.507913 0.488558 -0.055440
C13   C     C_R   0.124010 0.408857 0.554737 -0.128578
C14   C     C_R   0.096288 0.313866 0.618455 -0.192076
C15   C     C_R   0.129096 0.601038 0.420159 -0.005173
C16   C     C_R   0.353139 0.497623 0.499447 -0.184972
H1    H     H_    0.347762 0.460296 0.284579 0.199421
H2    H     H_    0.259561 0.459447 0.280095 0.167551
H3    H     H_    0.113163 0.233395 0.663819 0.220189
C17   C     C_R   0.646524 0.504985 0.500545 -0.112603
C18   C     C_R   0.972203 0.440080 0.582027 0.057990
C19   C     C_R   0.976194 0.610190 0.411622 0.050255
C20   C     C_R   0.949008 0.528474 0.498555 0.075079
C21   C     C_R   0.944406 0.374242 0.680721 -0.125175
C22   C     C_R   0.894587 0.383295 0.685853 -0.147098
C23   C     C_R   0.870979 0.460692 0.594784 -0.029290
C24   C     C_R   0.898099 0.535352 0.502442 -0.052037
C25   C     C_R   0.874245 0.616387 0.413658 -0.030086
C26   C     C_R   0.823749 0.618340 0.416223 0.585859
N2    N     N_R   0.798289 0.543554 0.505435 -0.339680
C27   C     C_R   0.820643 0.466055 0.594335 0.562336
C28   C     C_R   0.724313 0.465478 0.402097 -0.146788
C29   C     C_R   0.674283 0.445142 0.401451 -0.053516
C30   C     C_R   0.669303 0.579637 0.599518 -0.250106
C31   C     C_R   0.719422 0.598919 0.600794 0.016740
C32   C     C_R   0.746820 0.540129 0.500754 0.223402
O10   O     O_2   0.794066 0.393494 0.680732 -0.510080
C33   C     C_R   0.022472 0.423747 0.567208 -0.100295
C34   C     C_R   0.050084 0.513895 0.490867 0.011336
C35   C     C_R   0.027261 0.609788 0.416499 0.080628
C36   C     C_R   0.046306 0.319419 0.623250 0.592623
H4    H     H_    0.746579 0.418370 0.329245 0.175993
H5    H     H_    0.874661 0.329349 0.761853 0.204531
H6    H     H_    0.960475 0.318916 0.759089 0.217554
O11   O     O_2   0.206887 0.685646 0.360321 -0.547453
C37   C     C_R   0.106453 0.698464 0.352606 -0.124899
H7    H     H_    0.256308 0.533282 0.705896 0.174909
H8    H     H_    0.127319 0.772152 0.300925 0.194984
C38   C     C_R   0.951216 0.689441 0.322566 -0.202833
C39   C     C_R   0.901122 0.691932 0.323402 -0.113317
O12   O     O_2   0.800168 0.693916 0.330560 -0.524531
C40   C     C_R   0.056446 0.702723 0.350247 -0.198998
H9    H     H_    0.969364 0.748047 0.247886 0.150784
H10   H     H_    0.647631 0.625622 0.674548 0.181150
H11   H     H_    0.883541 0.753607 0.252789 0.197119
H12   H     H_    0.041696 0.782491 0.299006 0.151833
H13   H     H_    0.438916 0.109617 0.382919 0.138392
C41   C     C_R   0.582215 0.137351 0.624328 -0.232129
H14   H     H_    0.584056 0.239103 0.624790 0.191235
C42   C     C_R   0.620328 0.074435 0.683221 0.718781
C43   C     C_R   0.620503 0.943422 0.681920 -0.208309
H15   H     H_    0.650285 0.894574 0.726484 0.201202
C44   C     C_R   0.582596 0.875020 0.621718 -0.288135
H16   H     H_    0.584662 0.773673 0.620070 0.163802
C45   C     C_R   0.543464 0.937352 0.562613 0.097535
C46   C     C_R   0.543268 0.069258 0.563801 0.013144
C47   C     C_R   0.504487 0.128720 0.500417 -0.039463
C48   C     C_R   0.468060 0.061942 0.432675 -0.215695
H17   H     H_    0.439179 0.881280 0.381587 0.159397
C49   C     C_R   0.468240 0.933371 0.431725 -0.155619
C50   C     C_R   0.504846 0.872034 0.498501 -0.040364
C51   C     C_R   0.436235 0.335442 0.141287 -0.147724
H18   H     H_    0.434179 0.329492 0.248207 0.193713
C52   C     C_R   0.404808 0.254447 0.071725 -0.193871
H19   H     H_    0.380332 0.191158 0.126633 0.158729
C53   C     C_R   0.404858 0.254387 0.932183 -0.141831
H20   H     H_    0.380422 0.191041 0.878284 0.161734
C54   C     C_R   0.436340 0.335324 0.861363 -0.074273
H21   H     H_    0.434466 0.329348 0.754452 0.193570
C55   C     C_R   0.468556 0.419037 0.928436 0.173639
C56   C     C_R   0.468531 0.419098 0.072970 0.152284
N3    N     N_R   0.499540 0.498800 0.142780 -0.163819
C57   C     C_R   0.530497 0.577052 0.069826 0.007145
H22   H     H_    0.555001 0.638856 0.871280 0.151993
C58   C     C_R   0.530328 0.576573 0.926869 -0.112599
N4    N     N_R   0.499520 0.498720 0.857170 -0.126479
C59   C     C_2   0.742069 0.680598 0.706383 0.957337
O13   O     O_2   0.719252 0.705943 0.807869 -0.594612
O14   O     O_R   0.789083 0.730480 0.689896 -0.793791
H23   H     H_    0.800100 0.784431 0.768728 0.364312
F1    F     F_    0.657507 0.140951 0.740269 -0.612760
C60   C     C_2   0.565125 0.662576 0.137712 0.965507
O15   O     O_2   0.553235 0.768380 0.168572 -0.612289
O16   O     O_R   0.612410 0.625098 0.158870 -0.764936
H24   H     H_    0.633120 0.692198 0.205384 0.352969
C61   C     C_2   0.652953 0.355275 0.302013 0.991618
O17   O     O_2   0.670990 0.347049 0.189881 -0.552931
O18   O     O_R   0.613421 0.276687 0.337662 -0.811165
H25   H     H_    0.602460 0.219341 0.261531 0.360268
F2    F     F_    0.022004 0.216262 0.672800 -0.672320
F3    F     F_    0.349071 0.538707 0.738364 -0.649425

loop_
_geom_bond_atom_site_label_1
_geom_bond_atom_site_label_2
_geom_bond_distance
_ccdc_geom_bond_type
C26   N2    1.365360 A    
C56   N3    1.376710 A    
Zn1   N4    2.024325 S    
C41   C46   1.415437 A    
C17   C29   1.413342 A    
C20   C24   1.414429 A    
C7    C8    1.389909 A    
C12   C15   1.408077 A    
C1    C47   1.408374 S    
C60   O16   1.396852 S    
H17   C49   1.084823 S    
C25   C39   1.396277 A    
C45   C46   1.401420 A    
C28   C29   1.395142 A    
Zn1   O7    2.008752 S    
N1    C11   1.425918 S    
C39   H11   1.083498 S    
C40   H12   1.077821 S    
C21   C22   1.386852 A    
C51   C52   1.390714 A    
C30   H10   1.083690 S    
C8    F3    1.357697 S    
O7    C4    1.297840 A    
C52   C53   1.384442 A    
C5    C13   1.398605 A    
O16   H24   1.013877 S    
C45   C50   1.410241 A    
C37   H8    1.083514 S    
C5    O9    1.350106 S    
C58   N4    1.361119 A    
C18   C21   1.412144 A    
C31   C59   1.490292 S    
C61   O17   1.223286 D    
C5    N1    1.365916 A    
C19   C20   1.417747 A    
C43   H15   1.082444 S    
O5    C3    1.284884 A    
O18   H25   1.013803 S    
C2    C16   1.464047 S    
C59   O13   1.223576 D    
C41   H14   1.080387 S    
C29   C61   1.486500 S    
C12   C34   1.414479 A    
C14   H3    1.083561 S    
O1    Zn1   1.985549 S    
C9    C10   1.388038 A    
C43   C44   1.394305 A    
C38   C39   1.388254 A    
O3    Zn1   2.010061 S    
C60   O15   1.221863 D    
C33   C34   1.420059 A    
C37   C40   1.387197 A    
C23   C24   1.407874 A    
C33   C36   1.419531 A    
C55   N4    1.376452 A    
C34   C35   1.420098 A    
O14   H23   1.013832 S    
Zn2   N3    2.025015 S    
C12   C13   1.407306 A    
C48   C49   1.365953 A    
C35   C40   1.413438 A    
C4    C17   1.459162 S    
C24   C25   1.408539 A    
C46   C47   1.410724 A    
C27   O10   1.350231 S    
C8    C16   1.408907 A    
C7    H7    1.083113 S    
C18   C33   1.415823 A    
C9    H1    1.083066 S    
O6    C3    1.284539 A    
C19   C38   1.414128 A    
O1    C1    1.285112 A    
C7    C11   1.397901 A    
C44   H16   1.080113 S    
C22   C23   1.395928 A    
C21   H6    1.077566 S    
C28   H4    1.084210 S    
C6    O11   1.350083 S    
C54   C55   1.409498 A    
C31   C32   1.409152 A    
Zn2   O8    2.010058 S    
H22   C58   1.083210 S    
N1    C6    1.366515 A    
N2    C32   1.425339 S    
C51   H18   1.063604 S    
C44   C45   1.414740 A    
C36   F2    1.356243 S    
O3    C2    1.300064 A    
C25   C26   1.399274 A    
C59   O14   1.398322 S    
C9    C16   1.405895 A    
O8    C4    1.298482 A    
N2    C27   1.366008 A    
C26   O12   1.349765 S    
C14   C36   1.387951 A    
C57   C60   1.466632 S    
Zn1   O5    1.981231 S    
C30   C31   1.396304 A    
C10   H2    1.083009 S    
C52   H19   1.082826 S    
C17   C30   1.403432 A    
O2    Zn2   1.981229 S    
C6    C15   1.398701 A    
C53   C54   1.390778 A    
C42   C43   1.391931 A    
C15   C37   1.396224 A    
O4    Zn2   2.008754 S    
C57   C58   1.418379 A    
C42   F1    1.356052 S    
C3    C50   1.408609 S    
C19   C35   1.415137 A    
O2    C1    1.284364 A    
C13   C14   1.395344 A    
C23   C27   1.396874 A    
C54   H21   1.064226 S    
O4    C2    1.299963 A    
C55   C56   1.433967 A    
C18   C20   1.418676 A    
C61   O18   1.398382 S    
C51   C56   1.409763 A    
N3    C57   1.376064 A    
C47   C48   1.390576 A    
C22   H5    1.083506 S    
C38   H9    1.077845 S    
C53   H20   1.082771 S    
Zn2   O6    1.985549 S    
C49   C50   1.389921 A    
C10   C11   1.396591 A    
H13   C48   1.084865 S    
C41   C42   1.394994 A    
C28   C32   1.397988 A    
