data_mof_unit_14832.cif
_audit_creation_date              2012-12-10T19:45:45-0500
_audit_creation_method            fapswitch 2.2
_symmetry_space_group_name_H-M    P1
_symmetry_Int_Tables_number       1
_space_group_crystal_system       triclinic
_cell_length_a                    10.776379
_cell_length_b                    14.697125
_cell_length_c                    14.6085
_cell_angle_alpha                 65.452034
_cell_angle_beta                  102.867039
_cell_angle_gamma                 102.865576
_cell_volume                      2029.5270206

loop_
_atom_site_label
_atom_site_type_symbol
_atom_type_description
_atom_site_fract_x
_atom_site_fract_y
_atom_site_fract_z
_atom_type_partial_charge
C1    C     C_R   0.477086 0.119486 0.312151 0.806941
C2    C     C_R   0.615184 0.782464 0.972915 -0.131445
C3    C     C_R   0.400462 0.150629 0.128358 -0.210852
C4    C     C_R   0.599537 0.849371 0.871642 -0.210852
C5    C     C_R   0.499528 0.290650 0.178826 -0.164117
C6    C     C_R   0.500472 0.709350 0.821174 -0.164118
C7    C     C_R   0.477338 0.360420 0.078330 0.095761
C8    C     C_R   0.522661 0.639580 0.921670 0.095761
C9    C     C_R   0.423249 0.321821 0.001521 0.166879
C10   C     C_R   0.576749 0.678179 0.998479 0.166880
C11   C     C_R   0.508629 0.466873 0.052161 0.069788
C12   C     C_R   0.522914 0.880514 0.687848 0.806941
C13   C     C_R   0.491369 0.533127 0.947838 0.069788
C14   C     C_R   0.445262 0.490663 0.873175 -0.164965
C15   C     C_R   0.554736 0.509337 0.126825 -0.164965
C16   C     C_R   0.262925 0.998826 0.502741 0.805979
C17   C     C_R   0.737075 0.001174 0.497259 0.805979
C18   C     C_R   0.409539 0.387330 0.899944 -0.163193
C19   C     C_R   0.590460 0.612670 0.100056 -0.163193
C20   C     C_R   0.656971 0.260417 0.698956 0.350108
C21   C     C_R   0.343029 0.739583 0.301044 0.350108
C22   C     C_R   0.642052 0.187649 0.657827 -0.005913
C23   C     C_R   0.870704 0.001901 0.495525 -0.055714
C24   C     C_R   0.357948 0.812351 0.342173 -0.005912
C25   C     C_R   0.539362 0.293803 0.500621 0.101770
C26   C     C_R   0.460638 0.706198 0.499379 0.101770
C27   C     C_R   0.541459 0.368360 0.539432 -0.046100
C28   C     C_R   0.458541 0.631640 0.460568 -0.046100
C29   C     C_R   0.612018 0.353863 0.637351 -0.071596
C30   C     C_R   0.387982 0.646137 0.362648 -0.071596
C31   C     C_R   0.481340 0.458218 0.483406 -0.072965
C32   C     C_R   0.518660 0.541782 0.516594 -0.072965
C33   C     C_R   0.614844 0.531034 0.603948 0.356290
C34   C     C_R   0.129296 0.998099 0.504475 -0.055713
C35   C     C_R   0.385156 0.468966 0.396052 0.356290
C36   C     C_R   0.646076 0.435502 0.667998 -0.142445
C37   C     C_R   0.353924 0.564498 0.332002 -0.142445
C38   C     C_R   0.336326 0.981819 0.815541 -0.113279
C39   C     C_R   0.663674 0.018181 0.184459 -0.113280
C40   C     C_R   0.253783 0.965578 0.733388 -0.124488
C41   C     C_R   0.746217 0.034422 0.266612 -0.124486
C42   C     C_R   0.182100 0.041034 0.662061 0.106280
C43   C     C_R   0.817900 0.958966 0.337938 0.106280
C44   C     C_R   0.193094 0.132095 0.675300 -0.053920
C45   C     C_R   0.908805 0.976986 0.423485 0.023789
C46   C     C_R   0.806906 0.867905 0.324700 -0.053920
C47   C     C_R   0.278355 0.148973 0.756051 -0.125211
C48   C     C_R   0.721645 0.851027 0.243949 -0.125211
C49   C     C_R   0.350023 0.073870 0.826110 -0.109889
C50   C     C_R   0.649977 0.926130 0.173890 -0.109890
C51   C     C_R   0.961514 0.025523 0.570299 -0.211152
C52   C     C_R   0.038486 0.974477 0.429701 -0.211153
C53   C     C_R   0.091195 0.023014 0.576515 0.023789
C54   C     C_R   0.459439 0.187017 0.204514 -0.065559
C55   C     C_R   0.540561 0.812983 0.795486 -0.065558
C56   C     C_R   0.384815 0.217535 0.027085 -0.131446
Cu1   Cu    Cu3+1 0.466270 0.918260 0.475690 0.989861
Cu2   Cu    Cu3+1 0.533730 0.081740 0.524310 0.989862
H1    H     H_    0.415099 0.086463 0.889202 0.167073
H2    H     H_    0.501994 0.306002 0.422738 0.185473
H3    H     H_    0.324863 0.884025 0.295644 0.184181
H4    H     H_    0.675137 0.115975 0.704356 0.184181
H5    H     H_    0.388832 0.922743 0.871627 0.163058
H6    H     H_    0.611167 0.077257 0.128373 0.163058
H7    H     H_    0.244335 0.893829 0.726170 0.113049
H8    H     H_    0.755665 0.106171 0.273830 0.113049
H9    H     H_    0.136405 0.190265 0.622654 0.168899
H10   H     H_    0.863595 0.809735 0.377346 0.168899
H11   H     H_    0.287975 0.219922 0.764787 0.137453
H12   H     H_    0.584900 0.913537 0.110798 0.167073
H13   H     H_    0.712025 0.780078 0.235213 0.137453
H14   H     H_    0.930529 0.042492 0.626524 0.155833
H15   H     H_    0.069471 0.957508 0.373475 0.155833
H16   H     H_    0.372303 0.358417 0.840341 0.144348
H17   H     H_    0.627695 0.641583 0.159659 0.144349
H18   H     H_    0.450282 0.685211 0.760986 0.147162
H19   H     H_    0.549717 0.314789 0.239014 0.147162
H20   H     H_    0.631807 0.929345 0.853107 0.194209
H21   H     H_    0.368192 0.070654 0.146893 0.194210
H22   H     H_    0.759311 0.092132 0.960224 0.379529
H23   H     H_    0.341658 0.187896 0.968765 0.140004
H24   H     H_    0.240680 0.907867 0.039777 0.379530
H25   H     H_    0.928124 0.656800 0.680108 0.380312
H26   H     H_    0.071876 0.343200 0.319892 0.380312
H27   H     H_    0.658341 0.812104 0.031235 0.140004
H28   H     H_    0.436168 0.534711 0.792611 0.148157
H29   H     H_    0.563831 0.465289 0.207389 0.148157
H30   H     H_    0.711750 0.429138 0.737347 0.255590
H31   H     H_    0.288249 0.570862 0.262653 0.255591
H32   H     H_    0.498006 0.693998 0.577262 0.185473
N1    N     N_R   0.584450 0.204570 0.560790 -0.226152
N2    N     N_R   0.415550 0.795430 0.439210 -0.226153
O1    O     O_R   0.455540 0.022090 0.338120 -0.600599
O2    O     O_2   0.644626 0.257624 0.881455 -0.329796
O3    O     O_3   0.732606 0.104292 0.887171 -0.584288
O4    O     O_2   0.355373 0.742376 0.118545 -0.329794
O5    O     O_2   0.140811 0.713621 0.165244 -0.256015
O6    O     O_3   0.267395 0.895708 0.112829 -0.584289
O7    O     O_2   0.730204 0.726705 0.532292 -0.317843
O8    O     O_2   0.685270 0.652234 0.708773 -0.324800
O9    O     O_3   0.872274 0.598175 0.668232 -0.507663
O10   O     O_2   0.314730 0.347766 0.291227 -0.324801
O11   O     O_2   0.269796 0.273295 0.467708 -0.317843
O12   O     O_R   0.544460 0.977910 0.661880 -0.600599
O13   O     O_3   0.127726 0.401825 0.331768 -0.507663
O14   O     O_R   0.512510 0.160150 0.379180 -0.579306
O15   O     O_R   0.487490 0.839850 0.620820 -0.579306
O16   O     O_R   0.291160 0.930970 0.479480 -0.594770
O17   O     O_R   0.708840 0.069030 0.520520 -0.594769
O18   O     O_R   0.348130 0.069020 0.520540 -0.520977
O19   O     O_R   0.651870 0.930980 0.479460 -0.520977
O20   O     O_2   0.859189 0.286379 0.834756 -0.256012
S1    S     S_3+6 0.725469 0.229058 0.828648 -0.033875
S2    S     S_3+6 0.274531 0.770942 0.171351 -0.033875
S3    S     S_3+6 0.724340 0.632184 0.627086 -0.028894
S4    S     S_3+6 0.275660 0.367815 0.372914 -0.028894

loop_
_geom_bond_atom_site_label_1
_geom_bond_atom_site_label_2
_ccdc_geom_bond_type
C24   H3    S    
C23   C45   A    
Cu1   N2    S    
C27   C29   A    
Cu2   O17   S    
C41   C43   A    
C14   C18   A    
O13   S4    S    
C6    C55   A    
C3    H21   S    
C16   O18   A    
C56   H23   S    
C47   C49   A    
C38   C49   A    
C36   H30   S    
C15   C19   A    
C39   H6    S    
C29   C36   A    
C8    C13   A    
C35   C37   A    
C12   O12   A    
C42   C53   S    
O7    S3    D    
C20   S1    S    
C3    C54   A    
O6    S2    S    
C26   N2    A    
C24   N2    A    
C33   C36   A    
C2    H27   S    
C47   H11   S    
C16   C34   S    
C46   H10   S    
C11   C15   A    
C22   N1    A    
C25   H2    S    
Cu2   N1    S    
C44   C47   A    
C1    O14   A    
C40   C42   A    
C18   H16   S    
Cu1   O1    S    
C13   C14   A    
H24   O6    S    
O4    S2    D    
O8    S3    D    
C42   C44   A    
C17   O19   A    
O20   S1    D    
O2    S1    D    
C7    C11   A    
C20   C29   A    
C46   C48   A    
C25   N1    A    
C33   S3    S    
C27   C31   A    
C5    C54   A    
C28   C32   A    
C14   H28   S    
C39   C41   A    
C52   H15   S    
C5    C7    A    
C6    C8    A    
C45   C52   A    
C30   C37   A    
Cu2   O14   S    
C2    C4    A    
C1    C54   S    
C4    H20   S    
C22   H4    S    
C3    C56   A    
C23   C51   A    
C31   C32   A    
C10   C19   A    
C39   C50   A    
H26   O13   S    
C35   S4    S    
C9    C56   A    
C17   C23   S    
H22   O3    S    
C48   C50   A    
C43   C45   S    
C8    C10   A    
Cu1   O15   S    
C20   C22   A    
C40   H7    S    
C4    C55   A    
O9    S3    S    
C31   C35   A    
Cu2   O12   S    
C51   H14   S    
C48   H13   S    
C5    H19   S    
C2    C10   A    
C15   H29   S    
C38   H5    S    
C7    C9    A    
H25   O9    S    
Cu2   O18   S    
C34   C52   A    
C21   S2    S    
C17   O17   A    
C12   O15   A    
C6    H18   S    
C41   H8    S    
C25   C27   A    
C21   C30   A    
C26   C28   A    
C49   H1    S    
C37   H31   S    
C32   C33   A    
C19   H17   S    
O11   S4    D    
C50   H12   S    
C38   C40   A    
C11   C13   A    
Cu1   Cu2   S    
Cu1   O19   S    
O3    S1    S    
C28   C30   A    
C43   C46   A    
C12   C55   S    
O10   S4    D    
C16   O16   A    
C9    C18   A    
Cu1   O16   S    
C34   C53   A    
C1    O1    A    
C21   C24   A    
C44   H9    S    
C26   H32   S    
C51   C53   A    
O5    S2    D    
