data_mof_unit_66386.cif
_audit_creation_date              2012-12-11T16:04:09-0500
_audit_creation_method            fapswitch 2.2
_symmetry_space_group_name_H-M    P1
_symmetry_Int_Tables_number       1
_space_group_crystal_system       triclinic
_cell_length_a                    8.213279
_cell_length_b                    16.406412
_cell_length_c                    17.384269
_cell_angle_alpha                 94.6652
_cell_angle_beta                  95.696815
_cell_angle_gamma                 92.586853
_cell_volume                      2319.89990932

loop_
_atom_site_label
_atom_site_type_symbol
_atom_type_description
_atom_site_fract_x
_atom_site_fract_y
_atom_site_fract_z
_atom_type_partial_charge
Ba1   Ba    Ba6+2 0.150890 0.539190 0.463180 1.630445
Ba2   Ba    Ba6+2 0.659280 0.460800 0.536750 1.629483
C1    C     C_3   0.334031 0.743961 0.170798 -0.377395
C2    C     C_3   0.361527 0.717906 0.252867 0.360694
C3    C     C_3   0.525403 0.708739 0.644520 0.310426
C4    C     C_3   0.556455 0.800316 0.666016 -0.395374
C5    C     C_3   0.906568 0.234738 0.703304 0.368403
C6    C     C_3   0.884112 0.147666 0.725925 -0.364262
C7    C     C_3   0.435917 0.279449 0.747382 0.347032
C8    C     C_3   0.461758 0.251587 0.828748 -0.376569
C9    C     C_R   0.682451 0.735842 0.471622 -0.296091
C10   C     C_R   0.835526 0.760834 0.509718 0.031231
C11   C     C_R   0.888558 0.844555 0.514977 -0.132345
C12   C     C_3   0.888179 0.762254 0.293531 0.351214
C13   C     C_R   0.785970 0.903253 0.482037 0.244508
C14   C     C_R   0.629017 0.875808 0.446514 -0.158713
C15   C     C_R   0.577463 0.792556 0.441940 -0.008099
C16   C     C_R   0.919397 0.155412 0.485154 -0.198475
C17   C     C_R   0.971579 0.239260 0.492385 0.041323
C18   C     C_R   0.020797 0.096286 0.517962 0.214207
C19   C     C_R   0.121603 0.264247 0.533779 -0.357982
C20   C     C_R   0.227853 0.207198 0.562096 -0.062672
C21   C     C_R   0.177044 0.123120 0.555787 0.328183
C22   C     C_R   0.596132 0.534931 0.277532 -0.303013
C23   C     C_3   0.900339 0.848249 0.267298 -0.372717
C24   C     C_R   0.448021 0.490914 0.254502 0.064002
C25   C     C_R   0.389430 0.480528 0.175702 -0.137259
C26   C     C_R   0.480036 0.512635 0.119574 -0.007663
C27   C     C_R   0.635424 0.554133 0.142576 -0.004312
C28   C     C_R   0.693189 0.564149 0.222831 0.006194
C29   C     C_R   0.407017 0.515622 0.835726 -0.113464
C30   C     C_R   0.355382 0.507986 0.756050 0.033499
C31   C     C_R   0.107973 0.432084 0.779771 0.016981
C32   C     C_R   0.158802 0.439192 0.859773 -0.133020
C33   C     C_R   0.309996 0.480354 0.887920 0.002119
C34   C     C_3   0.781547 0.363263 0.302324 0.308752
C35   C     C_1   0.363645 0.490171 0.970265 -0.010479
C36   C     C_1   0.413883 0.499876 0.038508 -0.005903
C37   C     C_R   0.209739 0.463648 0.728468 -0.282397
C38   C     C_3   0.798003 0.348073 0.215938 -0.389923
C39   C     C_3   0.028363 0.635375 0.696452 0.313422
C40   C     C_3   0.051997 0.656758 0.783792 -0.397832
C41   C     C_3   0.283675 0.292703 0.371032 0.319084
C42   C     C_3   0.257600 0.200000 0.350189 -0.200205
H1    H     H_    0.282914 0.661712 0.256131 0.100381
H2    H     H_    0.727462 0.290886 0.191537 0.108830
H3    H     H_    0.750632 0.399656 0.184669 0.061272
H4    H     H_    0.929081 0.342258 0.206586 0.129851
H5    H     H_    0.144966 0.616231 0.676251 0.003487
H6    H     H_    0.934051 0.584347 0.683427 0.073928
H7    H     H_    0.152644 0.704649 0.798732 0.127235
H8    H     H_    0.083150 0.602002 0.814253 0.065695
H9    H     H_    0.937145 0.679851 0.804067 0.123305
H10   H     H_    0.167622 0.316342 0.388153 -0.003558
H11   H     H_    0.379930 0.304959 0.420638 0.056572
H12   H     H_    0.359512 0.692778 0.128602 0.074900
H13   H     H_    0.166157 0.187543 0.298357 0.117898
H14   H     H_    0.204078 0.172490 0.398718 0.025971
H15   H     H_    0.492250 0.703987 0.264534 -0.065777
H16   H     H_    0.417450 0.797723 0.164486 0.104829
H17   H     H_    0.640451 0.683529 0.626647 0.018984
H18   H     H_    0.427583 0.699437 0.595169 0.061565
H19   H     H_    0.662106 0.811504 0.711618 0.124583
H20   H     H_    0.584681 0.831457 0.614190 0.066404
H21   H     H_    0.445844 0.826521 0.688356 0.121951
H22   H     H_    0.205011 0.760428 0.157823 0.147435
H23   H     H_    0.856631 0.892449 0.311504 0.083512
H24   H     H_    0.829564 0.239727 0.647884 0.094774
H25   H     H_    0.037338 0.246448 0.694807 -0.081497
H26   H     H_    0.754611 0.134116 0.736149 0.152529
H27   H     H_    0.916105 0.103774 0.678416 0.065684
H28   H     H_    0.965067 0.139701 0.779666 0.101533
H29   H     H_    0.302767 0.286185 0.733062 -0.065917
H30   H     H_    0.502693 0.339794 0.747164 0.092323
H31   H     H_    0.416330 0.297690 0.870752 0.076407
H32   H     H_    0.594203 0.244603 0.845311 0.150494
H33   H     H_    0.964746 0.761717 0.349834 0.090209
H34   H     H_    0.393484 0.191951 0.831052 0.098918
H35   H     H_    0.802831 0.136580 0.452510 0.121609
H36   H     H_    0.546772 0.919375 0.422831 0.098670
H37   H     H_    0.007243 0.863372 0.545395 0.113626
H38   H     H_    0.641418 0.671945 0.468422 0.080489
H39   H     H_    0.161568 0.328371 0.538632 0.094074
H40   H     H_    0.519728 0.550663 0.857088 0.073692
H41   H     H_    0.079929 0.414685 0.899661 0.074116
H42   H     H_    0.758135 0.747257 0.301564 -0.062386
H43   H     H_    0.274543 0.445843 0.157937 0.085891
H44   H     H_    0.641362 0.541671 0.338437 0.073334
H45   H     H_    0.169724 0.458947 0.666983 0.065151
H46   H     H_    0.029573 0.865803 0.259708 0.150367
H47   H     H_    0.823453 0.850851 0.211354 0.103595
H48   H     H_    0.651663 0.371443 0.310788 -0.000843
H49   H     H_    0.856914 0.419808 0.324413 0.069571
N1    N     N_2   0.830938 0.989543 0.485380 -0.230632
N2    N     N_2   0.975194 0.009941 0.512718 -0.205089
O1    O     O_2   0.124170 0.696240 0.537320 -0.458163
O2    O     O_3   0.326433 0.330478 0.306145 -0.646726
O3    O     O_3   0.945206 0.707062 0.237458 -0.602961
O4    O     O_2   0.686120 0.303710 0.462660 -0.469658
O5    O     O_3   0.936010 0.403900 0.461090 -0.487627
O6    O     O_3   0.459650 0.352790 0.600040 -0.483549
O7    O     O_3   0.833233 0.294646 0.338887 -0.638591
O8    O     O_3   0.380200 0.540830 0.590710 -0.477238
O9    O     O_3   0.877840 0.393190 0.638290 -0.487626
O10   O     O_2   0.769294 0.440334 0.773746 -0.490393
O11   O     O_3   0.858490 0.289628 0.762074 -0.598279
O12   O     O_3   0.874280 0.596090 0.538840 -0.489023
O13   O     O_3   0.430090 0.459160 0.409230 -0.487043
O14   O     O_2   0.641040 0.538740 0.685130 -0.456818
O15   O     O_3   0.476491 0.671781 0.709129 -0.642548
O16   O     O_2   0.565321 0.208043 0.551236 -0.473629
O17   O     O_3   0.496703 0.221527 0.694958 -0.604702
O18   O     O_3   0.350640 0.647210 0.399890 -0.489898
O19   O     O_2   0.239051 0.791428 0.447415 -0.477883
O20   O     O_3   0.979820 0.704984 0.660969 -0.637017
O21   O     O_3   0.319724 0.781183 0.305580 -0.599048
O22   O     O_2   0.169260 0.461210 0.314850 -0.459099
O23   O     O_3   0.932460 0.606800 0.361650 -0.486297
O24   O     O_2   0.034083 0.556410 0.226353 -0.497997
P1    P     P_3+3 0.954010 0.683680 0.560080 0.987415
P2    P     P_3+3 0.343360 0.437010 0.326580 0.983486
P3    P     P_3+3 0.900635 0.607349 0.260813 0.934198
P4    P     P_3+3 0.856290 0.316310 0.439860 0.985538
P5    P     P_3+3 0.903228 0.389648 0.739332 0.946554
P6    P     P_3+3 0.371268 0.754085 0.399943 0.959520
P7    P     P_3+3 0.460797 0.565504 0.687431 0.947296
P8    P     P_3+3 0.437068 0.246200 0.600668 0.979567
C43   C     C_3   0.417237 0.157261 0.337517 -0.175797
C44   C     C_3   0.466215 0.161908 0.255125 -0.368896
H50   H     H_    0.366463 0.133429 0.211710 0.118021
H51   H     H_    0.492492 0.226307 0.242833 0.161289
H52   H     H_    0.579147 0.128084 0.248986 0.113793
H53   H     H_    0.519697 0.183375 0.380472 0.142775
H54   H     H_    0.398358 0.091409 0.347433 0.114827
O25   O     O_3   0.285533 0.065662 0.579222 -0.625297
C45   C     C_3   0.287479 0.058973 0.660030 0.306002
H55   H     H_    0.230770 0.110307 0.692496 -0.008404
H56   H     H_    0.417904 0.059470 0.684787 0.092329
C46   C     C_3   0.203678 0.977475 0.674797 -0.367588
H57   H     H_    0.253352 0.926427 0.639652 0.139308
H58   H     H_    0.226308 0.966860 0.737302 0.065228
H59   H     H_    0.069021 0.978258 0.659179 0.123520
C47   C     C_3   0.741049 0.584425 0.082329 -0.187423
C48   C     C_3   0.738323 0.677915 0.078423 -0.370604
H60   H     H_    0.667217 0.707090 0.123608 0.126213
H61   H     H_    0.866623 0.705599 0.086801 0.146290
H62   H     H_    0.681786 0.692910 0.020284 0.108021
H63   H     H_    0.869304 0.566037 0.094912 0.121311
H64   H     H_    0.701422 0.553995 0.023620 0.098341

loop_
_geom_bond_atom_site_label_1
_geom_bond_atom_site_label_2
_ccdc_geom_bond_type
C38   H3    S    
Ba2   O14   S    
C39   C40   S    
O12   P1    S    
C23   H23   S    
O13   P2    S    
C43   C44   S    
C13   N1    S    
C8    H34   S    
O25   C45   S    
Ba2   P4    S    
C38   H2    S    
C17   P4    S    
C24   C25   A    
C31   C37   A    
Ba1   O18   S    
C26   C27   A    
C17   C19   A    
C35   C36   T    
C22   C24   A    
C32   C33   A    
C45   C46   S    
C40   H9    S    
C3    C4    S    
C46   H59   S    
C12   H33   S    
O18   P6    S    
C3    O15   S    
C30   P7    S    
C47   C48   S    
C27   C47   S    
C11   H37   S    
Ba2   O12   S    
C34   O7    S    
Ba1   Ba2   S    
O23   P3    S    
C30   C37   A    
C4    H20   S    
O8    P7    S    
O22   P2    D    
O17   P8    S    
O2    P2    S    
C5    H24   S    
C10   P1    S    
C8    H32   S    
C34   H49   S    
C4    H21   S    
C42   C43   S    
C19   H39   S    
C42   H14   S    
C16   H35   S    
C31   P5    S    
C24   P2    S    
Ba2   O9    S    
C7    C8    S    
Ba1   O8    S    
C40   H7    S    
C44   H52   S    
C1    H16   S    
C34   H48   S    
C7    O17   S    
Ba2   O5    S    
C19   C20   A    
C7    H29   S    
C39   O20   S    
C48   H62   S    
Ba1   O5    S    
C39   H5    S    
O1    P1    D    
C12   O3    S    
Ba1   P2    S    
C2    H1    S    
C9    H38   S    
C47   H63   S    
C23   H47   S    
C6    H28   S    
C13   C14   A    
C28   P3    S    
C34   C38   S    
C12   H42   S    
C45   H56   S    
O19   P6    D    
C16   C17   A    
Ba2   O6    S    
C29   H40   S    
O10   P5    D    
C14   H36   S    
Ba1   P1    S    
C4    H19   S    
C41   C42   S    
C27   C28   A    
C43   H54   S    
C1    H12   S    
C41   H10   S    
C29   C30   A    
C18   C21   A    
C26   C36   S    
C42   H13   S    
C9    C10   A    
C31   C32   A    
C23   H46   S    
C5    O11   S    
C3    H17   S    
Ba1   O22   S    
C25   H43   S    
C22   H44   S    
O15   P7    S    
O3    P3    S    
C48   H61   S    
C18   N2    S    
Ba1   O12   S    
Ba2   O4    S    
O21   P6    S    
C11   C13   A    
O16   P8    D    
C29   C33   A    
C1    H22   S    
C7    H30   S    
C1    C2    S    
C39   H6    S    
O4    P4    D    
C44   H50   S    
O24   P3    D    
C41   H11   S    
C38   H4    S    
C9    C15   A    
C6    H27   S    
C33   C35   S    
C2    O21   S    
C41   O2    S    
C48   H60   S    
C5    H25   S    
C46   H57   S    
O9    P5    S    
C6    H26   S    
C21   O25   S    
O5    P4    S    
C43   H53   S    
C46   H58   S    
C15   P6    S    
C20   P8    S    
C14   C15   A    
Ba2   O8    S    
Ba1   O1    S    
C2    H15   S    
Ba2   O13   S    
O6    P8    S    
C37   H45   S    
C3    H18   S    
C16   C18   A    
Ba1   O23   S    
C12   C23   S    
N1    N2    D    
C22   C28   A    
C5    C6    S    
Ba1   O13   S    
O14   P7    D    
C47   H64   S    
C10   C11   A    
O20   P1    S    
O11   P5    S    
C25   C26   A    
C20   C21   A    
C45   H55   S    
C32   H41   S    
O7    P4    S    
C40   H8    S    
C44   H51   S    
C8    H31   S    
