data_mof_unit_52698.cif
_audit_creation_date              2012-10-26T19:20:19-0400
_audit_creation_method            fapswitch 2.2
_symmetry_space_group_name_H-M    P1
_symmetry_Int_Tables_number       1
_space_group_crystal_system       triclinic
_cell_length_a                    15.898695
_cell_length_b                    10.970138
_cell_length_c                    9.729733
_cell_angle_alpha                 89.706459
_cell_angle_beta                  89.221819
_cell_angle_gamma                 91.25088
_cell_volume                      1696.38546668

loop_
_atom_site_label
_atom_site_type_symbol
_atom_type_description
_atom_site_fract_x
_atom_site_fract_y
_atom_site_fract_z
_atom_type_partial_charge
C1    C     C_R   0.494974 0.264900 0.501053 0.573622
C2    C     C_2   0.526939 0.863061 0.490704 0.251585
C3    C     C_2   0.505643 0.063964 0.396597 0.284250
C4    C     C_R   0.339989 0.501457 0.500708 0.546585
C5    C     C_2   0.479466 0.131615 0.503239 0.308170
C6    C     C_2   0.446425 0.437488 0.925552 0.039755
C7    C     C_2   0.458855 0.417667 0.080453 0.409092
C8    C     C_R   0.505740 0.733659 0.498852 0.570311
C9    C     C_R   0.659906 0.501170 0.499046 0.535459
C10   C     C_3   0.970832 0.407253 0.532698 0.243493
C11   C     C_3   0.029000 0.434688 0.409230 0.231904
C12   C     C_3   0.083818 0.518494 0.499215 -0.036319
C13   C     C_1   0.250539 0.507741 0.501842 -0.019005
C14   C     C_1   0.749288 0.505797 0.496202 0.021475
C15   C     C_3   0.024520 0.491255 0.623543 0.275724
C16   C     C_3   0.444544 0.104961 0.739879 0.005214
C17   C     C_3   0.535058 0.077792 0.783796 -0.268500
C18   C     C_3   0.554253 0.130994 0.924469 -0.450273
C19   C     C_3   0.594290 0.647147 0.883577 0.061966
C20   C     C_3   0.665409 0.685159 0.979744 -0.279431
C21   C     C_3   0.684514 0.821904 0.969641 -0.490474
C22   C     C_3   0.364916 0.246497 0.092009 -0.024414
C23   C     C_3   0.970098 0.600148 0.583251 0.211714
C24   C     C_3   0.281593 0.307436 0.124271 -0.263690
C25   C     C_3   0.207783 0.227049 0.077626 -0.464648
C26   C     C_3   0.972378 0.794121 0.676342 -0.002028
C27   C     C_3   0.939231 0.869099 0.796579 -0.256048
C28   C     C_3   0.981952 0.994863 0.800967 -0.462405
C29   C     C_3   0.083748 0.553125 0.827920 0.021277
C30   C     C_3   0.126347 0.504542 0.955442 -0.261673
C31   C     C_3   0.170370 0.606011 0.035507 -0.504544
C32   C     C_3   0.411852 0.892448 0.204926 -0.001443
C33   C     C_3   0.324761 0.855227 0.152736 -0.251361
C34   C     C_3   0.915963 0.515016 0.493210 0.073020
C35   C     C_3   0.315516 0.885203 0.000666 -0.497446
C36   C     C_3   0.030084 0.630648 0.458161 -0.213929
C37   C     C_3   0.975071 0.543322 0.369974 0.195476
C38   C     C_1   0.175281 0.513555 0.501128 -0.012147
C39   C     C_1   0.824596 0.510332 0.493659 0.075501
C40   C     C_2   0.485589 0.932026 0.400765 0.289818
Cu1   Cu    Cu3+1 0.500020 0.500020 0.638630 0.969701
Cu2   Cu    Cu3+1 0.499980 0.499980 0.361370 1.029436
H1    H     H_    0.390935 0.399477 0.877252 0.064388
H2    H     H_    0.618361 0.105066 0.955719 0.164492
H3    H     H_    0.508260 0.095406 0.002036 0.145078
H4    H     H_    0.538487 0.704211 0.905860 0.103231
H5    H     H_    0.616674 0.665243 0.777242 0.182784
H6    H     H_    0.647741 0.661937 0.087747 0.179549
H7    H     H_    0.723045 0.634641 0.952096 0.203876
H8    H     H_    0.702132 0.847991 0.862417 0.153656
H9    H     H_    0.737726 0.846179 0.037736 0.172585
H10   H     H_    0.628629 0.873837 0.002763 0.132995
H11   H     H_    0.361978 0.156600 0.143688 0.164955
H12   H     H_    0.507034 0.583460 0.109205 0.183670
H13   H     H_    0.373526 0.226506 0.981644 0.077256
H14   H     H_    0.275709 0.322549 0.236845 0.207469
H15   H     H_    0.280516 0.397126 0.071755 0.137444
H16   H     H_    0.211540 0.212335 0.964838 0.143001
H17   H     H_    0.147636 0.271460 0.102703 0.197785
H18   H     H_    0.208109 0.137334 0.131104 0.155275
H19   H     H_    0.990075 0.241862 0.584585 0.338576
H20   H     H_    0.997856 0.595032 0.184657 0.327088
H21   H     H_    0.958412 0.842125 0.578437 0.155611
H22   H     H_    0.041770 0.785865 0.686858 0.111839
H23   H     H_    0.055373 0.721317 0.424774 0.108256
H24   H     H_    0.870218 0.879913 0.786447 0.184181
H25   H     H_    0.950952 0.820327 0.894690 0.169504
H26   H     H_    0.050838 0.986240 0.814619 0.143061
H27   H     H_    0.956055 0.047322 0.888565 0.170605
H28   H     H_    0.970257 0.045525 0.704322 0.175328
H29   H     H_    0.033113 0.614591 0.862153 0.183235
H30   H     H_    0.131391 0.604934 0.764469 0.120688
H31   H     H_    0.078568 0.458027 0.022962 0.202549
H32   H     H_    0.173416 0.437270 0.922267 0.175972
H33   H     H_    0.226096 0.640408 0.976092 0.147037
H34   H     H_    0.009921 0.311398 0.273791 0.345058
H35   H     H_    0.191803 0.569955 0.135662 0.166587
H36   H     H_    0.127028 0.682130 0.055684 0.140083
H37   H     H_    0.458970 0.827682 0.164133 0.123563
H38   H     H_    0.428566 0.985101 0.166621 0.122128
H39   H     H_    0.314140 0.755754 0.169647 0.167600
H40   H     H_    0.275741 0.904581 0.211515 0.184915
H41   H     H_    0.319828 0.985336 0.985383 0.129771
H42   H     H_    0.252783 0.853723 0.965054 0.148677
H43   H     H_    0.365061 0.840216 0.938689 0.152384
H44   H     H_    0.622164 0.843590 0.610823 0.304800
H45   H     H_    0.402168 0.047261 0.804973 0.139399
H46   H     H_    0.574247 0.046050 0.232627 0.300654
H47   H     H_    0.425048 0.198667 0.763247 0.152781
H48   H     H_    0.542464 0.977472 0.789345 0.180560
H49   H     H_    0.582017 0.116428 0.709235 0.212685
H50   H     H_    0.551920 0.231894 0.920541 0.210591
N1    N     N_2   0.499090 0.498660 0.846910 -0.082613
N2    N     N_2   0.499070 0.498630 0.153040 -0.288326
O1    O     O_R   0.500010 0.321960 0.617040 -0.532715
O2    O     O_3   0.427368 0.073439 0.602047 -0.594104
O3    O     O_3   0.575057 0.521843 0.902892 -0.481362
O4    O     O_3   0.433524 0.310929 0.149046 -0.511119
O5    O     O_3   0.939619 0.291656 0.570556 -0.673713
O6    O     O_3   0.947036 0.568011 0.237400 -0.684319
O7    O     O_3   0.931720 0.678722 0.678851 -0.565275
O8    O     O_3   0.048855 0.453626 0.755642 -0.545344
O9    O     O_3   0.409574 0.888853 0.349613 -0.573769
O10   O     O_3   0.596779 0.910053 0.557018 -0.763697
O11   O     O_3   0.557373 0.113199 0.294305 -0.690722
O12   O     O_R   0.499990 0.321920 0.382900 -0.392004
O13   O     O_R   0.379090 0.500010 0.617050 -0.515165
O14   O     O_R   0.379060 0.499970 0.382910 -0.494336
O15   O     O_R   0.500010 0.678080 0.617100 -0.540686
O16   O     O_R   0.499990 0.678040 0.382960 -0.517492
O17   O     O_R   0.620940 0.500030 0.617090 -0.480329
O18   O     O_R   0.620910 0.499990 0.382950 -0.486510
O19   O     O_3   0.060140 0.348046 0.318124 -0.716420

loop_
_geom_bond_atom_site_label_1
_geom_bond_atom_site_label_2
_ccdc_geom_bond_type
C9    O17   A    
C22   O4    S    
C7    O4    S    
C34   C37   S    
Cu1   Cu2   S    
C6    C7    S    
C28   H27   S    
C17   H49   S    
C26   H21   S    
H44   O10   S    
C19   O3    S    
C19   H4    S    
C23   O7    S    
C3    O11   S    
C4    O14   A    
C26   C27   S    
C29   C30   S    
C1    C5    S    
C36   C37   S    
C28   H26   S    
C8    O16   A    
C10   C15   S    
C26   O7    S    
C30   C31   S    
C30   H32   S    
C19   H5    S    
C4    C13   S    
C11   C37   S    
C26   H22   S    
Cu2   O18   S    
C14   C39   T    
Cu1   N1    S    
C19   C20   S    
C24   H15   S    
C16   H45   S    
C25   H18   S    
C12   C36   S    
C33   H40   S    
C1    O12   A    
C29   H30   S    
C23   C34   S    
C9    O18   A    
C15   C23   S    
C16   H47   S    
Cu1   O15   S    
H19   O5    S    
C21   H8    S    
C31   H35   S    
C22   H11   S    
C4    O13   A    
C28   H28   S    
C16   O2    S    
C34   C39   S    
C24   C25   S    
C30   H31   S    
C35   H41   S    
C36   H23   S    
C16   C17   S    
C9    C14   S    
C20   H7    S    
C18   H2    S    
C32   H38   S    
C31   H33   S    
C12   C15   S    
C2    O10   S    
C1    O1    A    
C6    N1    D    
C17   C18   S    
C32   O9    S    
C10   C34   S    
Cu2   O12   S    
C13   C38   T    
C20   H6    S    
H20   O6    S    
C3    C40   S    
C6    H1    S    
C22   C24   S    
C25   H16   S    
C18   H3    S    
N1    O3    S    
C21   H9    S    
C5    O2    S    
C31   H36   S    
C7    N2    D    
Cu1   O13   S    
Cu2   N2    S    
C2    C8    S    
C17   H48   S    
C3    C5    D    
C35   H42   S    
C22   H13   S    
C24   H14   S    
C18   H50   S    
C32   C33   S    
H34   O19   S    
Cu2   O16   S    
C27   H24   S    
C8    O15   A    
C32   H37   S    
H46   O11   S    
C35   H43   S    
Cu1   O1    S    
C33   H39   S    
C33   C35   S    
C29   O8    S    
C21   H10   S    
C15   O8    S    
C12   C38   S    
C10   O5    S    
C11   O19   S    
H12   N2    S    
C27   H25   S    
C10   C11   S    
C2    C40   D    
C20   C21   S    
C23   C36   S    
Cu1   O17   S    
C27   C28   S    
C25   H17   S    
C29   H29   S    
Cu2   O14   S    
C37   O6    S    
C11   C12   S    
C40   O9    S    
