data_mof_unit_26622.cif
_audit_creation_date              2012-12-10T19:07:38-0500
_audit_creation_method            fapswitch 2.2
_symmetry_space_group_name_H-M    P1
_symmetry_Int_Tables_number       1
_space_group_crystal_system       triclinic
_cell_length_a                    10.911342
_cell_length_b                    10.845468
_cell_length_c                    9.618533
_cell_angle_alpha                 88.393928
_cell_angle_beta                  89.248631
_cell_angle_gamma                 92.794857
_cell_volume                      1136.3237579

loop_
_atom_site_label
_atom_site_type_symbol
_atom_type_description
_atom_site_fract_x
_atom_site_fract_y
_atom_site_fract_z
_atom_type_partial_charge
C1    C     C_R   0.501043 0.262365 0.501732 0.847565
C2    C     C_R   0.933139 0.452073 0.613267 0.058403
C3    C     C_3   0.917210 0.492382 0.758151 -0.337277
C4    C     C_3   0.057912 0.505800 0.763916 -0.284319
C5    C     C_R   0.424273 0.053957 0.589746 0.044674
C6    C     C_R   0.502496 0.128441 0.502653 -0.059665
C7    C     C_R   0.567899 0.070533 0.397516 -0.163350
C8    C     C_R   0.565454 0.941384 0.392813 -0.181116
C9    C     C_R   0.494097 0.869442 0.490309 -0.071584
C10   C     C_R   0.414855 0.928230 0.577345 0.069420
C11   C     C_3   0.374263 0.902837 0.723948 -0.313014
C12   C     C_R   0.262762 0.499695 0.500939 0.871708
C13   C     C_3   0.393013 0.043723 0.743434 -0.202246
C14   C     C_R   0.521169 0.607151 0.069847 0.262793
C15   C     C_R   0.454917 0.399933 0.075951 0.042591
C16   C     C_R   0.461077 0.398864 0.928246 0.047131
C17   C     C_R   0.522337 0.607022 0.923449 0.255996
C18   C     C_3   0.634130 0.692341 0.916689 -0.462432
C19   C     C_3   0.628735 0.695700 0.074569 -0.454844
C20   C     C_R   0.500017 0.737050 0.497702 0.791615
C21   C     C_R   0.737547 0.495797 0.498188 0.781651
C22   C     C_R   0.059617 0.457321 0.618716 0.094849
C23   C     C_R   0.129645 0.492039 0.500386 -0.110543
C24   C     C_R   0.069584 0.503942 0.373190 -0.178506
C25   C     C_R   0.941634 0.496380 0.366469 -0.041391
C26   C     C_R   0.870641 0.481207 0.491907 -0.180478
Cu1   Cu    Cu3+1 0.499990 0.499980 0.640670 1.014310
Cu2   Cu    Cu3+1 0.500010 0.500020 0.359330 1.023304
H1    H     H_    0.122351 0.521394 0.277756 0.217879
H2    H     H_    0.438393 0.845126 0.781812 0.162806
H3    H     H_    0.602929 0.786590 0.112793 0.207911
H4    H     H_    0.624818 0.124745 0.323011 0.186384
H5    H     H_    0.623777 0.898359 0.318479 0.150304
N1    N     N_R   0.500790 0.500930 0.147930 -0.219665
N2    N     N_R   0.500790 0.500890 0.852020 -0.192396
O1    O     O_R   0.500000 0.319640 0.618810 -0.553217
O2    O     O_R   0.500010 0.319680 0.381230 -0.577476
O3    O     O_R   0.319650 0.499970 0.618810 -0.564962
O4    O     O_R   0.319660 0.500010 0.381230 -0.558244
O5    O     O_R   0.499990 0.680320 0.618770 -0.607759
O6    O     O_R   0.500000 0.680360 0.381190 -0.584813
O7    O     O_R   0.680340 0.499990 0.618770 -0.568863
O8    O     O_R   0.680350 0.500030 0.381190 -0.567298
C27   C     C_2   0.277185 0.106835 0.781126 0.907569
O9    O     O_2   0.244438 0.110648 0.902919 -0.524218
O10   O     O_R   0.202527 0.151584 0.675678 -0.729283
H6    H     H_    0.120704 0.178365 0.712086 0.372534
C28   C     C_2   0.501274 0.071122 0.837382 0.856768
O11   O     O_2   0.580733 0.150199 0.804352 -0.585318
O12   O     O_R   0.512827 0.000631 0.960072 -0.732201
H7    H     H_    0.590679 0.023609 0.011787 0.343457
C29   C     C_2   0.387291 0.294374 0.145235 0.907408
O13   O     O_2   0.297014 0.310687 0.217374 -0.584025
O14   O     O_R   0.424783 0.175070 0.125689 -0.738384
H8    H     H_    0.370780 0.110126 0.177996 0.371005
H9    H     H_    0.428970 0.317745 0.874685 0.177649
H10   H     H_    0.715639 0.647512 0.877076 0.214785
H11   H     H_    0.618318 0.783044 0.865865 0.205759
H12   H     H_    0.707401 0.655917 0.127553 0.230350
C30   C     C_2   0.890440 0.508140 0.225992 0.906168
O15   O     O_2   0.819143 0.427712 0.183811 -0.532103
O16   O     O_R   0.932880 0.606100 0.137576 -0.740290
H13   H     H_    0.898474 0.600637 0.040539 0.338927
H14   H     H_    0.874632 0.582934 0.762253 0.135428
C31   C     C_2   0.851526 0.389730 0.843899 1.007656
O17   O     O_2   0.758666 0.411077 0.909227 -0.560903
O18   O     O_R   0.893062 0.269664 0.843521 -0.740265
H15   H     H_    0.840081 0.209639 0.903831 0.358518
H16   H     H_    0.092425 0.603578 0.767241 0.158097
C32   C     C_2   0.117393 0.426392 0.871564 0.951919
O19   O     O_2   0.203630 0.365468 0.839494 -0.602352
O20   O     O_R   0.076436 0.426295 0.009480 -0.745923
H17   H     H_    0.118469 0.364401 0.070669 0.362260
C33   C     C_2   0.243768 0.849252 0.734336 0.896262
O21   O     O_2   0.197595 0.825698 0.849082 -0.558055
O22   O     O_R   0.176194 0.826773 0.614140 -0.749040
H18   H     H_    0.089087 0.794373 0.635463 0.324003

loop_
_geom_bond_atom_site_label_1
_geom_bond_atom_site_label_2
_ccdc_geom_bond_type
C21   C26   S    
C19   H3    S    
C4    C32   S    
C20   O6    A    
C7    C8    A    
C3    H14   S    
C27   O9    D    
C12   C23   S    
C33   O22   S    
C16   N2    A    
C5    C6    A    
C20   O5    A    
Cu1   O3    S    
C15   C16   A    
Cu2   O6    S    
C30   O16   S    
C18   C19   S    
O10   H6    S    
C24   H1    S    
C18   H10   S    
C21   O8    A    
C18   H11   S    
C11   H2    S    
C29   O14   S    
C8    C9    A    
C31   O18   S    
C2    C22   A    
C23   C24   A    
C32   O19   D    
C25   C30   S    
C9    C10   A    
C15   N1    A    
C5    C13   S    
C1    O2    A    
C28   O12   S    
Cu2   N1    S    
C14   C17   A    
C3    C31   S    
C4    H16   S    
C27   O10   S    
O12   H7    S    
C33   O21   D    
O18   H15   S    
C24   C25   A    
Cu2   O4    S    
C19   H12   S    
C25   C26   A    
C1    C6    S    
C30   O15   D    
C16   H9    S    
O16   H13   S    
C4    C22   S    
C9    C20   S    
Cu1   O5    S    
C17   C18   S    
C2    C26   A    
C15   C29   S    
O22   H18   S    
C28   O11   D    
C3    C4    S    
C29   O13   D    
O14   H8    S    
C7    H4    S    
C14   C19   S    
O20   H17   S    
C11   C33   S    
C14   N1    A    
C13   C28   S    
C6    C7    A    
Cu1   O1    S    
Cu2   O8    S    
Cu1   N2    S    
C12   O4    A    
C2    C3    S    
C5    C10   A    
C11   C13   S    
Cu1   O7    S    
Cu2   O2    S    
C8    H5    S    
C12   O3    A    
C10   C11   S    
C21   O7    A    
C31   O17   D    
Cu1   Cu2   S    
C22   C23   A    
C32   O20   S    
C17   N2    A    
C13   C27   S    
C1    O1    A    
