data_mof_unit_59983.cif
_audit_creation_date              2012-12-11T15:08:33-0500
_audit_creation_method            fapswitch 2.2
_symmetry_space_group_name_H-M    P1
_symmetry_Int_Tables_number       1
_space_group_crystal_system       triclinic
_cell_length_a                    26.793143
_cell_length_b                    7.090537
_cell_length_c                    12.035296
_cell_angle_alpha                 89.999891
_cell_angle_beta                  103.659346
_cell_angle_gamma                 89.99282
_cell_volume                      2221.77117602

loop_
_atom_site_label
_atom_site_type_symbol
_atom_type_description
_atom_site_fract_x
_atom_site_fract_y
_atom_site_fract_z
_atom_type_partial_charge
O1    O     O_R   0.437360 0.505910 0.042120 -0.531309
O2    O     O_R   0.562640 0.005910 0.957880 -0.531321
O3    O     O_R   0.542480 0.176660 0.157100 -0.539499
O4    O     O_R   0.457520 0.676660 0.842900 -0.539477
C1    C     C_R   0.556450 0.345102 0.197917 0.698514
C2    C     C_R   0.443552 0.845120 0.802080 0.698468
O5    O     O_R   0.436520 0.176250 0.054800 -0.543251
O6    O     O_R   0.563480 0.676250 0.945200 -0.543222
O7    O     O_R   0.455920 0.005040 0.854840 -0.540437
O8    O     O_R   0.544080 0.505040 0.145160 -0.540452
C3    C     C_R   0.417644 0.344054 0.063668 0.689021
C4    C     C_R   0.582358 0.844033 0.936340 0.688970
O9    O     O_3   0.506490 0.338900 0.934520 -0.375820
O10   O     O_3   0.493510 0.838900 0.065480 -0.375840
V1    V     V_3+5 0.498800 0.064400 0.012150 1.452771
V2    V     V_3+5 0.501200 0.564400 0.987850 1.452856
C5    C     C_R   0.681646 0.818408 0.763408 -0.145693
C6    C     C_R   0.318372 0.319446 0.236704 -0.145815
H1    H     H_    0.599469 0.841474 0.723510 0.105137
H2    H     H_    0.400549 0.342501 0.276530 0.105141
H3    H     H_    0.774823 0.756912 0.732468 0.122661
H4    H     H_    0.225196 0.258395 0.267775 0.122644
H5    H     H_    0.682661 0.803420 0.674326 0.129457
H6    H     H_    0.317365 0.304935 0.325819 0.129441
C7    C     C_R   0.631957 0.846954 0.905467 -0.032726
C8    C     C_R   0.368048 0.347064 0.094565 -0.032716
C9    C     C_R   0.869543 0.896267 0.211719 -0.209724
C10   C     C_R   0.130466 0.395646 0.788268 -0.209763
C11   C     C_R   0.824403 0.923416 0.246666 -0.160118
C12   C     C_R   0.175607 0.422603 0.753293 -0.160209
C13   C     C_R   0.776709 0.920983 0.167775 0.005540
C14   C     C_R   0.223298 0.420449 0.832202 0.005404
C15   C     C_R   0.773374 0.864302 0.051532 -0.007905
C16   C     C_R   0.226632 0.364239 0.948524 -0.007662
C17   C     C_R   0.820588 0.836380 0.017324 0.050077
C18   C     C_R   0.179421 0.336589 0.982775 0.050260
C19   C     C_R   0.725941 0.841761 0.966402 0.080800
C20   C     C_R   0.274066 0.341912 0.033681 0.080966
C21   C     C_R   0.727222 0.816032 0.849898 0.154115
C22   C     C_R   0.272792 0.316783 0.150232 0.154308
C23   C     C_R   0.773733 0.784169 0.820513 -0.100621
C24   C     C_R   0.226282 0.285222 0.179681 -0.100558
C25   C     C_R   0.819579 0.791228 0.902928 -0.124674
C26   C     C_R   0.180433 0.291993 0.097252 -0.124568
C27   C     C_R   0.677098 0.836241 0.991890 -0.128006
C28   C     C_R   0.322902 0.336036 0.008178 -0.127986
C29   C     C_R   0.634325 0.839586 0.791001 -0.191555
C30   C     C_R   0.365690 0.340330 0.209052 -0.191596
C31   C     C_R   0.868294 0.860674 0.097353 -0.071657
C32   C     C_R   0.131714 0.360576 0.902692 -0.071562
H7    H     H_    0.672781 0.814896 0.077731 0.108103
H8    H     H_    0.327205 0.314281 0.922356 0.108104
H9    H     H_    0.905936 0.912586 0.273549 0.112250
H10   H     H_    0.094073 0.411715 0.726401 0.112192
H11   H     H_    0.827166 0.962463 0.335024 0.158511
H12   H     H_    0.172841 0.461287 0.664877 0.158564
H13   H     H_    0.854571 0.767536 0.874865 0.118027
H14   H     H_    0.145442 0.268520 0.125351 0.117830
C33   C     C_R   0.091955 0.863689 0.310442 -0.030045
C34   C     C_R   0.908048 0.363784 0.689553 -0.029921
C35   C     C_R   0.409509 0.857097 0.687625 -0.037607
C36   C     C_R   0.590489 0.356995 0.312377 -0.037660
C37   C     C_R   0.107767 0.833426 0.515243 -0.167761
C38   C     C_R   0.892258 0.334526 0.484699 -0.167728
C39   C     C_R   0.074060 0.823875 0.407754 -0.185118
C40   C     C_R   0.925969 0.324703 0.592177 -0.185087
C41   C     C_R   0.143828 0.906744 0.320960 -0.144894
C42   C     C_R   0.856154 0.406443 0.679093 -0.144838
C43   C     C_R   0.180131 0.883167 0.426072 0.093845
C44   C     C_R   0.819865 0.383184 0.573932 0.093890
C45   C     C_R   0.160365 0.866149 0.525068 0.128441
C46   C     C_R   0.839642 0.366846 0.474916 0.128396
C47   C     C_R   0.234858 0.880882 0.437377 -0.017342
C48   C     C_R   0.765138 0.380597 0.562614 -0.017368
C49   C     C_R   0.267738 0.898536 0.550059 0.053626
C50   C     C_R   0.732250 0.398635 0.449966 0.053625
C51   C     C_R   0.244984 0.916393 0.644303 -0.112430
C52   C     C_R   0.754998 0.417036 0.355745 -0.112304
C53   C     C_R   0.192831 0.888884 0.632659 -0.197425
C54   C     C_R   0.807165 0.389853 0.367356 -0.197469
C55   C     C_R   0.258413 0.852825 0.343071 -0.039046
C56   C     C_R   0.741598 0.351869 0.656872 -0.038936
C57   C     C_R   0.311741 0.864080 0.360277 -0.254803
C58   C     C_R   0.688269 0.362828 0.639707 -0.254768
C59   C     C_R   0.343616 0.875811 0.469401 0.109618
C60   C     C_R   0.656385 0.374956 0.530613 0.109599
C61   C     C_R   0.322331 0.889577 0.566118 0.076636
C62   C     C_R   0.677659 0.389458 0.433910 0.076498
C63   C     C_R   0.397007 0.859981 0.482583 -0.150212
C64   C     C_R   0.603003 0.358742 0.517422 -0.150191
C65   C     C_R   0.429672 0.848621 0.591067 -0.179135
C66   C     C_R   0.570339 0.347710 0.408929 -0.179159
C67   C     C_R   0.356704 0.882397 0.675651 -0.211395
C68   C     C_R   0.643279 0.382722 0.324373 -0.211311
H15   H     H_    0.177642 0.889557 0.708581 0.134995
H16   H     H_    0.822355 0.390991 0.291437 0.135046
H17   H     H_    0.343864 0.888642 0.753809 0.140109
H18   H     H_    0.656109 0.389558 0.246218 0.139988
H19   H     H_    0.470625 0.832285 0.599753 0.099708
H20   H     H_    0.529398 0.330981 0.400230 0.099740
H21   H     H_    0.329108 0.844847 0.288158 0.168192
H22   H     H_    0.670917 0.343038 0.711802 0.168135
H23   H     H_    0.092840 0.814301 0.590719 0.117154
H24   H     H_    0.907198 0.315950 0.409197 0.117147
H25   H     H_    0.033753 0.794614 0.400823 0.104638
H26   H     H_    0.966293 0.295815 0.599064 0.104579
H27   H     H_    0.154940 0.958848 0.246086 0.102530
H28   H     H_    0.845020 0.458072 0.754047 0.102390
H29   H     H_    0.266692 0.946079 0.729717 0.153286
H30   H     H_    0.733280 0.446896 0.270363 0.153234
H31   H     H_    0.413397 0.849829 0.408611 0.115392
H32   H     H_    0.586624 0.347979 0.591384 0.115402
O11   O     O_R   0.955980 0.206520 0.854760 -0.529448
O12   O     O_R   0.044020 0.706520 0.145240 -0.529498
O13   O     O_R   0.063490 0.536770 0.945200 -0.535029
O14   O     O_R   0.936510 0.036770 0.054800 -0.535049
C69   C     C_R   0.082743 0.368171 0.937712 0.689123
C70   C     C_R   0.917258 0.868191 0.062298 0.689188
O15   O     O_R   0.957530 0.536190 0.842880 -0.549152
O16   O     O_R   0.042470 0.036190 0.157120 -0.549177
O17   O     O_R   0.937350 0.707210 0.042130 -0.544867
O18   O     O_R   0.062650 0.207210 0.957870 -0.544832
C71   C     C_R   0.943343 0.368331 0.802504 0.696619
C72   C     C_R   0.056662 0.868315 0.197491 0.696747
O19   O     O_3   0.993540 0.373870 0.065440 -0.375648
O20   O     O_3   0.006460 0.873870 0.934560 -0.375591
V3    V     V_3+5 0.001200 0.648440 0.987860 1.440779
V4    V     V_3+5 0.998800 0.148440 0.012140 1.440751
C73   C     C_2   0.231437 0.781844 0.228573 0.728870
O21   O     O_2   0.198226 0.661283 0.219966 -0.569243
O22   O     O_R   0.245964 0.845444 0.130747 -0.661580
H33   H     H_    0.225415 0.784093 0.058170 0.304230
C74   C     C_2   0.768610 0.280446 0.771228 0.728874
O23   O     O_2   0.801827 0.159929 0.779588 -0.569184
O24   O     O_R   0.754127 0.343635 0.869192 -0.661474
H34   H     H_    0.774714 0.282060 0.941657 0.304244
C75   C     C_2   0.734161 0.005409 0.209634 0.695768
O25   O     O_2   0.707883 0.130093 0.154616 -0.576397
O26   O     O_R   0.725332 0.946777 0.314275 -0.665265
H35   H     H_    0.694890 0.012815 0.333446 0.298061
C76   C     C_2   0.265837 0.504756 0.790264 0.695692
O27   O     O_2   0.292137 0.629402 0.845238 -0.576560
O28   O     O_R   0.274626 0.446098 0.685588 -0.665272
H36   H     H_    0.305045 0.512148 0.666336 0.298045

loop_
_geom_bond_atom_site_label_1
_geom_bond_atom_site_label_2
_ccdc_geom_bond_type
C20   C22   A    
C37   C39   A    
O20   V3    S    
C67   H17   S    
C9    C11   A    
C32   C69   S    
C58   H22   S    
O1    C3    A    
C64   H32   S    
O2    C4    A    
C2    O7    A    
C45   C53   A    
O3    V1    S    
O24   H34   S    
C21   C23   A    
O11   V4    S    
H4    C24   S    
O5    C3    A    
C75   O26   S    
C5    H5    S    
C48   C50   A    
C6    H6    S    
C10   C32   A    
C2    C35   S    
C58   C60   A    
O17   V3    S    
C76   O28   S    
H1    C29   S    
C68   H18   S    
O28   H36   S    
C28   H8    S    
O13   V3    S    
C5    C21   A    
C47   C55   A    
C43   C45   A    
C6    C22   A    
C33   C41   A    
C55   C73   S    
C26   H14   S    
O13   C69   A    
C36   C66   A    
C44   C48   A    
O19   V4    S    
O20   V4    S    
C13   C15   A    
C43   C47   A    
C54   H16   S    
C17   C25   A    
C7    C29   A    
C16   C18   A    
C8    C30   A    
O12   C72   A    
C22   C24   A    
C34   C40   A    
O6    V2    S    
C23   C25   A    
C24   C26   A    
C48   C56   A    
C39   H25   S    
C55   C57   A    
C51   C53   A    
C19   C21   A    
C62   C68   A    
C59   C61   A    
C9    C31   A    
C37   H23   S    
C60   C64   A    
C10   H10   S    
C11   H11   S    
C3    C8    S    
C12   H12   S    
C15   C19   A    
C41   C43   A    
C70   O17   A    
C38   C40   A    
C53   H15   S    
O4    V2    S    
C34   C71   S    
C69   O18   A    
C17   C31   A    
C25   H13   S    
C64   C66   A    
C31   C70   S    
O11   C71   A    
O6    C4    A    
C9    H9    S    
C52   C54   A    
C52   H30   S    
O1    V2    S    
C51   H29   S    
O2    V1    S    
C49   C51   A    
C14   C76   S    
H2    C30   S    
H3    C23   S    
C49   C61   A    
C57   C59   A    
C37   C45   A    
C56   C58   A    
C36   C68   A    
C74   O23   D    
C18   C26   A    
O4    C2    A    
C13   C75   S    
C47   C49   A    
C19   C27   A    
O22   H33   S    
C7    C27   A    
C18   C32   A    
C66   H20   S    
C74   O24   S    
C73   O21   D    
C33   C72   S    
C38   H24   S    
C50   C62   A    
C59   C63   A    
C57   H21   S    
C16   C20   A    
C5    C29   A    
C50   C52   A    
O3    C1    A    
C6    C30   A    
O26   H35   S    
O16   V4    S    
O15   C71   A    
C75   O25   D    
C63   H31   S    
C4    C7    S    
C56   C74   S    
C10   C12   A    
O7    V1    S    
C1    O8    A    
C46   C54   A    
O8    V2    S    
C76   O27   D    
C33   C39   A    
C12   C14   A    
O12   V3    S    
C41   H27   S    
C40   H26   S    
C61   C67   A    
O5    V1    S    
C15   C17   A    
O14   C70   A    
C1    C36   S    
C60   C62   A    
C38   C46   A    
O18   V4    S    
C20   C28   A    
C8    C28   A    
O16   C72   A    
C34   C42   A    
C11   C13   A    
C63   C65   A    
O14   V4    S    
O9    V2    S    
O19   V3    S    
C42   C44   A    
C27   H7    S    
O10   V1    S    
C44   C46   A    
C42   H28   S    
C65   H19   S    
C35   C67   A    
C35   C65   A    
C14   C16   A    
C73   O22   S    
O15   V3    S    
