data_mof_unit_34796.cif
_audit_creation_date              2013-03-05T15:41:56-0500
_audit_creation_method            fapswitch 2.2
_symmetry_space_group_name_H-M    P1
_symmetry_Int_Tables_number       1
_space_group_crystal_system       triclinic
_cell_length_a                    19.466983
_cell_length_b                    7.231328
_cell_length_c                    17.774922
_cell_angle_alpha                 90.00122
_cell_angle_beta                  107.771385
_cell_angle_gamma                 89.997149
_cell_volume                      2382.81301926

loop_
_atom_site_label
_atom_site_type_symbol
_atom_site_description
_atom_site_fract_x
_atom_site_fract_y
_atom_site_fract_z
_atom_type_partial_charge
O1    O     O_R   0.414820 0.494320 0.416790 -0.566489
O2    O     O_R   0.585180 0.994320 0.583210 -0.566479
O3    O     O_R   0.560270 0.819500 0.430140 -0.549347
O4    O     O_R   0.439730 0.319500 0.569860 -0.549340
C1    C     C_R   0.582228 0.655423 0.416208 0.810843
C2    C     C_R   0.417776 0.155431 0.583797 0.810730
O5    O     O_R   0.413840 0.823740 0.407440 -0.526741
O6    O     O_R   0.586160 0.323740 0.592560 -0.526764
O7    O     O_R   0.437710 0.998590 0.560350 -0.546527
O8    O     O_R   0.562290 0.498590 0.439650 -0.546495
C3    C     C_R   0.388455 0.654962 0.384183 0.829201
C4    C     C_R   0.611546 0.154960 0.615816 0.829181
O9    O     O_3   0.508000 0.662290 0.550200 -0.280373
O10   O     O_3   0.492000 0.162290 0.449800 -0.280330
V1    V     V_3+5 0.498520 0.935380 0.490690 1.220412
V2    V     V_3+5 0.501480 0.435380 0.509310 1.220390
C5    C     C_2   0.785260 0.270648 0.786042 0.348656
C6    C     C_2   0.214738 0.770643 0.213954 0.348602
C7    C     C_2   0.824895 0.116449 0.812186 -0.074905
C8    C     C_2   0.175106 0.616444 0.187813 -0.074725
H1    H     H_    0.812187 0.990715 0.777195 0.084777
H2    H     H_    0.187818 0.490714 0.222802 0.084798
C9    C     C_2   0.726560 0.271467 0.707867 0.302337
C10   C     C_2   0.273438 0.771471 0.292129 0.302343
C11   C     C_2   0.673471 0.142599 0.690046 0.226473
C12   C     C_2   0.326532 0.642602 0.309951 0.226497
C13   C     C_R   0.309325 0.015572 0.613295 0.409882
C14   C     C_R   0.690629 0.515365 0.386660 0.409819
C15   C     C_R   0.366562 0.146047 0.630699 -0.168487
C16   C     C_R   0.633456 0.646034 0.369322 -0.168668
C17   C     C_R   0.375497 0.268112 0.693950 -0.070332
C18   C     C_R   0.624640 0.768417 0.306200 -0.069935
C19   C     C_R   0.329463 0.261981 0.740852 0.037293
C20   C     C_R   0.670748 0.762461 0.259382 0.037533
C21   C     C_R   0.274508 0.127896 0.726837 -0.014973
C22   C     C_R   0.725610 0.628123 0.273291 -0.015002
C23   C     C_R   0.265978 0.998189 0.664479 -0.020039
C24   C     C_R   0.734010 0.498077 0.335504 -0.020078
C25   C     C_R   0.338719 0.388368 0.802306 -0.079377
C26   C     C_R   0.661754 0.889528 0.198218 -0.078738
C27   C     C_R   0.294503 0.385538 0.851076 0.359168
C28   C     C_R   0.706128 0.887115 0.149627 0.359237
C29   C     C_R   0.236820 0.255486 0.837270 -0.079951
C30   C     C_R   0.763524 0.756297 0.163119 -0.080153
C31   C     C_R   0.227567 0.125661 0.774565 -0.034508
C32   C     C_R   0.772603 0.626006 0.225624 -0.033945
C33   C     C_R   0.171028 0.994633 0.758536 -0.033095
C34   C     C_R   0.829030 0.494663 0.241523 -0.031717
C35   C     C_R   0.164127 0.864839 0.697863 -0.074433
C36   C     C_R   0.835820 0.364592 0.302067 -0.073663
C37   C     C_R   0.211814 0.860644 0.653042 0.351467
C38   C     C_R   0.788107 0.360359 0.346860 0.351505
C39   C     C_R   0.188310 0.250145 0.883366 0.308314
C40   C     C_R   0.811895 0.750591 0.116875 0.308511
C41   C     C_R   0.130888 0.120577 0.865943 -0.218220
C42   C     C_R   0.869211 0.620719 0.134167 -0.218007
C43   C     C_R   0.122007 0.994791 0.802909 0.322577
C44   C     C_R   0.878054 0.494810 0.197151 0.323006
H3    H     H_    0.418788 0.368993 0.706757 0.105432
H4    H     H_    0.581427 0.869512 0.293469 0.105641
H5    H     H_    0.381730 0.489817 0.813617 0.116276
H6    H     H_    0.618950 0.991539 0.187122 0.115869
H7    H     H_    0.122490 0.760258 0.685807 0.173261
H8    H     H_    0.877388 0.259830 0.314040 0.172996
O11   O     O_R   0.937810 0.773680 0.060480 -0.528486
O12   O     O_R   0.062190 0.273680 0.939520 -0.528452
O13   O     O_R   0.086190 0.439740 0.092580 -0.537195
O14   O     O_R   0.913810 0.939740 0.907420 -0.537393
C45   C     C_R   0.111935 0.608721 0.115409 0.897681
C46   C     C_R   0.888066 0.108723 0.884590 0.897793
O15   O     O_R   0.939760 0.444210 0.069890 -0.514675
O16   O     O_R   0.060240 0.944210 0.930110 -0.514918
O17   O     O_R   0.914790 0.269640 0.916760 -0.517890
O18   O     O_R   0.085210 0.769640 0.083240 -0.517992
C47   C     C_R   0.918997 0.612621 0.084789 0.891077
C48   C     C_R   0.081024 0.112602 0.915233 0.891455
O19   O     O_3   0.992050 0.601530 0.949880 -0.260085
O20   O     O_3   0.007950 0.101530 0.050120 -0.259840
V3    V     V_3+5 0.001480 0.328340 0.009300 1.362051
V4    V     V_3+5 0.998520 0.828340 0.990700 1.361796
O21   O     O_3   0.800826 0.431691 0.829970 -0.674692
H9    H     H_    0.763832 0.525481 0.804663 0.334784
O22   O     O_3   0.199166 0.931681 0.170027 -0.674664
H10   H     H_    0.236160 0.025474 0.195332 0.334821
N1    N     N_R   0.060815 0.872801 0.781516 0.090350
O23   O     O_R   0.995895 0.940531 0.756004 -0.358611
O24   O     O_R   0.069563 0.695903 0.794218 -0.311091
N2    N     N_R   0.939167 0.372548 0.218444 0.090268
O25   O     O_R   0.004132 0.439985 0.243944 -0.358699
O26   O     O_R   0.930301 0.195713 0.205629 -0.310911
N3    N     N_R   0.206398 0.708718 0.599521 0.131978
O27   O     O_R   0.261586 0.600299 0.607865 -0.331664
O28   O     O_R   0.143490 0.656868 0.553799 -0.292731
N4    N     N_R   0.793441 0.208264 0.400276 0.131853
O29   O     O_R   0.738189 0.100062 0.391884 -0.331911
O30   O     O_R   0.856323 0.156079 0.445945 -0.292919
O31   O     O_3   0.724916 0.411357 0.654263 -0.726849
H11   H     H_    0.769683 0.485390 0.674146 0.330353
O32   O     O_3   0.275076 0.911364 0.345734 -0.726767
H12   H     H_    0.230307 0.985398 0.325850 0.330382
O33   O     O_3   0.675425 0.002484 0.743768 -0.732826
H13   H     H_    0.630456 0.928992 0.724979 0.324799
O34   O     O_3   0.324584 0.502484 0.256230 -0.732675
H14   H     H_    0.369554 0.428992 0.275018 0.324866
O35   O     O_3   0.291656 0.913716 0.544221 -0.636826
H15   H     H_    0.305831 0.983472 0.503400 0.333817
O36   O     O_3   0.708217 0.413249 0.455659 -0.636820
H16   H     H_    0.694125 0.483007 0.496539 0.333834
N5    N     N_R   0.310833 0.515287 0.914835 0.124448
O37   O     O_R   0.306006 0.691509 0.899301 -0.328691
O38   O     O_R   0.347362 0.460426 0.985416 -0.266155
N6    N     N_R   0.690529 0.018859 0.086651 0.124343
O39   O     O_R   0.697339 0.194471 0.103268 -0.330200
O40   O     O_R   0.652859 0.967439 0.015950 -0.266264
N7    N     N_R   0.197713 0.371983 0.949396 0.117001
O41   O     O_R   0.173523 0.540683 0.937883 -0.283214
O42   O     O_R   0.219128 0.305836 0.020871 -0.306682
N8    N     N_R   0.802235 0.871751 0.050590 0.116726
O43   O     O_R   0.827127 0.039866 0.061615 -0.282217
O44   O     O_R   0.779927 0.805118 0.979230 -0.306662

loop_
_geom_bond_atom_site_label_1
_geom_bond_atom_site_label_2
_geom_bond_distance
_ccdc_geom_bond_type
O14   V4    2.017267 S    
C16   C18   1.397858 A    
O33   H13   0.990890 S    
C35   H7    1.081134 S    
C13   C15   1.420247 A    
C10   O32   1.383351 S    
C36   H8    1.081124 S    
O1    C3    1.329352 A    
O16   C48   1.334836 A    
O2    C4    1.329363 A    
C2    O7    1.307390 A    
N6    O40   1.301058 A    
O31   H11   0.991472 S    
C25   C27   1.395825 A    
N1    O23   1.301088 A    
O5    C3    1.334175 A    
O12   V3    1.996538 S    
C19   C25   1.393119 A    
C20   C26   1.393109 A    
C7    H1    1.086650 S    
C10   C12   1.355400 D    
N5    O38   1.300931 A    
C23   C37   1.418318 A    
N3    O28   1.301262 A    
C13   O35   1.382200 S    
C14   O36   1.382160 S    
N7    O41   1.301141 A    
C26   H6    1.084903 S    
C31   C33   1.413870 A    
C17   H3    1.084956 S    
C28   N6    1.430172 S    
N8    O43   1.301231 A    
C37   N3    1.435920 S    
C29   C39   1.427219 A    
O22   H10   0.991597 S    
C42   C44   1.412224 A    
N7    O42   1.301289 A    
C36   C38   1.396080 A    
O36   H16   0.989637 S    
C17   C19   1.398627 A    
C22   C32   1.424135 A    
C5    O21   1.383204 S    
C6    C8    1.354898 D    
C34   C36   1.404820 A    
O6    V2    2.017356 S    
C42   C47   1.494098 S    
C27   N5    1.430322 S    
C27   C29   1.427403 A    
C28   C30   1.427295 A    
O15   V3    2.023695 S    
N6    O39   1.301376 A    
C30   C32   1.425999 A    
O21   H9    0.991550 S    
C32   C34   1.413852 A    
C39   C41   1.418488 A    
C25   H5    1.084875 S    
C40   C42   1.418431 A    
N1    O24   1.301104 A    
O13   V3    2.017307 S    
C33   C35   1.404832 A    
N3    O27   1.301359 A    
O20   V3    1.782306 S    
C5    C7    1.354878 D    
O5    V1    2.017396 S    
C3    C12   1.493700 S    
C35   C37   1.396042 A    
O13   C45   1.336006 A    
C18   C20   1.398584 A    
O4    V2    2.023724 S    
N4    O30   1.301242 A    
C12   O34   1.384833 S    
C33   C43   1.411474 A    
O32   H12   0.991464 S    
C14   C24   1.422800 A    
O6    C4    1.334162 A    
O12   C48   1.331957 A    
C46   O17   1.330458 A    
C6    O22   1.383169 S    
O17   V3    2.009810 S    
C45   O18   1.330448 A    
O1    V2    2.009613 S    
C5    C9    1.505792 S    
C38   N4    1.435885 S    
O2    V1    2.009634 S    
C29   C31   1.426008 A    
C41   C48   1.494107 S    
O4    C2    1.310092 A    
C9    O31   1.383338 S    
C8    H2    1.086614 S    
C41   C43   1.412203 A    
C6    C10   1.505794 S    
C8    C45   1.485127 S    
C18   H4    1.084913 S    
C22   C24   1.422532 A    
C21   C31   1.424155 A    
C40   N8    1.433859 S    
O3    V1    2.023657 S    
C1    C16   1.483568 S    
O19   V4    1.782289 S    
C21   C23   1.422509 A    
N2    O26   1.301105 A    
O3    C1    1.310102 A    
C44   N2    1.437102 S    
C34   C44   1.411498 A    
O35   H15   0.989600 S    
O11   C47   1.331896 A    
C4    C11   1.493696 S    
C14   C16   1.420250 A    
O7    V1    2.009507 S    
C1    O8    1.307394 A    
O16   V4    2.023762 S    
O8    V2    2.009546 S    
N5    O37   1.301199 A    
O15   C47   1.334887 A    
C11   O33   1.384829 S    
C13   C23   1.422770 A    
C26   C28   1.395676 A    
C19   C21   1.408578 A    
C43   N1    1.437135 S    
C20   C22   1.408600 A    
C9    C11   1.355390 D    
N4    O29   1.301352 A    
N8    O44   1.301305 A    
C30   C40   1.427073 A    
C2    C15   1.483578 S    
C24   C38   1.418332 A    
N2    O25   1.301079 A    
C15   C17   1.397852 A    
O9    V2    1.783382 S    
O34   H14   0.990887 S    
O11   V4    1.996572 S    
O14   C46   1.335987 A    
O10   V1    1.783399 S    
C7    C46   1.485126 S    
O18   V4    2.009790 S    
C39   N7    1.433917 S    
