data_mof_unit_63533.cif
_audit_creation_date              2012-12-10T17:55:58-0500
_audit_creation_method            fapswitch 2.2
_symmetry_space_group_name_H-M    P1
_symmetry_Int_Tables_number       1
_space_group_crystal_system       triclinic
_cell_length_a                    30.231152
_cell_length_b                    30.73965
_cell_length_c                    21.581986
_cell_angle_alpha                 90.011062
_cell_angle_beta                  134.766748
_cell_angle_gamma                 89.984471
_cell_volume                      14239.3724346

loop_
_atom_site_label
_atom_site_type_symbol
_atom_type_description
_atom_site_fract_x
_atom_site_fract_y
_atom_site_fract_z
_atom_type_partial_charge
C1    C     C_R   0.309717 0.809405 0.118803 0.785332
C2    C     C_R   0.472069 0.668322 0.990030 -0.199774
C3    C     C_R   0.355696 0.163260 0.262282 -0.187849
C4    C     C_R   0.112704 0.630775 0.673652 -0.201110
C5    C     C_R   0.915512 0.636411 0.339703 -0.204336
C6    C     C_R   0.584797 0.136387 0.660353 -0.202744
C7    C     C_R   0.387217 0.130766 0.326297 -0.203184
C8    C     C_R   0.091073 0.593623 0.683398 -0.094615
C9    C     C_R   0.908620 0.592710 0.315875 -0.075227
C10   C     C_R   0.591352 0.092717 0.684115 -0.074228
C11   C     C_R   0.408895 0.093617 0.316587 -0.094405
C12   C     C_R   0.096078 0.591577 0.752715 0.106248
C13   C     C_R   0.016726 0.168460 0.987439 -0.198518
C14   C     C_R   0.876907 0.582353 0.230323 0.078469
C15   C     C_R   0.622740 0.082418 0.769553 0.078003
C16   C     C_R   0.403929 0.091572 0.247304 0.107000
C17   C     C_3   0.121221 0.555739 0.817022 -0.254108
C18   C     C_3   0.826565 0.549592 0.170738 -0.269785
C19   C     C_3   0.672867 0.049546 0.829316 -0.267953
C20   C     C_3   0.378819 0.055735 0.183000 -0.255594
C21   C     C_3   0.157071 0.590425 0.888095 -0.477367
C22   C     C_3   0.791773 0.584532 0.100190 -0.452804
C23   C     C_3   0.707654 0.084477 0.899878 -0.452617
C24   C     C_R   0.970662 0.168432 0.987395 -0.199919
C25   C     C_3   0.342976 0.090422 0.111932 -0.478360
C26   C     C_R   0.940639 0.559194 0.381230 0.790406
C27   C     C_R   0.059414 0.559332 0.618884 0.785673
C28   C     C_R   0.440577 0.059332 0.381114 0.785447
C29   C     C_R   0.559355 0.059193 0.618771 0.790284
C30   C     C_R   0.440413 0.940629 0.381125 0.788241
C31   C     C_R   0.559812 0.940886 0.619284 0.790551
C32   C     C_R   0.940194 0.440884 0.380716 0.790554
C33   C     C_R   0.059593 0.440629 0.618872 0.788427
C34   C     C_R   0.163759 0.749478 0.998710 0.810360
C35   C     C_R   0.478548 0.826501 0.003290 -0.186952
C36   C     C_R   0.836315 0.749430 0.001396 0.808593
C37   C     C_R   0.663681 0.249436 0.998597 0.808686
C38   C     C_R   0.336238 0.249472 0.001283 0.810048
C39   C     C_R   0.595012 0.787344 0.005014 -0.336212
C40   C     C_R   0.406136 0.787276 0.997349 -0.333925
C41   C     C_R   0.095936 0.287250 0.006927 -0.333219
C42   C     C_R   0.907085 0.287322 0.999309 -0.337008
C43   C     C_R   0.616943 0.748257 0.001768 -0.099437
C44   C     C_R   0.382943 0.748133 0.997972 -0.095278
C45   C     C_R   0.117025 0.248199 0.002000 -0.098361
C46   C     C_R   0.525865 0.826505 0.005783 -0.186437
C47   C     C_R   0.883019 0.248189 0.998191 -0.095530
C48   C     C_R   0.594224 0.708060 0.000884 0.349151
C49   C     C_R   0.406386 0.707968 0.000112 0.343160
C50   C     C_R   0.093560 0.208024 0.999694 0.347389
C51   C     C_R   0.905682 0.208002 0.998852 0.344729
C52   C     C_R   0.546201 0.707421 0.998529 0.010590
C53   C     C_R   0.452074 0.707375 0.997821 0.011343
C54   C     C_R   0.045575 0.207424 0.997419 0.009675
C55   C     C_R   0.951434 0.207409 0.996687 0.012042
C56   C     C_R   0.524095 0.747206 0.001458 0.038419
C57   C     C_R   0.980411 0.326451 0.007050 -0.186572
C58   C     C_R   0.476794 0.747192 0.000264 0.039087
C59   C     C_R   0.024293 0.247175 0.001960 0.038395
C60   C     C_R   0.976993 0.247188 0.000767 0.039079
C61   C     C_1   0.966779 0.747860 0.165604 0.241116
C62   C     C_1   0.033573 0.745356 0.834827 0.238701
C63   C     C_1   0.466420 0.245305 0.165152 0.239042
C64   C     C_1   0.533213 0.247912 0.834378 0.240667
C65   C     C_1   0.071870 0.534736 0.804894 0.295415
C66   C     C_1   0.848046 0.513070 0.153437 0.281271
C67   C     C_1   0.651018 0.013168 0.846292 0.279817
C68   C     C_R   0.027718 0.326414 0.009524 -0.186930
C69   C     C_1   0.428196 0.034724 0.195171 0.296615
C70   C     C_R   0.342246 0.843499 0.249121 0.102983
C71   C     C_R   0.596783 0.835919 0.734489 0.133868
C72   C     C_R   0.903326 0.335976 0.265356 0.134898
C73   C     C_R   0.690540 0.809351 0.880976 0.781913
C74   C     C_R   0.157698 0.343450 0.750805 0.102722
C75   C     C_R   0.341984 0.843284 0.184271 -0.074713
C76   C     C_R   0.658645 0.842212 0.813345 -0.081217
C77   C     C_R   0.841382 0.342207 0.186653 -0.081190
C78   C     C_R   0.158031 0.343286 0.815727 -0.074471
C79   C     C_R   0.367224 0.879069 0.177301 -0.201640
C80   C     C_R   0.690299 0.879449 0.823718 -0.194126
C81   C     C_R   0.809669 0.379365 0.176461 -0.193949
C82   C     C_R   0.132871 0.379120 0.822762 -0.200645
C83   C     C_R   0.399658 0.911293 0.241873 -0.209915
C84   C     C_R   0.809469 0.309350 0.119022 0.782065
C85   C     C_R   0.658101 0.911551 0.758887 -0.186562
C86   C     C_R   0.841866 0.411463 0.241299 -0.186364
C87   C     C_R   0.100440 0.411345 0.758192 -0.209514
C88   C     C_R   0.405047 0.908572 0.311937 -0.086968
C89   C     C_R   0.593749 0.907215 0.685085 -0.064600
C90   C     C_R   0.906271 0.407208 0.314917 -0.065032
C91   C     C_R   0.094975 0.408575 0.688063 -0.086782
C92   C     C_R   0.372624 0.875973 0.311367 0.144607
C93   C     C_R   0.564602 0.868184 0.671797 0.089228
C94   C     C_R   0.935502 0.368242 0.328046 0.089982
C95   C     C_R   0.190289 0.309406 0.881195 0.785455
C96   C     C_R   0.127325 0.375924 0.688561 0.144917
C97   C     C_3   0.395342 0.844955 0.382002 -0.493760
C98   C     C_3   0.506260 0.860073 0.650016 -0.454639
C99   C     C_3   0.993749 0.360266 0.349507 -0.454087
C100  C     C_3   0.104521 0.344890 0.617894 -0.493933
C101  C     C_R   0.335275 0.749473 0.999341 0.863707
C102  C     C_R   0.664645 0.749567 0.000489 0.861789
C103  C     C_R   0.835310 0.249513 0.999434 0.866445
C104  C     C_R   0.164681 0.249527 0.000584 0.859248
C105  C     C_3   0.362066 0.809219 0.313480 -0.455830
C106  C     C_R   0.548692 0.787174 0.004604 0.110978
C107  C     C_3   0.541558 0.824478 0.718822 -0.471478
C108  C     C_3   0.958456 0.324670 0.280700 -0.475168
C109  C     C_3   0.137789 0.309152 0.686413 -0.455752
C110  C     C_R   0.868642 0.747067 0.924336 -0.254254
C111  C     C_R   0.131608 0.748440 0.075969 -0.255371
C112  C     C_R   0.368381 0.248435 0.924011 -0.255476
C113  C     C_R   0.631347 0.247072 0.075644 -0.254088
C114  C     C_R   0.885877 0.748540 0.003745 -0.105956
C115  C     C_R   0.114300 0.748617 0.996485 -0.103934
C116  C     C_R   0.385691 0.248597 0.003497 -0.103869
C117  C     C_R   0.453784 0.787155 0.000440 0.111414
C118  C     C_R   0.614114 0.248559 0.996237 -0.105992
C119  C     C_R   0.949437 0.748984 0.083502 -0.077389
C120  C     C_R   0.050781 0.747752 0.916760 -0.078190
C121  C     C_R   0.449210 0.247719 0.083220 -0.078374
C122  C     C_R   0.550554 0.249018 0.916479 -0.077228
C123  C     C_R   0.995645 0.748750 0.082476 0.059937
C124  C     C_R   0.004586 0.747461 0.917802 0.060091
C125  C     C_R   0.495404 0.247435 0.082177 0.059855
C126  C     C_R   0.504345 0.248775 0.917504 0.060167
C127  C     C_R   0.977396 0.747983 0.001343 0.057941
C128  C     C_R   0.049696 0.287096 0.006680 0.111136
C129  C     C_R   0.022845 0.748000 0.998951 0.057813
C130  C     C_R   0.477145 0.247994 0.001028 0.057859
C131  C     C_R   0.522594 0.247988 0.998636 0.057902
C132  C     C_R   0.913737 0.747053 0.922465 0.111657
C133  C     C_R   0.086519 0.748414 0.077851 0.113479
C134  C     C_R   0.413470 0.248416 0.922128 0.113752
C135  C     C_R   0.586253 0.247049 0.077514 0.111334
C136  C     C_R   0.059631 0.749187 0.160259 -0.198950
C137  C     C_R   0.940618 0.746561 0.840039 -0.197197
C138  C     C_R   0.559373 0.246527 0.159940 -0.196923
C139  C     C_R   0.954800 0.287152 0.002540 0.111375
C140  C     C_R   0.440359 0.249221 0.839722 -0.199156
C141  C     C_R   0.104404 0.748962 0.157794 -0.204848
C142  C     C_R   0.895857 0.746302 0.842526 -0.202152
C143  C     C_R   0.604133 0.246279 0.157452 -0.201816
C144  C     C_R   0.395585 0.248985 0.842186 -0.205101
C145  C     C_R   0.128867 0.623006 0.817235 0.084835
C146  C     C_R   0.845278 0.614196 0.166610 0.105365
C147  C     C_R   0.654380 0.114259 0.833274 0.103845
C148  C     C_R   0.371145 0.123002 0.182787 0.087371
C149  C     C_R   0.190773 0.690651 0.881006 0.816574
C150  C     C_R   0.518124 0.668362 0.990057 -0.199523
C151  C     C_R   0.809623 0.690536 0.119190 0.812229
C152  C     C_R   0.690373 0.190536 0.880811 0.817824
C153  C     C_R   0.309219 0.190651 0.118993 0.810953
C154  C     C_R   0.156006 0.657987 0.812959 -0.065429
C155  C     C_R   0.845696 0.657448 0.187119 -0.091133
C156  C     C_R   0.654296 0.157456 0.812871 -0.087766
C157  C     C_R   0.343971 0.157984 0.187033 -0.066501
C158  C     C_R   0.144228 0.663268 0.737670 -0.179896
C159  C     C_R   0.884332 0.668772 0.275555 -0.178121
C160  C     C_R   0.615976 0.168751 0.724497 -0.174895
Cu1   Cu    Cu3+1 0.280880 0.719080 0.061820 0.973127
Cu2   Cu    Cu3+1 0.455570 0.999980 0.500010 0.960508
Cu3   Cu    Cu3+1 0.044430 0.499980 0.499990 0.962824
Cu4   Cu    Cu3+1 0.955570 0.499980 0.500010 0.972090
Cu5   Cu    Cu3+1 0.719120 0.719080 0.938180 0.982786
Cu6   Cu    Cu3+1 0.780880 0.219080 0.061820 0.974628
Cu7   Cu    Cu3+1 0.219120 0.219080 0.938180 0.981268
Cu8   Cu    Cu3+1 0.219090 0.780890 0.938220 0.976744
Cu9   Cu    Cu3+1 0.780910 0.780890 0.061780 0.975374
Cu10  Cu    Cu3+1 0.719090 0.280890 0.938220 0.978457
Cu11  Cu    Cu3+1 0.280910 0.280890 0.061780 0.974373
Cu12  Cu    Cu3+1 0.544430 0.999980 0.499990 0.974260
H1    H     H_    0.613417 0.818007 0.006306 0.167052
H2    H     H_    0.180602 0.749045 0.136718 0.146698
H3    H     H_    0.319386 0.249050 0.863264 0.146520
H4    H     H_    0.680327 0.246659 0.136427 0.152799
H5    H     H_    0.075655 0.749775 0.223608 0.159040
H6    H     H_    0.924599 0.746117 0.776690 0.160134
H7    H     H_    0.575392 0.246067 0.223288 0.160553
H8    H     H_    0.424335 0.249824 0.776373 0.158693
H9    H     H_    0.153248 0.749333 0.218729 0.144232
H10   H     H_    0.847021 0.745627 0.781599 0.147469
H11   H     H_    0.652969 0.245596 0.218378 0.147965
H12   H     H_    0.388131 0.817924 0.996963 0.162333
H13   H     H_    0.346741 0.249362 0.781251 0.143827
H14   H     H_    0.161963 0.691339 0.730483 0.158350
H15   H     H_    0.888427 0.702220 0.294809 0.172535
H16   H     H_    0.612148 0.202167 0.705312 0.172435
H17   H     H_    0.337926 0.191330 0.269440 0.156462
H18   H     H_    0.106151 0.634260 0.617666 0.154990
H19   H     H_    0.943473 0.645286 0.407132 0.142467
H20   H     H_    0.557096 0.145232 0.592989 0.142693
H21   H     H_    0.393737 0.134249 0.382256 0.154343
H22   H     H_    0.151190 0.532420 0.820795 0.145315
H23   H     H_    0.114923 0.317897 0.009384 0.164120
H24   H     H_    0.803084 0.539320 0.191115 0.151035
H25   H     H_    0.696513 0.039110 0.809259 0.152991
H26   H     H_    0.348843 0.032420 0.179194 0.144671
H27   H     H_    0.141351 0.595424 0.921204 0.200085
H28   H     H_    0.787151 0.577992 0.045126 0.203026
H29   H     H_    0.711978 0.078052 0.954700 0.201322
H30   H     H_    0.358722 0.095419 0.078858 0.200582
H31   H     H_    0.208407 0.587682 0.932959 0.208917
H32   H     H_    0.748001 0.595186 0.080057 0.206343
H33   H     H_    0.751603 0.094946 0.920365 0.210487
H34   H     H_    0.889683 0.317967 0.000128 0.165241
H35   H     H_    0.291639 0.087685 0.067036 0.208588
H36   H     H_    0.530306 0.637406 0.981592 0.156435
H37   H     H_    0.451540 0.637324 0.981731 0.156485
H38   H     H_    0.028282 0.137589 0.977745 0.157404
H39   H     H_    0.949503 0.137526 0.977855 0.155501
H40   H     H_    0.461297 0.857322 0.003615 0.146636
H41   H     H_    0.544288 0.857333 0.007909 0.147862
H42   H     H_    0.963803 0.357268 0.008636 0.147786
H43   H     H_    0.046777 0.357208 0.012897 0.146431
H44   H     H_    0.364420 0.880978 0.124486 0.152704
H45   H     H_    0.321888 0.795157 0.299435 0.192003
H46   H     H_    0.739267 0.884038 0.882253 0.157816
H47   H     H_    0.760650 0.383896 0.118058 0.157796
H48   H     H_    0.135732 0.381069 0.875627 0.153103
H49   H     H_    0.421378 0.937690 0.238042 0.166698
H50   H     H_    0.682579 0.940595 0.768339 0.145108
H51   H     H_    0.817333 0.440447 0.231981 0.144981
H52   H     H_    0.078776 0.437779 0.762073 0.166729
H53   H     H_    0.446932 0.841476 0.432917 0.194397
H54   H     H_    0.493174 0.887890 0.667385 0.219082
H55   H     H_    0.006634 0.388146 0.331994 0.218794
H56   H     H_    0.523848 0.791284 0.691006 0.204814
H57   H     H_    0.052927 0.341455 0.567027 0.194658
H58   H     H_    0.374243 0.851531 0.407284 0.199827
H59   H     H_    0.468188 0.847367 0.582626 0.191123
H60   H     H_    0.031966 0.347572 0.416871 0.190883
H61   H     H_    0.125582 0.351411 0.592547 0.199623
H62   H     H_    0.394364 0.785025 0.324444 0.213235
H63   H     H_    0.548875 0.831557 0.776064 0.195984
H64   H     H_    0.950941 0.331812 0.223313 0.195163
H65   H     H_    0.105482 0.285003 0.675499 0.213846
H66   H     H_    0.623412 0.648837 0.040491 0.311093
H67   H     H_    0.976316 0.291486 0.308485 0.203518
H68   H     H_    0.416409 0.648729 0.038976 0.318421
H69   H     H_    0.121640 0.148460 0.037160 0.313103
H70   H     H_    0.914395 0.148377 0.035246 0.316295
H71   H     H_    0.177924 0.295035 0.700390 0.191721
H72   H     H_    0.819663 0.746665 0.863554 0.152564
N1    N     N_1   0.980546 0.746902 0.231021 -0.278718
N2    N     N_1   0.019923 0.743380 0.769554 -0.274011
N3    N     N_1   0.480070 0.243315 0.230424 -0.272824
N4    N     N_1   0.519448 0.246969 0.768961 -0.279562
N5    N     N_1   0.033022 0.518162 0.795287 -0.286991
N6    N     N_1   0.864982 0.484289 0.139943 -0.278866
N7    N     N_1   0.633794 0.984496 0.859528 -0.278689
N8    N     N_1   0.467064 0.018144 0.204812 -0.287302
O1    O     O_R   0.321150 0.768980 0.142380 -0.592901
O2    O     O_R   0.507570 0.954900 0.590190 -0.582923
O3    O     O_R   0.992430 0.454900 0.409810 -0.583032
O4    O     O_R   0.007570 0.454900 0.590190 -0.579174
O5    O     O_R   0.417320 0.954950 0.409780 -0.584750
O6    O     O_R   0.582680 0.954950 0.590220 -0.588073
O7    O     O_R   0.917320 0.454950 0.409780 -0.588331
O8    O     O_R   0.082680 0.454950 0.590220 -0.584379
O9    O     O_R   0.268980 0.821170 0.038000 -0.587267
O10   O     O_R   0.731020 0.821170 0.962000 -0.585236
O11   O     O_R   0.768980 0.321170 0.038000 -0.584998
O12   O     O_R   0.678850 0.768980 0.857620 -0.589680
O13   O     O_R   0.231020 0.321170 0.962000 -0.587605
O14   O     O_R   0.340930 0.723870 0.052190 -0.546223
O15   O     O_R   0.659070 0.723870 0.947810 -0.539898
O16   O     O_R   0.840930 0.223870 0.052190 -0.550727
O17   O     O_R   0.159070 0.223870 0.947810 -0.535373
O18   O     O_R   0.288760 0.776060 0.947810 -0.602677
O19   O     O_R   0.711240 0.776060 0.052190 -0.599578
O20   O     O_R   0.788760 0.276060 0.947810 -0.596128
O21   O     O_R   0.211240 0.276060 0.052190 -0.605957
O22   O     O_R   0.230990 0.678800 0.962040 -0.578430
O23   O     O_R   0.821150 0.268980 0.142380 -0.590069
O24   O     O_R   0.769010 0.678800 0.037960 -0.577301
O25   O     O_R   0.730990 0.178800 0.962040 -0.578046
O26   O     O_R   0.269010 0.178800 0.037960 -0.578600
O27   O     O_R   0.178820 0.731000 0.857660 -0.581832
O28   O     O_R   0.821180 0.731000 0.142340 -0.586424
O29   O     O_R   0.678820 0.231000 0.857660 -0.586196
O30   O     O_R   0.321180 0.231000 0.142340 -0.581309
O31   O     O_R   0.211210 0.723910 0.052230 -0.591434
O32   O     O_R   0.788790 0.723910 0.947770 -0.588820
O33   O     O_R   0.711210 0.223910 0.052230 -0.588812
O34   O     O_R   0.178850 0.268980 0.857620 -0.592167
O35   O     O_R   0.288790 0.223910 0.947770 -0.591494
O36   O     O_R   0.159040 0.776100 0.947850 -0.573034
O37   O     O_R   0.840960 0.776100 0.052150 -0.576523
O38   O     O_R   0.659040 0.276100 0.947850 -0.576432
O39   O     O_R   0.340960 0.276100 0.052150 -0.573112
O40   O     O_R   0.992480 0.545070 0.409820 -0.577592
O41   O     O_R   0.007520 0.545070 0.590180 -0.576699
O42   O     O_R   0.492480 0.045070 0.409820 -0.575958
O43   O     O_R   0.507520 0.045070 0.590180 -0.578352
O44   O     O_3   0.620742 0.670428 0.003960 -0.731117
O45   O     O_R   0.917370 0.545120 0.409780 -0.586105
O46   O     O_3   0.382337 0.670268 0.001717 -0.727262
O47   O     O_3   0.119325 0.170351 0.001345 -0.725212
O48   O     O_3   0.880808 0.170317 0.998901 -0.733481
O49   O     O_R   0.082630 0.545120 0.590220 -0.583371
O50   O     O_R   0.417370 0.045120 0.409780 -0.584993
O51   O     O_R   0.582630 0.045120 0.590220 -0.584297
O52   O     O_R   0.492430 0.954900 0.409810 -0.579337

loop_
_geom_bond_atom_site_label_1
_geom_bond_atom_site_label_2
_ccdc_geom_bond_type
C87   C91   A    
C30   O5    A    
C23   H29   S    
C26   O40   A    
C21   H27   S    
C154  C158  A    
C138  C143  A    
C3    H17   S    
C82   C87   A    
C104  O17   A    
C91   C96   A    
H66   O44   S    
C32   C90   S    
C152  C156  S    
C37   O38   A    
C151  C155  S    
C85   H50   S    
C68   C128  A    
C81   C86   A    
C73   O12   A    
C39   H1    S    
C144  H13   S    
C97   C105  S    
C40   C117  A    
C100  C109  S    
C149  C154  S    
C130  C134  A    
C51   O48   S    
C9    C26   S    
Cu5   Cu9   S    
C102  O19   A    
C18   H24   S    
C124  C137  A    
Cu10  O29   S    
C86   C90   A    
C37   O33   A    
Cu7   Cu11  S    
C70   C105  S    
C17   C21   S    
C153  O26   A    
C19   C23   S    
C136  C141  A    
C74   C96   A    
C78   C82   A    
C16   C20   S    
Cu1   O31   S    
C56   C106  A    
C129  C133  A    
C142  H10   S    
C105  H45   S    
C13   C54   A    
C31   O2    A    
Cu6   O33   S    
C112  C134  A    
C2    C53   A    
C6    C160  A    
C44   C101  S    
C71   C93   A    
C119  C123  A    
C125  C138  A    
C95   O34   A    
C63   N3    T    
C149  O22   A    
C130  C131  A    
C150  H36   S    
C41   H23   S    
C45   C50   A    
C49   C53   A    
C32   O3    A    
C38   O39   A    
C140  H8    S    
Cu11  O13   S    
C141  H9    S    
C95   O13   A    
C152  O25   A    
C83   H49   S    
C48   C52   A    
C113  C135  A    
C41   C45   A    
C75   C79   A    
C2    C150  A    
C15   C147  A    
C101  O14   A    
C66   N6    T    
C53   C58   A    
C21   H31   S    
C28   O42   A    
C35   H40   S    
C36   C114  S    
C5    C9    A    
C99   C108  S    
Cu2   O50   S    
C100  H57   S    
Cu7   O34   S    
C118  C122  A    
C159  H15   S    
C68   H43   S    
C22   C146  S    
C34   O36   A    
C110  C114  A    
C51   C55   A    
C114  C119  A    
C48   O44   S    
C135  C143  A    
C23   H33   S    
Cu5   O32   S    
C17   H22   S    
C27   O41   A    
C138  H7    S    
C24   H39   S    
C92   C97   S    
C54   C59   A    
C36   O37   A    
C137  H6    S    
C155  C159  A    
Cu12  O52   S    
C156  C160  A    
C5    H19   S    
C77   C84   S    
C34   C115  S    
C136  H5    S    
C58   C117  A    
C26   O45   A    
C12   C145  A    
Cu3   O3    S    
C151  O28   A    
C127  C129  A    
C121  C125  A    
Cu11  O21   S    
C45   C104  S    
Cu9   O37   S    
C123  C127  A    
C97   H58   S    
C64   N4    T    
C108  H67   S    
C8    C12   A    
C46   H41   S    
C110  C132  A    
Cu4   O45   S    
C145  C154  A    
C79   H44   S    
Cu6   Cu10  S    
C102  O15   A    
C86   H51   S    
C57   C68   A    
Cu2   O43   S    
C112  C116  A    
C151  O24   A    
C2    H37   S    
C153  O30   A    
C18   C22   S    
Cu3   O40   S    
C76   C80   A    
C18   C66   S    
C22   H32   S    
C43   C102  S    
C72   C94   A    
C96   C100  S    
C56   C58   A    
C83   C88   A    
C31   O6    A    
C148  C157  A    
C149  O27   A    
C89   C93   A    
C134  C144  A    
C59   C60   A    
Cu2   Cu12  S    
C52   C150  A    
Cu4   O7    S    
C70   C75   A    
C3    C157  A    
C34   O31   A    
C99   H55   S    
C39   C106  A    
C97   H53   S    
C108  H64   S    
C71   C107  S    
C111  H2    S    
C105  H62   S    
C137  C142  A    
C29   O43   A    
Cu12  O42   S    
C73   O10   A    
C15   C19   S    
C50   C54   A    
C22   H28   S    
C3    C7    A    
C33   C91   S    
C71   C76   A    
C62   N2    T    
C20   C25   S    
C81   H47   S    
C57   C139  A    
Cu4   O41   S    
Cu7   O35   S    
Cu8   O36   S    
H68   O46   S    
C146  C155  A    
C31   C89   S    
C12   C17   S    
C19   C67   S    
Cu11  O30   S    
Cu6   O25   S    
C62   C120  S    
Cu2   O2    S    
C55   C60   A    
C100  H61   S    
Cu4   O4    S    
C158  H14   S    
C1    O1    A    
C90   C94   A    
C19   H25   S    
C47   C103  S    
C116  C121  A    
C85   C89   A    
C47   C51   A    
C23   C147  S    
C98   C107  S    
C143  H11   S    
H70   O48   S    
C9    C14   A    
C80   C85   A    
Cu8   O18   S    
C4    H18   S    
C11   C16   A    
Cu12  O51   S    
C77   C81   A    
C78   C95   S    
Cu5   O12   S    
Cu9   O28   S    
C103  O16   A    
C147  C156  A    
C28   O50   A    
C113  H4    S    
C73   C76   S    
C30   C88   S    
C33   O4    A    
C70   C92   A    
C140  C144  A    
C6    C10   A    
Cu10  O38   S    
C133  C141  A    
C87   H52   S    
C79   C83   A    
C10   C29   S    
C11   C28   S    
Cu9   O10   S    
C124  C129  A    
C42   H34   S    
C25   C148  S    
Cu5   O24   S    
C153  C157  S    
C49   O46   S    
Cu6   O23   S    
Cu1   O22   S    
C98   H59   S    
C82   H48   S    
C74   C78   A    
C84   O23   A    
C6    H20   S    
C8    C27   S    
C25   H35   S    
C35   C46   A    
C104  O21   A    
Cu8   O27   S    
C21   C145  S    
C40   H12   S    
C44   C49   A    
C65   N5    T    
C61   C119  S    
C14   C18   S    
Cu3   Cu4   S    
C4    C8    A    
C74   C109  S    
Cu1   O1    S    
C99   H60   S    
H69   O47   S    
C24   C55   A    
C7    C11   A    
C126  C140  A    
C50   O47   S    
C126  C131  A    
C131  C135  A    
C10   C15   A    
C80   H46   S    
C109  H71   S    
C61   N1    T    
C46   C106  A    
C127  C132  A    
C69   N8    T    
C120  C124  A    
C125  C130  A    
C4    C158  A    
C37   C118  S    
C88   C92   A    
Cu2   O5    S    
C5    C159  A    
C84   O11   A    
C7    H21   S    
Cu8   O9    S    
C41   C128  A    
C63   C121  S    
C38   O35   A    
C132  C142  A    
C1    C75   S    
C72   C108  S    
C36   O32   A    
C25   H30   S    
C111  C133  A    
C39   C43   A    
C59   C128  A    
Cu3   O8    S    
C13   C24   A    
Cu10  O11   S    
C122  C126  A    
C72   C77   A    
C38   C116  S    
C40   C44   A    
Cu1   O14   S    
C20   H26   S    
C107  H56   S    
Cu7   O26   S    
C29   O51   A    
C1    O9    A    
C30   O52   A    
Cu9   O19   S    
Cu10  O20   S    
C20   C69   S    
C35   C117  A    
C160  H16   S    
C152  O29   A    
C43   C48   A    
C107  H63   S    
C42   C139  A    
C13   H38   S    
C32   O7    A    
Cu7   O17   S    
C109  H65   S    
C101  O18   A    
C14   C146  A    
C17   C65   S    
C123  C136  A    
C16   C148  A    
C103  O20   A    
C27   O49   A    
C94   C99   S    
C64   C122  S    
C33   O8    A    
C42   C47   A    
Cu1   Cu8   S    
C60   C139  A    
C113  C118  A    
Cu3   O49   S    
C110  H72   S    
C112  H3    S    
C57   H42   S    
C115  C120  A    
Cu5   O15   S    
Cu6   O16   S    
C111  C115  A    
Cu12  O6    S    
C93   C98   S    
C52   C56   A    
Cu11  O39   S    
C98   H54   S    
C67   N7    T    
