data_mof_unit_30508.cif
_audit_creation_date              2012-12-10T18:45:11-0500
_audit_creation_method            fapswitch 2.2
_symmetry_space_group_name_H-M    P1
_symmetry_Int_Tables_number       1
_space_group_crystal_system       triclinic
_cell_length_a                    10.729151
_cell_length_b                    10.103582
_cell_length_c                    10.722665
_cell_angle_alpha                 91.82677
_cell_angle_beta                  96.590147
_cell_angle_gamma                 90.005306
_cell_volume                      1154.09211865

loop_
_atom_site_label
_atom_site_type_symbol
_atom_type_description
_atom_site_fract_x
_atom_site_fract_y
_atom_site_fract_z
_atom_type_partial_charge
C1    C     C_R   0.260819 0.499620 0.501848 0.834838
C2    C     C_R   0.738977 0.499455 0.496865 0.833565
C3    C     C_R   0.935407 0.616890 0.489473 -0.203666
C4    C     C_R   0.063591 0.617436 0.502823 -0.201653
C5    C     C_R   0.567826 0.073259 0.596255 0.114025
C6    C     C_R   0.433448 0.066860 0.403886 0.106745
C7    C     C_R   0.577599 0.930214 0.587820 0.080797
C8    C     C_R   0.422936 0.924762 0.411868 0.098495
C9    C     C_R   0.508911 0.499337 0.261389 0.859838
C10   C     C_R   0.488681 0.503135 0.737879 0.868623
C11   C     C_R   0.592777 0.736415 0.132445 -0.157479
C12   C     C_R   0.466013 0.759081 0.893483 -0.177842
C13   C     C_R   0.576494 0.860804 0.080492 -0.171396
C14   C     C_R   0.506169 0.872722 0.964252 -0.195729
C15   C     C_R   0.491468 0.631679 0.941485 0.113214
C16   C     C_R   0.536094 0.622665 0.068754 0.104585
C17   C     C_R   0.516912 0.501560 0.127811 -0.116343
C18   C     C_R   0.471317 0.511907 0.869537 -0.118256
C19   C     C_R   0.476812 0.389026 0.056041 -0.240540
C20   C     C_R   0.454943 0.393762 0.928406 -0.223002
C21   C     C_R   0.063964 0.377066 0.500794 -0.196762
C22   C     C_R   0.935456 0.376857 0.494968 -0.195446
C23   C     C_R   0.871368 0.497492 0.492021 -0.009267
C24   C     C_R   0.127990 0.497929 0.503513 -0.007886
H1    H     H_    0.459409 0.296929 0.096935 0.167758
H2    H     H_    0.423706 0.304555 0.876100 0.153232
H3    H     H_    0.648150 0.730759 0.223013 0.163453
H4    H     H_    0.411519 0.772931 0.803712 0.169843
H5    H     H_    0.614545 0.948186 0.132372 0.133730
H6    H     H_    0.486513 0.969715 0.926851 0.128329
H7    H     H_    0.112363 0.283126 0.504115 0.146757
H8    H     H_    0.887139 0.282724 0.492506 0.146741
H9    H     H_    0.886979 0.709783 0.479630 0.167713
H10   H     H_    0.111781 0.711075 0.511181 0.169436
N1    N     N_R   0.500000 0.857200 0.500000 -0.144363
N2    N     N_R   0.500000 0.142810 0.500000 -0.122309
O1    O     O_R   0.316770 0.614620 0.499990 -0.639641
O2    O     O_R   0.683230 0.614620 0.500010 -0.640248
O3    O     O_R   0.316800 0.385290 0.500000 -0.634902
O4    O     O_R   0.683200 0.385290 0.500000 -0.634104
O5    O     O_R   0.500010 0.614690 0.316770 -0.648486
O6    O     O_R   0.499990 0.614690 0.683230 -0.653592
O7    O     O_R   0.500040 0.385360 0.316770 -0.632983
O8    O     O_R   0.499960 0.385360 0.683230 -0.629338
Zn1   Zn    Zn3+2 0.500000 0.653120 0.500000 0.895003
Zn2   Zn    Zn3+2 0.500000 0.346880 0.500000 0.913166
C25   C     C_3   0.616325 0.140919 0.722813 -0.348955
C26   C     C_3   0.734351 0.229540 0.727027 -0.268724
C27   C     C_3   0.811594 0.232453 0.856427 -0.966119
H11   H     H_    0.753885 0.271964 0.928797 0.276411
H12   H     H_    0.845070 0.132099 0.882659 0.267476
H13   H     H_    0.894623 0.297895 0.855250 0.261975
H14   H     H_    0.793990 0.196179 0.654571 0.198673
H15   H     H_    0.709693 0.333311 0.710346 0.264245
H16   H     H_    0.538021 0.188806 0.761968 0.195287
H17   H     H_    0.636615 0.068973 0.796738 0.173576
C28   C     C_3   0.392209 0.126812 0.277575 -0.366414
C29   C     C_3   0.272345 0.213260 0.270083 -0.267482
C30   C     C_3   0.193098 0.200731 0.141746 -0.971306
H18   H     H_    0.245136 0.240150 0.067364 0.268654
H19   H     H_    0.167154 0.096425 0.115845 0.269100
H20   H     H_    0.105547 0.258860 0.144307 0.264042
H21   H     H_    0.214060 0.187551 0.344602 0.201620
H22   H     H_    0.294670 0.319121 0.283821 0.259882
H23   H     H_    0.475327 0.175631 0.250769 0.194215
H24   H     H_    0.379424 0.051318 0.200859 0.180427
C31   C     C_3   0.670561 0.856468 0.679316 -0.366660
C32   C     C_3   0.808308 0.891383 0.670751 -0.399063
C33   C     C_3   0.896739 0.799652 0.749493 -0.878112
H25   H     H_    0.886769 0.816251 0.850801 0.262469
H26   H     H_    0.875551 0.694168 0.723660 0.270435
H27   H     H_    0.995312 0.820896 0.734237 0.250107
H28   H     H_    0.827357 0.888024 0.571469 0.216341
H29   H     H_    0.829855 0.992097 0.707431 0.243793
H30   H     H_    0.649444 0.867305 0.777105 0.184801
H31   H     H_    0.661601 0.751081 0.661983 0.284193
C34   C     C_3   0.330100 0.846490 0.318708 -0.353102
C35   C     C_3   0.192529 0.883820 0.325850 -0.413325
C36   C     C_3   0.103465 0.789524 0.244393 -0.883764
H32   H     H_    0.115298 0.800614 0.143662 0.263021
H33   H     H_    0.122290 0.684989 0.268949 0.270237
H34   H     H_    0.004893 0.813365 0.258425 0.250640
H35   H     H_    0.172071 0.885603 0.424684 0.215836
H36   H     H_    0.172680 0.982890 0.291568 0.249882
H37   H     H_    0.354251 0.849746 0.221209 0.188363
H38   H     H_    0.334994 0.742552 0.337904 0.282671

loop_
_geom_bond_atom_site_label_1
_geom_bond_atom_site_label_2
_ccdc_geom_bond_type
C15   C18   A    
C10   O6    A    
C3    C23   A    
C19   C20   A    
C28   H24   S    
C34   C35   S    
O4    Zn2   S    
C21   H7    S    
C22   H8    S    
C12   H4    S    
C13   H5    S    
C4    C24   A    
C3    H9    S    
C32   H29   S    
C15   C16   A    
C5    N2    A    
C33   H26   S    
O2    Zn1   S    
C35   H35   S    
C32   C33   S    
C27   H12   S    
N2    Zn2   S    
C1    O1    A    
C34   H37   S    
C30   H18   S    
C13   C14   A    
C6    C28   S    
C14   H6    S    
O8    Zn2   S    
C5    C7    A    
C29   H22   S    
C26   H14   S    
C4    H10   S    
C30   H19   S    
C9    O7    A    
C10   O8    A    
C31   C32   S    
C36   H33   S    
C35   C36   S    
C16   C17   A    
C6    C8    A    
C32   H28   S    
O6    Zn1   S    
C33   H27   S    
C26   H15   S    
C35   H36   S    
C5    C25   S    
C11   C16   A    
C2    O2    A    
C25   C26   S    
C12   C15   A    
C11   H3    S    
C27   H13   S    
O3    Zn2   S    
C9    C17   S    
C26   C27   S    
C12   C14   A    
C34   H38   S    
C8    C34   S    
C31   H30   S    
O1    Zn1   S    
C3    C4    A    
N1    Zn1   S    
C25   H16   S    
C29   H21   S    
C30   H20   S    
C7    N1    A    
C28   H23   S    
C36   H34   S    
C9    O5    A    
C29   C30   S    
C11   C13   A    
C28   C29   S    
C20   H2    S    
C10   C18   S    
C17   C19   A    
C6    N2    A    
C18   C20   A    
C33   H25   S    
C19   H1    S    
O7    Zn2   S    
C1    O3    A    
C7    C31   S    
C36   H32   S    
C2    O4    A    
C1    C24   S    
C27   H11   S    
C21   C24   A    
C2    C23   S    
O5    Zn1   S    
C22   C23   A    
C31   H31   S    
C21   C22   A    
C8    N1    A    
C25   H17   S    
