data_mof_unit_13044.cif
_audit_creation_date              2012-12-11T15:41:18-0500
_audit_creation_method            fapswitch 2.2
_symmetry_space_group_name_H-M    P1
_symmetry_Int_Tables_number       1
_space_group_crystal_system       triclinic
_cell_length_a                    19.124673
_cell_length_b                    10.980493
_cell_length_c                    18.810626
_cell_angle_alpha                 90.056852
_cell_angle_beta                  90.013886
_cell_angle_gamma                 89.939216
_cell_volume                      3950.19591427

loop_
_atom_site_label
_atom_site_type_symbol
_atom_type_description
_atom_site_fract_x
_atom_site_fract_y
_atom_site_fract_z
_atom_type_partial_charge
C1    C     C_R   0.725147 0.958988 0.855289 0.555808
C2    C     C_R   0.309551 0.432313 0.035223 0.037739
C3    C     C_R   0.762474 0.855532 0.356134 0.548840
C4    C     C_2   0.497107 0.171653 0.920536 -0.075035
C5    C     C_2   0.502705 0.171128 0.079374 -0.073491
C6    C     C_2   0.997105 0.671661 0.920535 -0.075026
C7    C     C_2   0.002697 0.671127 0.079369 -0.073474
C8    C     C_2   0.490750 0.074951 0.037540 -0.115695
C9    C     C_2   0.508207 0.074897 0.962063 -0.115029
C10   C     C_2   0.990734 0.574950 0.037536 -0.115714
C11   C     C_2   0.008178 0.574888 0.962055 -0.115008
C12   C     C_R   0.761465 0.422906 0.071108 -0.039782
C13   C     C_R   0.190550 0.933897 0.964640 0.038124
C14   C     C_R   0.238388 0.423310 0.928920 -0.039772
C15   C     C_R   0.261463 0.922907 0.071111 -0.039766
C16   C     C_R   0.738394 0.923287 0.928917 -0.039775
C17   C     C_3   0.919929 0.316522 0.915417 -0.112367
C18   C     C_3   0.079900 0.318759 0.084603 -0.112238
C19   C     C_3   0.419915 0.816457 0.915438 -0.112366
C20   C     C_3   0.579900 0.818645 0.084583 -0.112253
C21   C     C_3   0.556469 0.579509 0.881206 -0.085316
C22   C     C_3   0.445113 0.574980 0.118257 -0.083468
C23   C     C_3   0.056454 0.079448 0.881206 -0.085413
C24   C     C_R   0.809542 0.932353 0.035231 0.037771
C25   C     C_3   0.945071 0.075356 0.118218 -0.083504
C26   C     C_R   0.815659 0.402407 0.953717 0.241655
C27   C     C_R   0.184303 0.403580 0.046411 0.240910
C28   C     C_R   0.315651 0.902388 0.953724 0.241666
C29   C     C_R   0.684301 0.903502 0.046400 0.240918
C30   C     C_R   0.820169 0.398967 0.027900 -0.148996
C31   C     C_R   0.179597 0.400927 0.972228 -0.148575
C32   C     C_R   0.320162 0.898964 0.027905 -0.148998
C33   C     C_R   0.274834 0.958865 0.144710 0.556203
C34   C     C_R   0.679606 0.900831 0.972216 -0.148602
C35   C     C_3   0.650329 0.548117 0.042986 -0.216398
C36   C     C_3   0.350519 0.545436 0.956933 -0.217044
C37   C     C_3   0.150341 0.048143 0.042993 -0.216340
C38   C     C_3   0.850465 0.045552 0.956959 -0.217035
C39   C     C_3   0.643774 0.543005 0.963100 0.151664
C40   C     C_3   0.357167 0.540146 0.036816 0.152485
C41   C     C_3   0.143768 0.043014 0.963109 0.151643
C42   C     C_3   0.857105 0.040249 0.036841 0.152501
C43   C     C_R   0.749518 0.416881 0.921941 -0.000007
C44   C     C_R   0.225146 0.458992 0.855290 0.555809
C45   C     C_R   0.250580 0.416591 0.078051 -0.000288
C46   C     C_R   0.249511 0.916871 0.921947 -0.000017
C47   C     C_R   0.750571 0.916570 0.078049 -0.000284
C48   C     C_R   0.483218 0.170525 0.431598 0.022702
C49   C     C_R   0.491422 0.170504 0.579318 0.021377
C50   C     C_R   0.983218 0.670525 0.431598 0.022701
C51   C     C_R   0.991422 0.670504 0.579318 0.021378
C52   C     C_R   0.474500 0.277774 0.470038 0.044647
C53   C     C_R   0.477861 0.278842 0.542414 0.028593
C54   C     C_R   0.974500 0.777774 0.470038 0.044643
C55   C     C_R   0.774836 0.458865 0.144708 0.556195
C56   C     C_R   0.977861 0.778842 0.542414 0.028594
C57   C     C_R   0.486141 0.059433 0.542781 -0.171381
C58   C     C_R   0.484150 0.059488 0.468526 -0.166978
C59   C     C_R   0.986141 0.559433 0.542781 -0.171381
C60   C     C_R   0.984150 0.559488 0.468526 -0.166976
C61   C     C_R   0.529799 0.178191 0.850586 0.565884
C62   C     C_R   0.470180 0.178033 0.149399 0.567286
C63   C     C_R   0.029798 0.678191 0.850585 0.565895
C64   C     C_R   0.970180 0.678033 0.149398 0.567275
C65   C     C_3   0.511074 0.396606 0.461561 -0.278154
C66   C     C_R   0.696833 0.440020 0.038239 -0.043802
C67   C     C_3   0.514703 0.400102 0.541590 -0.268372
C68   C     C_3   0.011074 0.896606 0.461561 -0.278151
C69   C     C_3   0.014703 0.900102 0.541590 -0.268373
C70   C     C_R   0.749593 0.411798 0.421682 0.014306
C71   C     C_R   0.249262 0.401074 0.580340 0.016732
C72   C     C_R   0.249592 0.911798 0.421681 0.014306
C73   C     C_R   0.749262 0.901074 0.580340 0.016732
C74   C     C_R   0.785705 0.317650 0.455629 0.019326
C75   C     C_R   0.201466 0.329235 0.542399 0.022184
C76   C     C_R   0.285705 0.817650 0.455628 0.019327
C77   C     C_R   0.303213 0.438604 0.961640 -0.044445
C78   C     C_R   0.701466 0.829235 0.542399 0.022183
C79   C     C_R   0.784161 0.308120 0.528442 0.045546
C80   C     C_R   0.205838 0.319385 0.469845 0.033354
C81   C     C_R   0.284161 0.808120 0.528442 0.045545
C82   C     C_R   0.705838 0.819385 0.469845 0.033355
C83   C     C_R   0.701125 0.471897 0.536504 -0.171492
C84   C     C_R   0.313159 0.432479 0.470403 -0.150629
C85   C     C_R   0.201126 0.971897 0.536504 -0.171490
C86   C     C_R   0.813160 0.932479 0.470403 -0.150630
C87   C     C_R   0.702673 0.482721 0.462326 -0.164792
C88   C     C_R   0.196831 0.940034 0.038245 -0.043769
C89   C     C_R   0.309353 0.441627 0.544774 -0.153675
C90   C     C_R   0.202673 0.982720 0.462326 -0.164789
C91   C     C_R   0.809353 0.941627 0.544774 -0.153674
C92   C     C_3   0.860960 0.279874 0.452846 -0.271065
C93   C     C_3   0.123195 0.333780 0.539201 -0.269409
C94   C     C_3   0.360961 0.779874 0.452846 -0.271063
C95   C     C_3   0.623195 0.833780 0.539202 -0.269409
C96   C     C_3   0.859495 0.274147 0.533103 -0.267124
C97   C     C_3   0.128671 0.322654 0.459402 -0.278649
C98   C     C_3   0.359496 0.774146 0.533102 -0.267130
C99   C     C_R   0.803209 0.938650 0.961647 -0.044427
C100  C     C_3   0.628671 0.822654 0.459402 -0.278648
C101  C     C_R   0.745797 0.388944 0.570474 0.022586
C102  C     C_R   0.257668 0.379756 0.431896 0.019808
C103  C     C_R   0.245797 0.888944 0.570475 0.022586
C104  C     C_R   0.757668 0.879756 0.431896 0.019808
C105  C     C_R   0.738774 0.366324 0.851546 0.569825
C106  C     C_R   0.261235 0.366186 0.148448 0.570816
C107  C     C_R   0.238772 0.866319 0.851549 0.569844
C108  C     C_R   0.761233 0.866184 0.148449 0.570793
C109  C     C_R   0.728087 0.953535 0.648177 0.548545
C110  C     C_R   0.690558 0.433900 0.964636 0.038170
C111  C     C_R   0.272032 0.955526 0.352446 0.552812
C112  C     C_R   0.228087 0.453535 0.648177 0.548547
C113  C     C_R   0.772032 0.455527 0.352446 0.552812
C114  C     C_R   0.528475 0.176662 0.645916 0.550631
C115  C     C_R   0.467700 0.176445 0.356872 0.548211
C116  C     C_R   0.028475 0.676662 0.645916 0.550640
C117  C     C_R   0.967700 0.676445 0.356872 0.548209
C118  C     C_R   0.738823 0.359506 0.645288 0.546815
C119  C     C_R   0.262474 0.355532 0.356134 0.548853
C120  C     C_R   0.238823 0.859506 0.645289 0.546823
Cr1   Cr    Cr6+3 0.769260 0.163750 0.750730 1.005132
Cr2   Cr    Cr6+3 0.385810 0.322400 0.252290 1.008817
Cr3   Cr    Cr6+3 0.114190 0.822400 0.747710 1.006169
Cr4   Cr    Cr6+3 0.885810 0.822400 0.252290 1.008956
Cr5   Cr    Cr6+3 0.230740 0.163750 0.249270 1.004090
Cr6   Cr    Cr6+3 0.269260 0.663750 0.750730 1.005131
Cr7   Cr    Cr6+3 0.730740 0.663750 0.249270 1.004069
Cr8   Cr    Cr6+3 0.612640 0.009910 0.748780 0.999342
Cr9   Cr    Cr6+3 0.387360 0.009910 0.251220 1.000531
Cr10  Cr    Cr6+3 0.112640 0.509910 0.748780 0.999332
Cr11  Cr    Cr6+3 0.887360 0.509910 0.251220 1.000505
Cr12  Cr    Cr6+3 0.614190 0.322400 0.747710 1.006241
H1    H     H_    0.467560 0.993557 0.058910 0.139953
H2    H     H_    0.482508 0.474026 0.565313 0.119977
H3    H     H_    0.063024 0.886624 0.435675 0.140907
H4    H     H_    0.982508 0.974026 0.565313 0.119976
H5    H     H_    0.667039 0.530687 0.567164 0.120044
H6    H     H_    0.357893 0.469605 0.443082 0.124689
H7    H     H_    0.167039 0.030688 0.567164 0.120042
H8    H     H_    0.857893 0.969605 0.443082 0.124688
H9    H     H_    0.671876 0.553669 0.437761 0.136995
H10   H     H_    0.350403 0.487360 0.573672 0.116309
H11   H     H_    0.171875 0.053669 0.437761 0.136994
H12   H     H_    0.530721 0.992977 0.940445 0.140206
H13   H     H_    0.850403 0.987360 0.573672 0.116309
H14   H     H_    0.896338 0.351358 0.432900 0.162746
H15   H     H_    0.102941 0.423666 0.555925 0.170203
H16   H     H_    0.396339 0.851358 0.432900 0.162746
H17   H     H_    0.602941 0.923666 0.555925 0.170203
H18   H     H_    0.867890 0.189430 0.427316 0.124175
H19   H     H_    0.098390 0.253526 0.564847 0.126378
H20   H     H_    0.367890 0.689430 0.427316 0.124174
H21   H     H_    0.598391 0.753526 0.564847 0.126379
H22   H     H_    0.891309 0.346027 0.559080 0.135986
H23   H     H_    0.967548 0.493557 0.058912 0.139917
H24   H     H_    0.111160 0.405558 0.430527 0.139799
H25   H     H_    0.391309 0.846027 0.559080 0.135987
H26   H     H_    0.611160 0.905558 0.430527 0.139798
H27   H     H_    0.527582 0.252277 0.058065 0.140640
H28   H     H_    0.472784 0.253304 0.942069 0.141259
H29   H     H_    0.027573 0.752275 0.058059 0.140624
H30   H     H_    0.972807 0.753331 0.942074 0.141247
H31   H     H_    0.871095 0.390545 0.051666 0.128939
H32   H     H_    0.128557 0.394142 0.948578 0.129896
H33   H     H_    0.371090 0.890555 0.051669 0.128969
H34   H     H_    0.030654 0.492944 0.940428 0.140180
H35   H     H_    0.628571 0.893985 0.948559 0.129871
H36   H     H_    0.179504 0.129876 0.060937 0.122652
H37   H     H_    0.821751 0.127889 0.939170 0.121870
H38   H     H_    0.679482 0.629851 0.060944 0.122673
H39   H     H_    0.321841 0.627808 0.939137 0.121870
H40   H     H_    0.601228 0.527667 0.071985 0.158331
H41   H     H_    0.399423 0.523761 0.927791 0.159751
H42   H     H_    0.101247 0.027708 0.072005 0.158363
H43   H     H_    0.899384 0.023949 0.927824 0.159708
H44   H     H_    0.668406 0.623437 0.936523 0.086161
H45   H     H_    0.977350 0.968948 0.438758 0.130694
H46   H     H_    0.333195 0.621226 0.063535 0.085645
H47   H     H_    0.168397 0.123435 0.936519 0.086192
H48   H     H_    0.833081 0.121276 0.063568 0.085660
H49   H     H_    0.491052 0.973910 0.570743 0.116364
H50   H     H_    0.486484 0.974149 0.440143 0.117723
H51   H     H_    0.991052 0.473910 0.570743 0.116362
H52   H     H_    0.986484 0.474149 0.440143 0.117723
H53   H     H_    0.867969 0.181708 0.554364 0.135648
H54   H     H_    0.107392 0.235587 0.438625 0.131660
H55   H     H_    0.367969 0.681708 0.554364 0.135650
H56   H     H_    0.069330 0.895846 0.560844 0.174519
H57   H     H_    0.607392 0.735586 0.438625 0.131659
H58   H     H_    0.931226 0.285120 0.970337 0.092726
H59   H     H_    0.970280 0.341559 0.890573 0.119622
H60   H     H_    0.899665 0.241539 0.882110 0.140748
H61   H     H_    0.068420 0.287974 0.029571 0.092810
H62   H     H_    0.029650 0.344180 0.109650 0.120575
H63   H     H_    0.100079 0.243217 0.117498 0.140167
H64   H     H_    0.431103 0.784903 0.970352 0.092717
H65   H     H_    0.470314 0.841549 0.890721 0.119576
H66   H     H_    0.399710 0.741554 0.882030 0.140781
H67   H     H_    0.477350 0.468948 0.438758 0.130692
H68   H     H_    0.568470 0.787779 0.029556 0.092833
H69   H     H_    0.529625 0.844079 0.109574 0.120548
H70   H     H_    0.600062 0.743156 0.117534 0.140193
H71   H     H_    0.593683 0.564463 0.836618 0.134161
H72   H     H_    0.553654 0.678043 0.894443 0.074291
H73   H     H_    0.504139 0.549870 0.862839 0.124808
H74   H     H_    0.407452 0.563201 0.162769 0.132296
H75   H     H_    0.449794 0.672941 0.104305 0.073398
H76   H     H_    0.496740 0.542654 0.137165 0.127085
H77   H     H_    0.093582 0.064104 0.836584 0.134417
H78   H     H_    0.569330 0.395846 0.560844 0.174519
H79   H     H_    0.053785 0.178036 0.894348 0.074304
H80   H     H_    0.004065 0.049979 0.862948 0.124727
H81   H     H_    0.907479 0.063526 0.162785 0.132231
H82   H     H_    0.949631 0.173307 0.104195 0.073466
H83   H     H_    0.996760 0.043244 0.137077 0.126908
H84   H     H_    0.563024 0.386624 0.435675 0.140903
O1    O     O_R   0.784290 0.290360 0.830540 -0.503554
O2    O     O_R   0.456020 0.282110 0.333230 -0.524944
O3    O     O_R   0.043980 0.782110 0.666770 -0.531129
O4    O     O_R   0.956020 0.782110 0.333230 -0.524929
O5    O     O_R   0.679070 0.374030 0.674430 -0.515921
O6    O     O_R   0.320930 0.374030 0.325570 -0.514005
O7    O     O_R   0.179070 0.874030 0.674430 -0.515925
O8    O     O_R   0.820930 0.874030 0.325570 -0.514003
O9    O     O_3   0.665360 0.165350 0.749070 -0.248714
O10   O     O_3   0.334640 0.165350 0.250930 -0.251012
O11   O     O_3   0.165360 0.665350 0.749070 -0.248703
O12   O     O_R   0.215710 0.290360 0.169460 -0.503531
O13   O     O_3   0.834640 0.665350 0.250930 -0.251030
O14   O     O_R   0.762610 0.041070 0.825230 -0.506579
O15   O     O_R   0.237390 0.041070 0.174770 -0.506287
O16   O     O_R   0.262610 0.541070 0.825230 -0.506585
O17   O     O_R   0.737390 0.541070 0.174770 -0.506289
O18   O     O_R   0.667390 0.924160 0.829970 -0.537103
O19   O     O_R   0.332610 0.924160 0.170030 -0.536939
O20   O     O_R   0.167390 0.424160 0.829970 -0.537099
O21   O     O_R   0.832610 0.424160 0.170030 -0.536954
O22   O     O_R   0.553980 0.081420 0.821780 -0.502229
O23   O     O_R   0.284290 0.790360 0.830540 -0.503513
O24   O     O_R   0.446020 0.081420 0.178220 -0.501920
O25   O     O_R   0.053980 0.581420 0.821780 -0.502236
O26   O     O_R   0.946020 0.581420 0.178220 -0.501944
O27   O     O_R   0.543210 0.283170 0.826740 -0.498492
O28   O     O_R   0.456790 0.283170 0.173260 -0.498478
O29   O     O_R   0.043210 0.783170 0.826740 -0.498541
O30   O     O_R   0.956790 0.783170 0.173260 -0.498360
O31   O     O_R   0.678350 0.375000 0.822720 -0.501429
O32   O     O_R   0.321650 0.375000 0.177280 -0.501157
O33   O     O_R   0.178350 0.875000 0.822720 -0.501530
O34   O     O_R   0.715710 0.790360 0.169460 -0.503532
O35   O     O_R   0.821650 0.875000 0.177280 -0.501062
O36   O     O_R   0.785060 0.289300 0.670580 -0.516362
O37   O     O_R   0.214940 0.289300 0.329420 -0.517709
O38   O     O_R   0.285060 0.789300 0.670580 -0.516363
O39   O     O_R   0.714940 0.789300 0.329420 -0.517716
O40   O     O_R   0.763330 0.040090 0.676940 -0.504680
O41   O     O_R   0.236670 0.040090 0.323060 -0.509255
O42   O     O_R   0.263330 0.540090 0.676940 -0.504682
O43   O     O_R   0.736670 0.540090 0.323060 -0.509259
O44   O     O_R   0.668160 0.923110 0.670000 -0.524860
O45   O     O_R   0.554690 0.080440 0.673480 -0.509550
O46   O     O_R   0.331840 0.923110 0.330000 -0.524634
O47   O     O_R   0.168160 0.423110 0.670000 -0.524859
O48   O     O_R   0.831840 0.423110 0.330000 -0.524635
O49   O     O_3   0.875103 0.418537 0.912247 -0.549531
O50   O     O_3   0.125021 0.420199 0.088092 -0.549134
O51   O     O_3   0.375099 0.918484 0.912254 -0.549518
O52   O     O_3   0.625009 0.920103 0.088069 -0.549143
O53   O     O_3   0.575342 0.510986 0.941543 -0.526186
O54   O     O_3   0.425349 0.506187 0.058262 -0.525813
O55   O     O_3   0.075322 0.011017 0.941583 -0.526228
O56   O     O_R   0.445310 0.080440 0.326520 -0.507840
O57   O     O_3   0.925299 0.006382 0.058298 -0.525746
O58   O     O_R   0.054690 0.580440 0.673480 -0.509549
O59   O     O_R   0.945310 0.580440 0.326520 -0.507844
O60   O     O_R   0.543980 0.282110 0.666770 -0.531129

loop_
_geom_bond_atom_site_label_1
_geom_bond_atom_site_label_2
_ccdc_geom_bond_type
C3    C104  S    
C60   H52   S    
C7    C10   D    
C83   C87   A    
Cr4   O4    S    
C61   O27   A    
C3    O8    A    
C39   H44   S    
C80   C97   S    
C18   H62   S    
C50   C117  S    
C84   C102  A    
C21   H71   S    
C37   C88   S    
C35   C39   S    
Cr6   O11   S    
C92   C96   S    
C14   C31   A    
C117  O59   A    
C86   C104  A    
C20   O52   S    
C57   H49   S    
C57   C58   A    
C114  O60   A    
C15   C32   A    
C24   C42   S    
C17   H59   S    
C7    H29   S    
C23   O55   S    
C50   C54   A    
C28   O51   S    
C23   H79   S    
Cr9   O19   S    
Cr7   O39   S    
C101  C118  S    
Cr8   O44   S    
Cr2   O32   S    
C25   H82   S    
C114  O45   A    
C18   O50   S    
Cr3   O33   S    
Cr4   O35   S    
C36   C77   S    
C44   O20   A    
C90   H11   S    
C13   C46   A    
C35   H38   S    
Cr10  O25   S    
C49   C53   A    
C14   C77   A    
C27   O50   S    
C64   O26   A    
C23   H80   S    
C94   C98   S    
Cr8   O22   S    
C89   H10   S    
C63   O25   A    
Cr5   O41   S    
C68   H45   S    
Cr7   O13   S    
C62   O24   A    
C22   H74   S    
C117  O4    A    
C51   C56   A    
C43   C105  S    
C97   H24   S    
C74   C92   S    
C83   H5    S    
C20   H68   S    
C17   O49   S    
C112  O42   A    
C37   H42   S    
C65   H67   S    
C42   O57   S    
C1    O14   A    
C39   C110  S    
C96   H22   S    
C6    H30   S    
C106  O12   A    
Cr6   O23   S    
C8    C9    S    
C5    H27   S    
Cr9   O10   S    
C70   C74   A    
C11   H34   S    
C25   O57   S    
C73   C78   A    
C115  O2    A    
C93   H15   S    
C78   C95   S    
C95   H17   S    
C43   C110  A    
Cr3   O7    S    
Cr10  O58   S    
Cr5   O12   S    
C83   C101  A    
C75   C80   A    
C85   H7    S    
Cr10  O47   S    
C85   C103  A    
C72   C76   A    
C26   O49   S    
C16   C34   A    
Cr11  O13   S    
C49   C114  S    
C8    H1    S    
C72   C111  S    
C84   H6    S    
C36   H41   S    
C2    C45   A    
C32   H33   S    
C46   C107  S    
C18   H61   S    
Cr8   O18   S    
C35   H40   S    
C21   H72   S    
Cr1   O9    S    
Cr1   O1    S    
C30   H31   S    
C55   O17   A    
C70   C87   A    
C119  O37   A    
C28   C32   A    
C13   C41   S    
C9    H12   S    
C26   C43   A    
C37   H36   S    
C3    O39   A    
C17   H60   S    
C94   H16   S    
C97   H54   S    
C63   O29   A    
C54   C56   A    
C19   H65   S    
C118  O5    A    
Cr7   O17   S    
C107  O33   A    
C108  O35   A    
C92   H14   S    
Cr12  O5    S    
Cr4   O8    S    
C36   C40   S    
C24   C99   A    
C40   O54   S    
C73   C91   A    
C65   H84   S    
C42   H48   S    
C6    C11   D    
Cr3   O29   S    
Cr6   O42   S    
C115  O56   A    
C68   C69   S    
Cr1   O36   S    
Cr2   O28   S    
C23   H77   S    
C35   C66   S    
C65   C67   S    
C12   C66   A    
C4    C61   S    
C119  O6    A    
C87   H9    S    
C108  O34   A    
C95   H21   S    
C113  O48   A    
C6    C63   S    
C10   H23   S    
C48   C58   A    
Cr6   O16   S    
C111  O46   A    
Cr11  O59   S    
C98   H55   S    
C2    C40   S    
C72   C90   A    
C78   C82   A    
Cr12  O27   S    
C71   C89   A    
C98   H25   S    
C25   H83   S    
C1    O18   A    
C54   C68   S    
C28   C46   A    
C71   C112  S    
C67   H2    S    
C27   C45   A    
C22   H76   S    
Cr6   O38   S    
C59   C60   A    
Cr8   O45   S    
C55   O21   A    
C116  O3    A    
C116  O58   A    
C69   H56   S    
C48   C115  S    
C105  O31   A    
C21   H73   S    
C29   C47   A    
Cr10  O11   S    
C26   C30   A    
C69   H4    S    
C105  O1    A    
C74   C79   A    
C27   C31   A    
C92   H18   S    
C45   C106  S    
C62   O28   A    
C40   H46   S    
C93   H19   S    
C51   C59   A    
C84   C89   A    
C61   O22   A    
Cr9   O46   S    
C93   C97   S    
C91   H13   S    
C76   C94   S    
C75   C93   S    
Cr1   O40   S    
C14   C44   S    
Cr11  O48   S    
C81   C103  A    
Cr5   O10   S    
C47   C108  S    
Cr3   O3    S    
C31   H32   S    
C19   H66   S    
C81   C98   S    
Cr1   O14   S    
Cr2   O2    S    
C12   C30   A    
C18   H63   S    
C95   C100  S    
C24   C47   A    
C82   C100  S    
C96   H53   S    
C41   H47   S    
C68   H3    S    
Cr4   O13   S    
C15   C33   S    
C38   C99   S    
Cr5   O15   S    
Cr11  O26   S    
C33   O19   A    
C76   C81   A    
Cr8   O9    S    
C5    C8    D    
C85   C90   A    
C16   C99   A    
C73   C109  S    
C20   H69   S    
Cr5   O37   S    
C86   H8    S    
C17   H58   S    
C120  O7    A    
C1    C16   S    
C109  O40   A    
C39   O53   S    
C51   C116  S    
C58   H50   S    
C86   C91   A    
Cr7   O34   S    
C50   C60   A    
C109  O44   A    
C25   H81   S    
C44   O16   A    
C20   H70   S    
C79   C96   S    
Cr9   O24   S    
Cr9   O56   S    
C118  O36   A    
Cr12  O9    S    
C71   C75   A    
C36   H39   S    
C22   O54   S    
C38   H43   S    
C4    H28   S    
C107  O23   A    
C22   H75   S    
Cr11  O21   S    
C67   H78   S    
C21   O53   S    
C29   C34   A    
C13   C88   A    
Cr10  O20   S    
Cr12  O31   S    
C103  C120  S    
C70   C113  S    
C5    C62   S    
C41   O55   S    
Cr7   O43   S    
C19   O51   S    
C37   C41   S    
C33   O15   A    
C53   C67   S    
C120  O38   A    
C7    C64   S    
C12   C55   S    
C10   C11   S    
C102  C119  S    
C112  O47   A    
C38   H37   S    
C38   C42   S    
C100  H26   S    
C49   C57   A    
C19   H64   S    
Cr3   O11   S    
C66   C110  A    
C56   C69   S    
Cr2   O6    S    
C80   C102  A    
C2    C77   A    
C29   O52   S    
C82   C104  A    
C59   H51   S    
C79   C101  A    
C64   O30   A    
C100  H57   S    
Cr4   O30   S    
C106  O32   A    
C4    C9    D    
C48   C52   A    
C94   H20   S    
C111  O41   A    
C52   C65   S    
C34   H35   S    
C52   C53   A    
C15   C88   A    
C113  O43   A    
Cr2   O10   S    
Cr12  O60   S    
