data_mof_unit_40261.cif
_audit_creation_date              2012-12-10T18:59:59-0500
_audit_creation_method            fapswitch 2.2
_symmetry_space_group_name_H-M    P1
_symmetry_Int_Tables_number       1
_space_group_crystal_system       triclinic
_cell_length_a                    10.692658
_cell_length_b                    10.66046
_cell_length_c                    9.855946
_cell_angle_alpha                 90.617462
_cell_angle_beta                  90.193551
_cell_angle_gamma                 90.641654
_cell_volume                      1123.32344623

loop_
_atom_site_label
_atom_site_type_symbol
_atom_type_description
_atom_site_fract_x
_atom_site_fract_y
_atom_site_fract_z
_atom_type_partial_charge
C1    C     C_R   0.500216 0.260089 0.499300 0.964453
C2    C     C_R   0.436835 0.065532 0.602124 -0.312924
C3    C     C_R   0.500145 0.872291 0.501638 -0.306633
C4    C     C_R   0.499853 0.127709 0.498362 -0.306635
C5    C     C_R   0.577515 0.578746 0.073809 -0.176849
C6    C     C_R   0.422484 0.421255 0.926191 -0.176862
C7    C     C_R   0.577776 0.578971 0.930282 0.462392
C8    C     C_R   0.422223 0.421030 0.069718 0.462390
C9    C     C_R   0.260233 0.501359 0.499787 0.972199
C10   C     C_R   0.739767 0.498641 0.500213 0.972194
C11   C     C_R   0.257832 0.828974 0.240117 -0.201368
C12   C     C_R   0.499783 0.739911 0.500699 0.964456
C13   C     C_R   0.742171 0.171042 0.759911 -0.201364
C14   C     C_R   0.193281 0.758833 0.337033 -0.245833
C15   C     C_R   0.806711 0.241181 0.662987 -0.245823
C16   C     C_R   0.127135 0.649695 0.297967 0.236729
C17   C     C_R   0.872868 0.350315 0.702041 0.236725
C18   C     C_R   0.125590 0.612204 0.160880 -0.127150
C19   C     C_R   0.874434 0.387805 0.839126 -0.127142
C20   C     C_R   0.191228 0.681960 0.064513 -0.260734
C21   C     C_R   0.808809 0.318051 0.935502 -0.260732
C22   C     C_R   0.257545 0.790140 0.104139 0.752810
C23   C     C_R   0.872219 0.496924 0.500406 -0.291687
C24   C     C_R   0.742481 0.209874 0.895887 0.752804
C25   C     C_R   0.934368 0.567933 0.402270 0.594771
C26   C     C_R   0.065632 0.432068 0.597729 0.594765
C27   C     C_R   0.127781 0.503077 0.499594 -0.291687
C28   C     C_R   0.936985 0.428194 0.598976 -0.168279
C29   C     C_R   0.063016 0.571809 0.401025 -0.168281
C30   C     C_R   0.563209 0.063006 0.395989 0.684848
C31   C     C_R   0.436789 0.936994 0.604010 0.684841
C32   C     C_R   0.563162 0.934467 0.397876 -0.312920
Cl1   Cl    Cl    0.680226 0.682726 0.848346 -0.521315
Cl2   Cl    Cl    0.319770 0.317277 0.151654 -0.521321
F1    F     F_    0.321660 0.857349 0.010754 -0.576116
F2    F     F_    0.678377 0.142667 0.989281 -0.576110
F3    F     F_    0.869780 0.637925 0.311544 -0.651676
F4    F     F_    0.130220 0.362075 0.688454 -0.651679
F5    F     F_    0.627460 0.123754 0.297290 -0.585030
F6    F     F_    0.372538 0.876246 0.702710 -0.585045
H1    H     H_    0.308698 0.913007 0.270647 0.187299
H2    H     H_    0.386948 0.116427 0.680490 0.238167
H3    H     H_    0.639327 0.641545 0.129957 0.224668
H4    H     H_    0.360672 0.358457 0.870043 0.224669
H5    H     H_    0.691298 0.087010 0.729390 0.187306
H6    H     H_    0.195603 0.788776 0.442395 0.173451
H7    H     H_    0.804374 0.211237 0.557627 0.173441
H8    H     H_    0.075555 0.527859 0.129297 0.182216
H9    H     H_    0.924479 0.472148 0.870700 0.182215
H10   H     H_    0.191143 0.651709 0.959293 0.192571
H11   H     H_    0.808912 0.348302 0.040719 0.192572
H12   H     H_    0.613050 0.883573 0.319510 0.238169
N1    N     N_R   0.499970 0.499970 0.857200 -0.149993
N2    N     N_R   0.500030 0.500030 0.142800 -0.149991
O1    O     O_R   0.499990 0.316750 0.614620 -0.644222
O2    O     O_R   0.500010 0.683250 0.385380 -0.644224
O3    O     O_R   0.499990 0.316780 0.385290 -0.521702
O4    O     O_R   0.500010 0.683220 0.614710 -0.521704
O5    O     O_R   0.316760 0.500000 0.614660 -0.574058
O6    O     O_R   0.683240 0.500000 0.385340 -0.574054
O7    O     O_R   0.316760 0.500020 0.385330 -0.603155
O8    O     O_R   0.683240 0.499980 0.614670 -0.603155
Zn1   Zn    Zn3+2 0.500000 0.499980 0.653120 1.052165
Zn2   Zn    Zn3+2 0.500000 0.500020 0.346880 1.052169

loop_
_geom_bond_atom_site_label_1
_geom_bond_atom_site_label_2
_ccdc_geom_bond_type
O7    Zn2   S    
C2    C4    A    
O2    Zn2   S    
O8    Zn1   S    
C1    O3    A    
C10   C23   S    
C27   C29   A    
N1    Zn1   S    
C19   H9    S    
C11   C22   A    
C10   O6    A    
C20   H10   S    
C15   H7    S    
O6    Zn2   S    
C1    C4    S    
C12   O4    A    
C9    O5    A    
C23   C25   A    
C1    O1    A    
C5    C7    A    
C14   H6    S    
C6    H4    S    
C23   C28   A    
C10   O8    A    
C3    C31   A    
C22   F1    S    
C7    Cl1   S    
C9    C27   S    
C26   C27   A    
C24   F2    S    
N2    Zn2   S    
C2    H2    S    
C5    H3    S    
C9    O7    A    
C12   O2    A    
C20   C22   A    
C30   F5    S    
C11   H1    S    
C18   C20   A    
C13   C15   A    
C25   C29   A    
C3    C32   A    
C11   C14   A    
C14   C16   A    
O5    Zn1   S    
C4    C30   A    
C7    N1    A    
C6    N1    A    
C17   C19   A    
C30   C32   A    
C5    N2    A    
C21   H11   S    
C31   F6    S    
C13   H5    S    
O3    Zn2   S    
C16   C18   A    
C21   C24   A    
C8    N2    A    
O4    Zn1   S    
C15   C17   A    
C26   F4    S    
C6    C8    A    
C3    C12   S    
C25   F3    S    
C16   C29   S    
C8    Cl2   S    
C17   C28   S    
C26   C28   A    
C32   H12   S    
C13   C24   A    
C18   H8    S    
C2    C31   A    
C19   C21   A    
O1    Zn1   S    
