data_mof_unit_58327.cif
_audit_creation_date              2012-12-11T15:36:57-0500
_audit_creation_method            fapswitch 2.2
_symmetry_space_group_name_H-M    P1
_symmetry_Int_Tables_number       1
_space_group_crystal_system       triclinic
_cell_length_a                    15.06435
_cell_length_b                    15.067698
_cell_length_c                    34.830752
_cell_angle_alpha                 91.379653
_cell_angle_beta                  91.856585
_cell_angle_gamma                 60.089482
_cell_volume                      6849.13105527

loop_
_atom_site_label
_atom_site_type_symbol
_atom_type_description
_atom_site_fract_x
_atom_site_fract_y
_atom_site_fract_z
_atom_type_partial_charge
Br1   Br    Br    0.255479 0.490729 0.163700 -0.544964
Br2   Br    Br    0.459096 0.188063 0.324523 -0.531210
Br3   Br    Br    0.051532 0.510572 0.894324 -0.526046
Br4   Br    Br    0.766765 0.207118 0.918762 -0.488646
C1    C     C_R   0.610620 0.302735 0.443978 0.545849
C2    C     C_R   0.612980 0.085314 0.762120 -0.108845
C3    C     C_R   0.100418 0.764899 0.888957 -0.148988
C4    C     C_R   0.136566 0.754007 0.851952 -0.131171
C5    C     C_R   0.145014 0.674073 0.828270 -0.003891
C6    C     C_R   0.123166 0.601407 0.842815 -0.084273
C7    C     C_R   0.086352 0.611628 0.879788 0.161282
C8    C     C_R   0.230862 0.578947 0.768876 -0.118051
C9    C     C_R   0.239151 0.574892 0.729168 -0.116510
C10   C     C_R   0.182263 0.663797 0.707307 0.028025
C11   C     C_R   0.120032 0.757588 0.725742 -0.117000
C12   C     C_R   0.111507 0.761624 0.765503 -0.110900
C13   C     C_R   0.597067 0.164570 0.788172 0.032182
C14   C     C_R   0.660984 0.769153 0.165668 -0.114738
C15   C     C_R   0.165533 0.671973 0.787239 0.028516
C16   C     C_R   0.209608 0.726728 0.645975 -0.122025
C17   C     C_R   0.235874 0.709689 0.607476 -0.126664
C18   C     C_R   0.214050 0.560618 0.606557 -0.124482
C19   C     C_R   0.188006 0.577628 0.645028 -0.121513
C20   C     C_R   0.190312 0.657915 0.665369 0.030704
C21   C     C_R   0.243330 0.623444 0.588047 0.022314
C22   C     C_R   0.671672 0.079144 0.906279 0.033835
C23   C     C_R   0.610973 0.048408 0.884717 -0.152930
C24   C     C_R   0.552552 0.189561 0.639882 -0.120685
C25   C     C_R   0.581256 0.080864 0.846950 -0.127920
C26   C     C_R   0.826045 0.614787 0.160143 -0.119308
C27   C     C_R   0.554915 0.214446 0.601696 -0.125132
C28   C     C_R   0.687843 0.255447 0.618724 -0.124309
C29   C     C_R   0.684031 0.232447 0.656907 -0.121575
C30   C     C_R   0.614315 0.202321 0.667871 0.027075
C31   C     C_R   0.620427 0.250595 0.591044 0.023886
C32   C     C_R   0.045763 0.739005 0.048485 0.538756
C33   C     C_R   0.745731 0.685502 0.182963 0.025320
C34   C     C_R   0.747503 0.746815 0.064143 0.542758
C35   C     C_R   0.751376 0.040240 0.050724 0.548628
C36   C     C_R   0.016733 0.722253 0.939570 0.561582
C37   C     C_R   0.717072 0.729945 0.954978 0.542573
C38   C     C_R   0.824188 0.631046 0.120727 -0.119822
C39   C     C_R   0.720771 0.025556 0.942368 0.571608
C40   C     C_R   0.767283 0.581229 0.240599 -0.109037
C41   C     C_R   0.756191 0.574998 0.279873 -0.117671
C42   C     C_R   0.727737 0.660863 0.303885 0.056619
C43   C     C_R   0.717145 0.750912 0.288498 -0.056744
C44   C     C_R   0.611578 0.144806 0.830008 -0.000712
C45   C     C_R   0.727180 0.757467 0.249191 -0.115648
C46   C     C_R   0.749286 0.673624 0.224865 0.022224
C47   C     C_R   0.602958 0.733284 0.357466 0.251929
C48   C     C_R   0.593249 0.610147 0.449361 0.549609
C49   C     C_R   0.571538 0.720136 0.393440 -0.117595
C50   C     C_R   0.732227 0.562152 0.402506 -0.143552
C51   C     C_R   0.764493 0.574924 0.367094 -0.173312
C52   C     C_R   0.699523 0.658535 0.343888 0.064828
C53   C     C_R   0.634244 0.632943 0.415443 -0.010304
C54   C     C_R   0.103806 0.728207 0.084617 -0.009522
C55   C     C_R   0.665082 0.182188 0.852567 -0.083357
C56   C     C_R   0.158427 0.631976 0.102147 -0.088367
C57   C     C_R   0.185941 0.624271 0.141075 0.168688
C58   C     C_R   0.158718 0.713725 0.162900 0.034352
C59   C     C_R   0.114175 0.808637 0.144524 -0.156671
C60   C     C_R   0.303970 0.591419 0.442325 0.542778
C61   C     C_R   0.087123 0.815900 0.105544 -0.136918
C62   C     C_R   0.227546 0.737913 0.225998 -0.100950
C63   C     C_R   0.233915 0.730871 0.266010 -0.107142
C64   C     C_R   0.175633 0.697495 0.285567 0.026724
C65   C     C_R   0.108599 0.674419 0.264461 -0.106232
C66   C     C_R   0.694595 0.150574 0.890459 0.160914
C67   C     C_R   0.102616 0.681128 0.224541 -0.073934
C68   C     C_R   0.163684 0.710701 0.205090 0.054622
C69   C     C_R   0.199982 0.589606 0.342668 -0.108967
C70   C     C_R   0.229509 0.564418 0.381040 -0.119762
C71   C     C_R   0.234421 0.721795 0.390295 -0.124813
C72   C     C_R   0.605570 0.300795 0.553772 0.542199
C73   C     C_R   0.204839 0.746959 0.351923 -0.121389
C74   C     C_R   0.190793 0.679418 0.327431 0.027507
C75   C     C_R   0.250718 0.628450 0.404856 0.017170
C76   C     C_R   0.725404 0.096807 0.087437 0.026422
C77   C     C_R   0.578072 0.258976 0.773803 -0.115804
C78   C     C_R   0.802658 0.099820 0.110127 -0.120693
C79   C     C_R   0.786885 0.126296 0.148931 -0.120717
C80   C     C_R   0.693213 0.151684 0.165367 0.027097
C81   C     C_R   0.612803 0.158224 0.141894 -0.104388
C82   C     C_R   0.628931 0.130498 0.103206 -0.114069
C83   C     C_R   0.595371 0.242282 0.223796 -0.101895
C84   C     C_R   0.587369 0.606292 0.559192 0.541916
C85   C     C_R   0.585053 0.248933 0.263553 -0.065315
C86   C     C_R   0.660844 0.173367 0.287309 0.056685
C87   C     C_R   0.747791 0.091807 0.270845 -0.113345
C88   C     C_R   0.581506 0.271629 0.734491 -0.116776
C89   C     C_R   0.758641 0.085665 0.231135 -0.116893
C90   C     C_R   0.682688 0.161069 0.207350 0.020961
C91   C     C_R   0.733879 0.190767 0.349598 -0.154949
C92   C     C_R   0.722892 0.221152 0.387992 -0.135478
C93   C     C_R   0.555646 0.234826 0.387525 -0.095707
C94   C     C_R   0.566480 0.203883 0.349000 0.163532
C95   C     C_R   0.654304 0.186156 0.329342 0.035670
C96   C     C_R   0.298424 0.589099 0.551844 0.543592
C97   C     C_R   0.631755 0.247940 0.406812 -0.011196
C98   C     C_R   0.690850 0.689113 0.920181 0.016322
C99   C     C_R   0.602162 0.190816 0.708827 0.024987
C100  C     C_R   0.763726 0.595000 0.904196 -0.090532
C101  C     C_R   0.751203 0.569186 0.866450 -0.094159
C102  C     C_R   0.665454 0.636888 0.844129 0.025514
C103  C     C_R   0.587909 0.726089 0.861400 -0.119005
C104  C     C_R   0.600343 0.751830 0.899118 -0.125914
C105  C     C_R   0.569703 0.648160 0.782569 -0.115621
C106  C     C_R   0.564645 0.647644 0.742514 -0.117438
C107  C     C_R   0.652315 0.620641 0.721195 0.026759
C108  C     C_R   0.741359 0.717668 0.103652 0.019923
C109  C     C_R   0.745947 0.590494 0.740585 -0.114866
C110  C     C_R   0.614730 0.098691 0.722684 -0.115323
C111  C     C_R   0.750947 0.591493 0.780652 -0.110775
C112  C     C_R   0.662493 0.621989 0.802048 0.027939
C113  C     C_R   0.717780 0.542474 0.656756 -0.122896
C114  C     C_R   0.703775 0.540555 0.616989 -0.129056
C115  C     C_R   0.549258 0.706190 0.620513 -0.125432
C116  C     C_R   0.563044 0.707764 0.660241 -0.122453
C117  C     C_R   0.645362 0.624336 0.678822 0.030801
C118  C     C_R   0.617171 0.620649 0.598657 0.021646
C119  C     C_R   0.071165 0.696574 0.902949 0.031037
C120  C     C_R   0.658462 0.784813 0.126369 -0.120721
Cr1   Cr    Cr6+3 0.426010 0.422500 0.497000 1.019232
Cr2   Cr    Cr6+3 0.651300 0.426310 0.501970 1.012496
Cr3   Cr    Cr6+3 0.422670 0.651170 0.501050 1.012421
Cr4   Cr    Cr6+3 0.905130 0.911420 0.992650 1.056914
Cr5   Cr    Cr6+3 0.911860 0.682710 0.002320 1.065149
Cr6   Cr    Cr6+3 0.682710 0.906840 0.004710 1.027397
H1    H     H_    0.593506 0.852242 0.114162 0.138347
H2    H     H_    0.061688 0.650116 0.278807 0.107487
H3    H     H_    0.889361 0.578232 0.103985 0.139822
H4    H     H_    0.051182 0.662065 0.208685 0.132690
H5    H     H_    0.190375 0.535682 0.324395 0.131458
H6    H     H_    0.241603 0.491874 0.391348 0.142782
H7    H     H_    0.093314 0.877999 0.160958 0.112529
H8    H     H_    0.249553 0.773101 0.407985 0.126826
H9    H     H_    0.877807 0.074079 0.098751 0.126676
H10   H     H_    0.568029 0.129133 0.086267 0.132489
H11   H     H_    0.518970 0.314228 0.275863 0.153412
H12   H     H_    0.495738 0.775174 0.403166 0.118418
H13   H     H_    0.536203 0.301354 0.205930 0.146329
H14   H     H_    0.838939 0.517238 0.357066 0.115066
H15   H     H_    0.849365 0.122318 0.166535 0.108314
H16   H     H_    0.807489 0.033457 0.288783 0.108891
H17   H     H_    0.825846 0.021398 0.218932 0.108230
H18   H     H_    0.802181 0.176923 0.335036 0.113801
H19   H     H_    0.783312 0.229680 0.402158 0.139113
H20   H     H_    0.539896 0.177755 0.154032 0.136536
H21   H     H_    0.485561 0.253135 0.401750 0.155158
H22   H     H_    0.833588 0.544361 0.919940 0.175048
H23   H     H_    0.891831 0.549430 0.173052 0.121847
H24   H     H_    0.542559 0.824737 0.910628 0.132533
H25   H     H_    0.507432 0.772786 0.676638 0.103433
H26   H     H_    0.764444 0.504828 0.291152 0.110125
H27   H     H_    0.492005 0.668846 0.728145 0.109360
H28   H     H_    0.500697 0.670676 0.798317 0.109100
H29   H     H_    0.811060 0.498794 0.854084 0.136668
H30   H     H_    0.814455 0.569628 0.724750 0.107160
H31   H     H_    0.823164 0.572746 0.794831 0.121380
H32   H     H_    0.781993 0.477318 0.670462 0.102941
H33   H     H_    0.757368 0.473410 0.601000 0.122416
H34   H     H_    0.782478 0.494491 0.419005 0.136528
H35   H     H_    0.521136 0.780061 0.844906 0.106107
H36   H     H_    0.481888 0.769221 0.607313 0.126285
H37   H     H_    0.091501 0.829675 0.906095 0.144029
H38   H     H_    0.784349 0.515833 0.222247 0.115493
H39   H     H_    0.170923 0.525139 0.659428 0.106981
H40   H     H_    0.289840 0.502224 0.715481 0.110739
H41   H     H_    0.274050 0.509218 0.785202 0.112999
H42   H     H_    0.154603 0.810046 0.841348 0.119478
H43   H     H_    0.075838 0.826931 0.709300 0.106357
H44   H     H_    0.059455 0.833948 0.779082 0.113079
H45   H     H_    0.173684 0.563258 0.086283 0.162430
H46   H     H_    0.211410 0.789350 0.661215 0.102686
H47   H     H_    0.257511 0.759763 0.593854 0.125864
H48   H     H_    0.128867 0.539619 0.824558 0.139712
H49   H     H_    0.597289 0.823389 0.182746 0.125988
H50   H     H_    0.217977 0.494266 0.592167 0.129838
H51   H     H_    0.591710 0.994104 0.896212 0.133677
H52   H     H_    0.733025 0.241563 0.678193 0.110747
H53   H     H_    0.569659 0.344039 0.724086 0.113707
H54   H     H_    0.563285 0.322194 0.793022 0.110512
H55   H     H_    0.537995 0.052666 0.830531 0.115762
H56   H     H_    0.045071 0.891101 0.092789 0.134801
H57   H     H_    0.630562 0.035703 0.703166 0.108798
H58   H     H_    0.629230 0.011213 0.772256 0.107732
H59   H     H_    0.498578 0.166006 0.647946 0.106674
H60   H     H_    0.697438 0.817242 0.306666 0.160493
H61   H     H_    0.502010 0.210317 0.580909 0.119788
H62   H     H_    0.688958 0.232028 0.840261 0.138255
H63   H     H_    0.738477 0.283914 0.611480 0.125957
H64   H     H_    0.714937 0.828876 0.237564 0.117906
H65   H     H_    0.473659 0.858809 0.347889 0.327518
H66   H     H_    0.196376 0.817587 0.341059 0.107847
H67   H     H_    0.287137 0.747984 0.281519 0.120435
H68   H     H_    0.274315 0.761799 0.211297 0.120136
O1    O     O_R   0.324990 0.503440 0.453910 -0.516360
O2    O     O_R   0.675430 0.831160 0.051290 -0.516180
O3    O     O_R   0.698870 0.998880 0.039560 -0.502397
O4    O     O_R   0.522030 0.339050 0.458320 -0.501696
O5    O     O_R   0.811290 0.006780 0.950620 -0.458074
O6    O     O_R   0.980960 0.812920 0.953200 -0.512136
O7    O     O_R   0.001480 0.656720 0.955830 -0.452063
O8    O     O_R   0.809240 0.683250 0.968050 -0.486473
O9    O     O_R   0.652500 0.818540 0.967340 -0.519397
O10   O     O_R   0.677620 0.987170 0.961730 -0.509231
O11   O     O_3   0.833240 0.833660 0.999890 -0.256606
O12   O     O_R   0.639980 0.519500 0.542640 -0.503535
O13   O     O_R   0.676180 0.324490 0.458320 -0.516161
O14   O     O_R   0.643570 0.521510 0.464260 -0.499681
O15   O     O_R   0.504630 0.675350 0.460920 -0.517789
O16   O     O_R   0.339850 0.642450 0.459830 -0.502156
O17   O     O_R   0.321120 0.501280 0.538470 -0.517839
O18   O     O_R   0.518440 0.337050 0.536710 -0.499194
O19   O     O_R   0.672300 0.322330 0.542880 -0.520423
O20   O     O_3   0.538060 0.814369 0.334207 -0.696951
O21   O     O_R   0.500750 0.673190 0.545480 -0.519450
O22   O     O_R   0.336260 0.640450 0.538210 -0.504105
O23   O     O_3   0.499990 0.499990 0.500010 -0.236674
O24   O     O_R   0.834210 0.019400 0.034570 -0.505387
O25   O     O_R   0.002210 0.824620 0.031030 -0.503093
O26   O     O_R   0.024400 0.669340 0.039790 -0.512038
O27   O     O_R   0.830490 0.694950 0.045870 -0.500489

loop_
_geom_bond_atom_site_label_1
_geom_bond_atom_site_label_2
_ccdc_geom_bond_type
C51   C52   A    
C59   C61   A    
C96   O17   A    
C79   H15   S    
C89   C90   A    
Cr5   O8    S    
C27   H61   S    
C23   C25   A    
C69   C70   A    
C91   C92   A    
C13   C44   S    
C24   H59   S    
C45   C46   A    
C67   H4    S    
Br4   C66   S    
C93   C94   A    
Cr2   O23   S    
Cr3   O21   S    
C3    C4    A    
C43   C45   A    
C101  H29   S    
C73   C74   A    
C116  C117  A    
Br2   C94   S    
C22   C23   A    
C58   C59   A    
Cr1   O4    S    
C38   H3    S    
C60   O16   A    
C14   C33   A    
C47   C52   A    
C32   C54   S    
Cr2   O13   S    
C65   H2    S    
Cr4   O6    S    
Cr1   O18   S    
C91   C95   A    
C107  C117  S    
C45   H64   S    
C54   C56   A    
C11   C12   A    
C83   C90   A    
C2    H58   S    
C37   C98   S    
C49   H12   S    
C40   H38   S    
C10   C20   S    
C37   O8    A    
C65   C67   A    
C113  C117  A    
C81   H20   S    
C2    C110  A    
C76   C82   A    
Cr6   O9    S    
C54   C61   A    
C105  C112  A    
C36   O7    A    
C77   C88   A    
C3    H37   S    
C5    C15   S    
C26   H23   S    
C62   C68   A    
C36   O6    A    
C64   C65   A    
C18   C21   A    
C70   H6    S    
Cr3   O22   S    
C19   C20   A    
C35   O24   A    
C98   C104  A    
Cr6   O3    S    
C120  H1    S    
C5    C6    A    
C32   O26   A    
C13   C77   A    
C88   C99   A    
Cr2   O19   S    
C82   H10   S    
C17   H47   S    
C62   C63   A    
C24   C30   A    
C84   O12   A    
C9    C10   A    
C59   H7    S    
C55   H62   S    
Cr5   O26   S    
Cr6   O2    S    
C105  H28   S    
Cr4   O25   S    
C12   H44   S    
C100  C101  A    
C22   C39   S    
C8    H41   S    
C47   O20   S    
C64   C74   S    
C31   C72   S    
C1    C97   S    
C114  H33   S    
C11   H43   S    
C25   C44   A    
C63   C64   A    
C6    H48   S    
C28   C31   A    
C16   C20   A    
C99   C110  A    
Cr6   O10   S    
C80   C81   A    
C18   H50   S    
Cr2   O12   S    
Cr4   O24   S    
C1    O4    A    
C49   C53   A    
C4    C5    A    
C38   C108  A    
C41   C42   A    
C88   H53   S    
C116  H25   S    
C69   H5    S    
C110  H57   S    
C106  C107  A    
C1    O13   A    
C102  C112  S    
C56   C57   A    
C47   C49   A    
Cr4   O5    S    
C111  H31   S    
C23   H51   S    
C78   H9    S    
Cr4   O11   S    
C87   C89   A    
Cr5   O7    S    
C72   O18   A    
C21   C96   S    
C32   O25   A    
C79   C80   A    
C19   H39   S    
C111  C112  A    
C72   O19   A    
C69   C74   A    
C29   C30   A    
C93   H21   S    
C58   C68   S    
C107  C109  A    
C41   H26   S    
C80   C90   S    
C8    C9    A    
C98   C100  A    
C103  H35   S    
C71   C73   A    
C115  H36   S    
C96   O22   A    
C81   C82   A    
C62   H68   S    
C106  H27   S    
C34   O27   A    
C50   H34   S    
C84   C118  S    
C9    H40   S    
C14   H49   S    
C78   C79   A    
C70   C75   A    
C35   O3    A    
C39   O5    A    
C22   C66   A    
C60   C75   S    
C27   C31   A    
C103  C104  A    
Cr5   O11   S    
C86   C95   S    
C40   C41   A    
C44   C55   A    
C115  C118  A    
C40   C46   A    
C2    C13   A    
C17   C21   A    
C50   C51   A    
C51   H14   S    
C39   O10   A    
C10   C11   A    
C73   H66   S    
C24   C27   A    
C7    C119  A    
C91   H18   S    
C3    C119  A    
C28   H63   S    
C63   H67   S    
C71   H8    S    
Br1   C57   S    
C115  C116  A    
Cr3   O16   S    
C108  C120  A    
Cr1   O23   S    
C113  H32   S    
C101  C102  A    
C42   C52   S    
C113  C114  A    
C30   C99   S    
C84   O21   A    
C85   H11   S    
C6    C7    A    
C35   C76   S    
C100  H22   S    
C43   H60   S    
C83   C85   A    
C67   C68   A    
C26   C33   A    
C61   H56   S    
C28   C29   A    
C33   C46   S    
Cr1   O17   S    
C86   C87   A    
C16   H46   S    
C71   C75   A    
C36   C119  S    
C12   C15   A    
C114  C118  A    
C92   H19   S    
C8    C15   A    
C48   O15   A    
C76   C78   A    
C25   H55   S    
C89   H17   S    
C34   O2    A    
C87   H16   S    
C109  H30   S    
C57   C58   A    
C42   C43   A    
Br3   C7    S    
C48   C53   S    
Cr3   O23   S    
C55   C66   A    
Cr3   O15   S    
C105  C106  A    
C104  H24   S    
C16   C17   A    
Cr1   O1    S    
C94   C95   A    
C102  C103  A    
C60   O1    A    
Cr5   O27   S    
C29   H52   S    
C48   O14   A    
C56   H45   S    
C18   C19   A    
C26   C38   A    
Cr6   O11   S    
Cr2   O14   S    
C37   O9    A    
C77   H54   S    
C83   H13   S    
C85   C86   A    
C92   C97   A    
C34   C108  S    
H65   O20   S    
C93   C97   A    
C4    H42   S    
C14   C120  A    
C109  C111  A    
C50   C53   A    
