data_mof_unit_17807.cif
_audit_creation_date              2012-10-26T20:06:10-0400
_audit_creation_method            fapswitch 2.2
_symmetry_space_group_name_H-M    P1
_symmetry_Int_Tables_number       1
_space_group_crystal_system       triclinic
_cell_length_a                    9.515889
_cell_length_b                    10.829223
_cell_length_c                    13.430781
_cell_angle_alpha                 90.366362
_cell_angle_beta                  72.457738
_cell_angle_gamma                 89.991707
_cell_volume                      1319.6428134

loop_
_atom_site_label
_atom_site_type_symbol
_atom_type_description
_atom_site_fract_x
_atom_site_fract_y
_atom_site_fract_z
_atom_type_partial_charge
C1    C     C_R   0.499871 0.737935 0.500351 0.551624
C2    C     C_R   0.373295 0.486107 0.815041 0.000636
C3    C     C_R   0.621077 0.936242 0.512999 -0.136801
C4    C     C_R   0.421320 0.493103 0.700147 0.533235
C5    C     C_R   0.620896 0.063994 0.513205 -0.146302
C6    C     C_R   0.499576 0.128249 0.500784 0.022237
C7    C     C_R   0.377815 0.063814 0.489070 -0.136404
C8    C     C_R   0.377749 0.936059 0.489233 -0.140425
C9    C     C_R   0.499585 0.871790 0.500850 0.018370
C10   C     C_R   0.896078 0.575588 0.567483 0.352083
C11   C     C_R   0.047138 0.575807 0.565775 -0.015301
C12   C     C_R   0.434017 0.476631 0.979426 0.022610
C13   C     C_R   0.102961 0.424399 0.433994 -0.009663
C14   C     C_R   0.952443 0.422192 0.434489 0.349444
C15   C     C_R   0.499885 0.262072 0.500199 0.544080
C16   C     C_R   0.578801 0.497747 0.299846 0.547077
C17   C     C_R   0.790073 0.393649 0.028683 -0.129763
C18   C     C_R   0.623675 0.480071 0.186499 -0.004621
C19   C     C_R   0.230863 0.527186 0.869574 -0.131308
C20   C     C_R   0.187798 0.538756 0.977418 -0.143234
C21   C     C_R   0.288243 0.516424 0.031956 -0.113518
C22   C     C_3   0.809786 0.671662 0.730236 -0.136790
C23   C     C_R   0.470956 0.449487 0.871385 0.001051
C24   C     C_3   0.968533 0.230834 0.352395 -0.149637
C25   C     C_R   0.543495 0.461638 0.030845 0.001988
C26   C     C_R   0.682215 0.407519 0.976996 0.076019
C27   C     C_R   0.709307 0.365566 0.873681 0.082055
C28   C     C_R   0.602756 0.384659 0.823019 -0.103573
C29   C     C_R   0.519563 0.500968 0.134328 -0.136579
C30   C     C_R   0.760537 0.428916 0.132818 -0.152846
Cu1   Cu    Cu3+1 0.359340 0.499980 0.500000 0.921448
Cu2   Cu    Cu3+1 0.640660 0.500020 0.500000 1.046882
H1    H     H_    0.842578 0.411972 0.172204 0.163922
H2    H     H_    0.246768 0.528039 0.115448 0.107892
H3    H     H_    0.077002 0.569040 0.018858 0.119342
H4    H     H_    0.623423 0.345382 0.745837 0.138267
H5    H     H_    0.715865 0.888231 0.522804 0.156542
H6    H     H_    0.891968 0.744898 0.728971 0.102216
H7    H     H_    0.840125 0.584164 0.761716 0.100734
H8    H     H_    0.702847 0.702486 0.784764 0.155533
H9    H     H_    0.897410 0.168134 0.323126 0.149284
H10   H     H_    0.975718 0.191878 0.427320 0.089270
H11   H     H_    0.078540 0.231860 0.292669 0.106568
H12   H     H_    0.715238 0.112178 0.523577 0.126964
H13   H     H_    0.842498 0.268930 0.748013 0.224959
H14   H     H_    0.928760 0.371188 0.803020 0.218226
H15   H     H_    0.283001 0.111841 0.479295 0.123080
H16   H     H_    0.282837 0.887885 0.479671 0.129935
H17   H     H_    0.084956 0.637665 0.615692 0.118302
H18   H     H_    0.184595 0.366992 0.380247 0.123389
H19   H     H_    0.896419 0.352570 0.989964 0.147514
H20   H     H_    0.419743 0.548047 0.177033 0.121840
H21   H     H_    0.153095 0.552844 0.828650 0.119065
N1    N     N_R   0.147940 0.499970 0.499970 -0.282047
N2    N     N_R   0.852060 0.500060 0.499990 -0.202050
N3    N     N_3   0.845681 0.304411 0.819897 -0.638867
O1    O     O_R   0.381250 0.680340 0.500010 -0.514219
O2    O     O_3   0.905086 0.349972 0.364964 -0.542044
O3    O     O_R   0.618820 0.680370 0.500010 -0.460567
O4    O     O_R   0.323240 0.499950 0.650980 -0.512238
O5    O     O_R   0.560810 0.499980 0.650980 -0.472282
O6    O     O_R   0.381180 0.319630 0.499990 -0.514978
O7    O     O_R   0.618750 0.319660 0.499990 -0.480482
O8    O     O_R   0.439190 0.500020 0.349020 -0.514089
O9    O     O_R   0.676760 0.500050 0.349020 -0.457811
O10   O     O_3   0.792705 0.656508 0.630027 -0.535245

loop_
_geom_bond_atom_site_label_1
_geom_bond_atom_site_label_2
_ccdc_geom_bond_type
Cu1   O4    S    
C8    C9    A    
C2    C4    S    
C8    H16   S    
C4    O5    A    
C6    C7    A    
C3    C9    A    
C1    O1    A    
C17   H19   S    
C24   H10   S    
Cu2   N2    S    
C19   C20   A    
C12   C23   A    
C12   C25   A    
C25   C26   A    
C22   H8    S    
C19   H21   S    
C10   O10   S    
C14   N2    A    
C6    C15   S    
C7    C8    A    
C30   H1    S    
C18   C29   A    
C13   C14   A    
C25   C29   A    
C24   H9    S    
Cu1   O6    S    
C4    O4    A    
C26   C27   A    
C11   N1    A    
C17   C30   A    
C11   H17   S    
C22   H7    S    
C12   C21   A    
C24   O2    S    
H13   N3    S    
C16   O9    A    
C5    H12   S    
Cu2   O5    S    
C1    O3    A    
Cu1   N1    S    
C10   N2    A    
C5    C6    A    
C14   O2    S    
C10   C11   A    
C17   C26   A    
C18   C30   A    
C13   H18   S    
C22   H6    S    
C2    C23   A    
C28   H4    S    
C1    C9    S    
C20   C21   A    
C3    H5    S    
C16   C18   S    
C13   N1    A    
H14   N3    S    
C27   C28   A    
C24   H11   S    
C15   O7    A    
C27   N3    S    
C22   O10   S    
C21   H2    S    
C16   O8    A    
Cu2   O3    S    
C2    C19   A    
C23   C28   A    
C20   H3    S    
Cu1   O8    S    
C15   O6    A    
Cu1   O1    S    
Cu1   Cu2   S    
Cu2   O7    S    
Cu2   O9    S    
C3    C5    A    
C29   H20   S    
C7    H15   S    
