data_mof_unit_48962.cif
_audit_creation_date              2012-10-26T21:14:42-0400
_audit_creation_method            fapswitch 2.2
_symmetry_space_group_name_H-M    P1
_symmetry_Int_Tables_number       1
_space_group_crystal_system       triclinic
_cell_length_a                    15.118381
_cell_length_b                    10.846056
_cell_length_c                    13.671236
_cell_angle_alpha                 90.468291
_cell_angle_beta                  90.70363
_cell_angle_gamma                 89.965505
_cell_volume                      2241.49409078

loop_
_atom_site_label
_atom_site_type_symbol
_atom_type_description
_atom_site_fract_x
_atom_site_fract_y
_atom_site_fract_z
_atom_type_partial_charge
C1    C     C_R   0.496738 0.262160 0.499292 0.539447
C2    C     C_R   0.563961 0.885377 0.676231 0.057713
C3    C     C_R   0.475721 0.095488 0.233792 -0.097493
C4    C     C_R   0.517385 0.895202 0.764254 -0.094320
C5    C     C_R   0.443475 0.148497 0.147536 -0.116472
C6    C     C_R   0.554475 0.850230 0.851107 -0.112049
C7    C     C_R   0.368299 0.223457 0.149535 -0.107905
C8    C     C_R   0.638223 0.795689 0.850721 -0.109099
C9    C     C_R   0.472167 0.932083 0.417292 -0.166746
C10   C     C_R   0.521962 0.067996 0.582891 -0.152526
C11   C     C_R   0.501838 0.871863 0.501782 -0.010005
C12   C     C_R   0.501836 0.737972 0.500644 0.526276
C13   C     C_R   0.493505 0.128363 0.498169 -0.006454
C14   C     C_R   0.527296 0.940654 0.585737 -0.035066
C15   C     C_R   0.466978 0.059805 0.414239 -0.035002
C16   C     C_R   0.328754 0.499442 0.499489 0.571114
C17   C     C_R   0.671506 0.500326 0.500721 0.589762
C18   C     C_R   0.552774 0.419218 0.793469 0.022252
C19   C     C_R   0.445314 0.578401 0.206556 0.045113
C20   C     C_R   0.445469 0.578846 0.792657 0.074832
C21   C     C_R   0.554790 0.421539 0.207337 0.075377
C22   C     C_R   0.442469 0.579735 0.896050 0.021375
C23   C     C_R   0.048450 0.373351 0.645959 -0.132508
C24   C     C_R   0.556823 0.419459 0.103931 0.021266
C25   C     C_R   0.498940 0.499172 0.948152 0.008796
C26   C     C_R   0.499958 0.499540 0.051852 0.004656
C27   C     C_R   0.554276 0.417856 0.896449 -0.050260
C28   C     C_R   0.443966 0.579988 0.103564 -0.045871
C29   C     C_R   0.385765 0.659580 0.948574 0.119290
C30   C     C_R   0.612760 0.338613 0.051383 0.122234
C31   C     C_R   0.387690 0.659710 0.051686 -0.135940
C32   C     C_R   0.609995 0.337396 0.948315 -0.146344
C33   C     C_R   0.813670 0.563989 0.426891 0.204499
C34   C     C_R   0.952491 0.617217 0.348873 -0.132285
C35   C     C_R   0.187113 0.432661 0.571429 0.205616
C36   C     C_R   0.768415 0.503744 0.502593 -0.003283
C37   C     C_R   0.232281 0.497584 0.498373 -0.006594
C38   C     C_R   0.815860 0.447067 0.579730 0.214069
C39   C     C_R   0.185287 0.561199 0.424649 0.211024
C40   C     C_R   0.908570 0.440527 0.575950 0.011863
C41   C     C_R   0.092539 0.557938 0.422965 0.012498
C42   C     C_R   0.953865 0.499381 0.499633 -0.022175
C43   C     C_R   0.047078 0.496928 0.498133 -0.022897
C44   C     C_R   0.906378 0.560636 0.424859 0.013276
C45   C     C_R   0.324344 0.243837 0.237534 -0.093376
C46   C     C_R   0.094498 0.434402 0.572357 0.012393
C47   C     C_R   0.956764 0.375157 0.647078 -0.133798
C48   C     C_R   0.044394 0.616286 0.348137 -0.132698
C49   C     C_3   0.748074 0.743730 0.381948 -0.112562
C50   C     C_3   0.253492 0.252699 0.615129 -0.114144
C51   C     C_3   0.244860 0.684667 0.867126 -0.313701
C52   C     C_3   0.754458 0.312904 0.130813 -0.313046
C53   C     C_3   0.772480 0.462586 0.738800 -0.134796
C54   C     C_3   0.246812 0.745481 0.386383 -0.128676
C55   C     C_R   0.685431 0.787340 0.763654 -0.114812
C56   C     C_R   0.355619 0.189543 0.323702 -0.056691
C57   C     C_R   0.648409 0.831471 0.676504 -0.056881
C58   C     C_R   0.432503 0.116570 0.322856 0.046937
Cu1   Cu    Cu3+1 0.500010 0.499980 0.597420 0.959873
Cu2   Cu    Cu3+1 0.499990 0.500020 0.402580 0.969949
H1    H     H_    0.450790 0.879303 0.353540 0.122439
H2    H     H_    0.077528 0.662072 0.288776 0.152754
H3    H     H_    0.083003 0.323675 0.703238 0.152155
H4    H     H_    0.917802 0.663442 0.289876 0.152175
H5    H     H_    0.344127 0.265681 0.082900 0.115142
H6    H     H_    0.666866 0.761005 0.918029 0.108002
H7    H     H_    0.265921 0.301532 0.238994 0.121106
H8    H     H_    0.751182 0.747917 0.763880 0.085549
H9    H     H_    0.320395 0.205100 0.390993 0.077804
H10   H     H_    0.686095 0.825891 0.609840 0.080652
H11   H     H_    0.534702 0.038854 0.231361 0.108483
H12   H     H_    0.543552 0.120409 0.646780 0.138456
H13   H     H_    0.452689 0.938107 0.765559 0.107338
H14   H     H_    0.477257 0.132381 0.079261 0.115995
H15   H     H_    0.518457 0.858101 0.918795 0.115915
H16   H     H_    0.702401 0.745294 0.444995 0.112605
H17   H     H_    0.714285 0.791479 0.320531 0.142827
H18   H     H_    0.809405 0.796292 0.400202 0.098799
H19   H     H_    0.282914 0.202465 0.677953 0.139683
H20   H     H_    0.303312 0.253076 0.556258 0.115088
H21   H     H_    0.193324 0.201214 0.590759 0.094770
H22   H     H_    0.317219 0.823467 0.934853 0.245563
H23   H     H_    0.594086 0.356222 0.752585 0.149147
H24   H     H_    0.205896 0.656804 0.931729 0.145111
H25   H     H_    0.257250 0.602441 0.820262 0.179190
H26   H     H_    0.205562 0.751888 0.823832 0.138079
H27   H     H_    0.680290 0.174035 0.065703 0.247027
H28   H     H_    0.792688 0.339230 0.065259 0.137499
H29   H     H_    0.793912 0.245866 0.174115 0.143754
H30   H     H_    0.743232 0.396016 0.177071 0.179576
H31   H     H_    0.757549 0.404157 0.802652 0.122272
H32   H     H_    0.720578 0.534367 0.733863 0.154765
H33   H     H_    0.837518 0.507395 0.753980 0.094254
H34   H     H_    0.402591 0.639558 0.247427 0.147363
H35   H     H_    0.281435 0.796373 0.328132 0.124724
H36   H     H_    0.290664 0.746197 0.452343 0.118618
H37   H     H_    0.184252 0.795675 0.401980 0.106226
H38   H     H_    0.404656 0.641293 0.750458 0.159962
H39   H     H_    0.596191 0.359844 0.249544 0.164085
H40   H     H_    0.344276 0.721510 0.091275 0.106583
H41   H     H_    0.652604 0.274486 0.908766 0.102470
H42   H     H_    0.923982 0.325407 0.704597 0.150438
N1    N     N_R   0.499960 0.499900 0.743810 -0.247927
N2    N     N_R   0.500040 0.500100 0.256190 -0.247305
N3    N     N_2   0.327283 0.741027 0.898461 -0.548639
N4    N     N_2   0.671259 0.257164 0.101447 -0.544413
O1    O     O_R   0.500000 0.319630 0.582270 -0.512452
O2    O     O_3   0.233394 0.373883 0.645817 -0.560548
O3    O     O_3   0.771248 0.387477 0.653694 -0.564115
O4    O     O_3   0.230128 0.624227 0.352730 -0.568973
O5    O     O_R   0.500000 0.680370 0.417730 -0.518849
O6    O     O_R   0.499990 0.319660 0.417730 -0.503062
O7    O     O_R   0.500010 0.680340 0.582270 -0.508056
O8    O     O_R   0.370260 0.499960 0.582280 -0.474415
O9    O     O_R   0.629740 0.500040 0.417720 -0.468587
O10   O     O_R   0.370250 0.499990 0.417740 -0.473611
O11   O     O_R   0.629750 0.500010 0.582260 -0.486087
O12   O     O_3   0.767230 0.621835 0.352204 -0.562427

loop_
_geom_bond_atom_site_label_1
_geom_bond_atom_site_label_2
_ccdc_geom_bond_type
C40   C47   A    
C30   C32   A    
C8    H6    S    
C22   C29   A    
C3    H11   S    
C50   H19   S    
C51   H25   S    
C55   H8    S    
C2    C57   A    
C6    H15   S    
C39   C41   A    
C20   N1    A    
C54   O4    S    
C9    H1    S    
C7    C45   A    
C35   C37   A    
C24   C26   A    
C1    O6    A    
C21   H39   S    
C11   C14   A    
C33   C36   A    
C49   H18   S    
C51   H26   S    
H22   N3    S    
C5    H14   S    
C35   O2    S    
C21   N2    A    
C52   H30   S    
C39   O4    S    
C45   C56   A    
C49   H17   S    
C22   C25   A    
C53   H31   S    
C54   H37   S    
C17   C36   S    
C57   H10   S    
C54   H36   S    
C17   O11   A    
C16   C37   S    
C40   C42   A    
C52   N4    S    
Cu1   Cu2   S    
Cu1   O11   S    
C47   H42   S    
C30   N4    S    
C50   O2    S    
C41   C43   A    
C29   N3    S    
C52   H29   S    
C42   C44   A    
C16   O10   A    
C8    C55   A    
C23   C47   A    
C53   H33   S    
C52   H28   S    
C34   C44   A    
C4    C6    A    
C10   C14   A    
C5    C7    A    
C6    C8    A    
C25   C26   A    
Cu1   O1    S    
C16   O8    A    
C2    C4    A    
C45   H7    S    
Cu2   O6    S    
C7    H5    S    
C19   N2    A    
C48   H2    S    
C49   O12   S    
C13   C15   A    
Cu1   O7    S    
C53   H32   S    
C34   H4    S    
C18   H23   S    
C54   H35   S    
C49   H16   S    
C20   H38   S    
C31   H40   S    
C38   O3    S    
C19   C28   A    
C9    C11   A    
C4    H13   S    
C19   H34   S    
C1    O1    A    
C20   C22   A    
C55   C57   A    
C15   C58   S    
Cu2   O10   S    
C1    C13   S    
C42   C43   A    
C17   O9    A    
C12   O7    A    
C53   O3    S    
C27   C32   A    
C33   C44   A    
C28   C31   A    
C18   C27   A    
C3    C5    A    
C10   C13   A    
C50   H20   S    
C11   C12   S    
C25   C27   A    
C26   C28   A    
Cu1   N1    S    
C36   C38   A    
C9    C15   A    
C37   C39   A    
Cu2   O5    S    
C38   C40   A    
H27   N4    S    
Cu1   O8    S    
C23   H3    S    
C41   C48   A    
C56   C58   A    
C18   N1    A    
C2    C14   S    
C43   C46   A    
C24   C30   A    
C51   N3    S    
C3    C58   A    
C33   O12   S    
C34   C48   A    
C29   C31   A    
C56   H9    S    
C21   C24   A    
C23   C46   A    
C32   H41   S    
Cu2   O9    S    
Cu2   N2    S    
C35   C46   A    
C51   H24   S    
C12   O5    A    
C50   H21   S    
C10   H12   S    
