data_mof_unit_59570.cif
_audit_creation_date              2012-12-10T16:54:51-0500
_audit_creation_method            fapswitch 2.2
_symmetry_space_group_name_H-M    P1
_symmetry_Int_Tables_number       1
_space_group_crystal_system       triclinic
_cell_length_a                    7.767702
_cell_length_b                    8.564753
_cell_length_c                    15.725427
_cell_angle_alpha                 90.843522
_cell_angle_beta                  85.713317
_cell_angle_gamma                 93.629336
_cell_volume                      1041.11681764

loop_
_atom_site_label
_atom_site_type_symbol
_atom_type_description
_atom_site_fract_x
_atom_site_fract_y
_atom_site_fract_z
_atom_type_partial_charge
C1    C     C_R   0.545014 0.794189 0.492617 0.987831
C2    C     C_2   0.430727 0.043602 0.476981 -0.222366
C3    C     C_R   0.501771 0.499848 0.661581 0.914254
C4    C     C_R   0.453908 0.205243 0.496779 0.888953
C5    C     C_R   0.498175 0.500135 0.338409 0.912336
C6    C     C_3   0.403307 0.641567 0.954891 -0.163668
C7    C     C_3   0.686035 0.514374 0.945505 -0.341145
C8    C     C_3   0.683193 0.509990 0.043609 -0.334635
C9    C     C_1   0.494265 0.500522 0.249728 -0.144033
C10   C     C_3   0.498439 0.496757 0.917422 0.115799
C11   C     C_2   0.224582 0.656075 0.924028 0.918761
C12   C     C_3   0.399024 0.640347 0.053701 -0.446479
C13   C     C_2   0.271290 0.985426 0.435469 0.951896
C14   C     C_2   0.484678 0.194326 0.917501 0.906585
C15   C     C_3   0.493981 0.499267 0.083032 0.273963
C16   C     C_3   0.400834 0.345638 0.052498 -0.432574
C17   C     C_3   0.405682 0.341250 0.953717 -0.147038
C18   C     C_1   0.493136 0.500312 0.174461 -0.087139
C19   C     C_1   0.503618 0.497252 0.825607 -0.084904
C20   C     C_1   0.504897 0.498311 0.750276 -0.105052
C21   C     C_2   0.566881 0.958007 0.488009 -0.417486
H1    H     H_    0.690145 0.008428 0.507439 0.202626
H2    H     H_    0.463173 0.751471 0.076622 0.175964
H3    H     H_    0.074066 0.775258 0.852180 0.340992
H4    H     H_    0.263998 0.634421 0.083330 0.198444
H5    H     H_    0.461973 0.243360 0.077684 0.194354
H6    H     H_    0.167649 0.848239 0.344538 0.339395
H7    H     H_    0.013530 0.381687 0.436618 0.212626
H8    H     H_    0.680482 0.049840 0.914626 0.342718
H9    H     H_    0.986509 0.618397 0.563341 0.203006
H10   H     H_    0.481593 0.749030 0.932906 0.154490
H11   H     H_    0.766038 0.421551 0.916699 0.245206
H12   H     H_    0.750207 0.627559 0.922578 0.179747
H13   H     H_    0.754029 0.617161 0.067238 0.181076
H14   H     H_    0.751824 0.407461 0.062981 0.210163
H15   H     H_    0.269925 0.334417 0.935496 0.182199
H16   H     H_    0.263744 0.338314 0.079286 0.182169
N1    N     N_2   0.950340 0.457950 0.477370 -0.161227
N2    N     N_2   0.049660 0.542050 0.522630 -0.161222
O1    O     O_R   0.389240 0.738570 0.505550 -0.593472
O2    O     O_R   0.198157 0.776373 0.868239 -0.757431
O3    O     O_2   0.130596 0.033191 0.459636 -0.631041
O4    O     O_R   0.283908 0.878945 0.367276 -0.796826
O5    O     O_2   0.406965 0.112113 0.866863 -0.589662
O6    O     O_R   0.643504 0.150774 0.942861 -0.819902
O7    O     O_R   0.678400 0.711630 0.491050 -0.624419
O8    O     O_R   0.355360 0.513470 0.630110 -0.601467
O9    O     O_R   0.644510 0.486530 0.615610 -0.622500
O10   O     O_R   0.321600 0.288370 0.508950 -0.592688
O11   O     O_R   0.610760 0.261430 0.494450 -0.611378
O12   O     O_R   0.355490 0.513470 0.384390 -0.611573
O13   O     O_R   0.644640 0.486530 0.369890 -0.621263
O14   O     O_2   0.103736 0.565267 0.948303 -0.676588
Zn1   Zn    Zn3+2 0.306930 0.517990 0.509680 1.004766
Zn2   Zn    Zn3+2 0.693070 0.482010 0.490320 0.978858

loop_
_geom_bond_atom_site_label_1
_geom_bond_atom_site_label_2
_ccdc_geom_bond_type
O7    Zn2   S    
C6    C10   S    
O9    Zn2   S    
C2    C4    S    
O13   Zn2   S    
C5    O13   A    
C1    C21   S    
C17   H15   S    
C15   C18   S    
C3    O9    A    
C12   H4    S    
C19   C20   T    
C11   O14   D    
C12   C15   S    
H7    N1    S    
C4    O10   A    
O12   Zn1   S    
C2    C21   D    
C6    H10   S    
C3    C20   S    
C8    H13   S    
C21   H1    S    
C5    C9    S    
H3    O2    S    
C7    H12   S    
C14   C17   S    
O8    Zn1   S    
O11   Zn2   S    
C6    C12   S    
C3    O8    A    
C13   O3    D    
C10   C19   S    
H9    N2    S    
C11   O2    S    
C14   O6    S    
O1    Zn1   S    
C16   H5    S    
N1    N2    D    
C1    O7    A    
N2    Zn1   S    
C7    C8    S    
C10   C17   S    
O10   Zn1   S    
H6    O4    S    
C9    C18   T    
C13   O4    S    
C14   O5    D    
C7    C10   S    
C4    O11   A    
C6    C11   S    
C2    C13   S    
C5    O12   A    
C12   H2    S    
C7    H11   S    
C1    O1    A    
C8    C15   S    
N1    Zn2   S    
C15   C16   S    
C16   H16   S    
H8    O6    S    
C16   C17   S    
C8    H14   S    
