data_mof_unit_40103.cif
_audit_creation_date              2013-03-05T16:12:13-0500
_audit_creation_method            fapswitch 2.2
_symmetry_space_group_name_H-M    P1
_symmetry_Int_Tables_number       1
_space_group_crystal_system       triclinic
_cell_length_a                    10.830271
_cell_length_b                    9.590852
_cell_length_c                    27.71895
_cell_angle_alpha                 89.879424
_cell_angle_beta                  89.127895
_cell_angle_gamma                 89.214648
_cell_volume                      2878.60050488

loop_
_atom_site_label
_atom_site_type_symbol
_atom_site_description
_atom_site_fract_x
_atom_site_fract_y
_atom_site_fract_z
_atom_type_partial_charge
O1    O     O_R   0.317570 0.620260 0.500030 -0.647288
O2    O     O_R   0.317570 0.379740 0.500030 -0.576203
C1    C     C_R   0.260343 0.500894 0.500375 0.786073
O3    O     O_R   0.499900 0.620250 0.430280 -0.612587
O4    O     O_R   0.499900 0.379750 0.430280 -0.528741
C2    C     C_R   0.501276 0.500442 0.407785 0.838654
Cu1   Cu    Cu3+1 0.499860 0.642410 0.500020 0.938104
Cu2   Cu    Cu3+1 0.499860 0.357590 0.500020 1.021163
O5    O     O_R   0.682190 0.620260 0.500010 -0.606351
O6    O     O_R   0.682190 0.379740 0.500010 -0.561960
O7    O     O_R   0.499860 0.620280 0.569750 -0.609836
O8    O     O_R   0.499860 0.379720 0.569750 -0.517648
C3    C     C_R   0.739352 0.499574 0.499350 0.894556
C4    C     C_R   0.504279 0.500140 0.592247 0.883791
C5    C     C_R   0.474987 0.394703 0.177633 0.565806
O9    O     O_2   0.434764 0.282815 0.202646 -0.506423
N1    N     N_R   0.513868 0.510067 0.201742 -0.455634
C6    C     C_R   0.551464 0.626454 0.177253 0.639540
C7    C     C_R   0.587129 0.416385 0.278855 -0.171609
C8    C     C_R   0.583401 0.412552 0.329093 -0.173576
C9    C     C_R   0.431298 0.599895 0.329888 -0.317586
C10   C     C_R   0.432258 0.602425 0.279181 0.497968
C11   C     C_R   0.511349 0.510155 0.253642 0.302889
C12   C     C_R   0.514865 0.510709 0.101079 -0.048680
C13   C     C_R   0.474915 0.392869 0.126952 -0.003711
C14   C     C_R   0.426811 0.280129 0.102032 -0.226700
C15   C     C_R   0.549623 0.629972 0.126594 -0.079775
C16   C     C_R   0.504453 0.503001 0.354889 -0.069417
H1    H     H_    0.372522 0.672338 0.349713 0.172174
H2    H     H_    0.384836 0.195000 0.121891 0.187653
C17   C     C_R   0.518813 0.501041 0.645239 -0.158976
C18   C     C_R   0.506354 0.379093 0.974365 0.063363
C19   C     C_R   0.574640 0.622756 0.973148 0.068264
C20   C     C_R   0.545145 0.497992 0.948395 0.057298
C21   C     C_R   0.502628 0.251281 0.949584 -0.184760
C22   C     C_R   0.506188 0.244296 0.899335 -0.028997
C23   C     C_R   0.532388 0.366063 0.872053 -0.066171
C24   C     C_R   0.558156 0.490812 0.897232 -0.048395
C25   C     C_R   0.598215 0.608754 0.871292 -0.018549
C26   C     C_R   0.599571 0.606578 0.820851 0.628337
N2    N     N_R   0.566164 0.489311 0.796912 -0.445286
C27   C     C_R   0.539241 0.368499 0.820878 0.587661
C28   C     C_R   0.444964 0.558658 0.726759 0.479049
C29   C     C_R   0.431232 0.568583 0.676097 -0.220396
C30   C     C_R   0.626627 0.441248 0.664799 0.433209
C31   C     C_R   0.641944 0.439160 0.714964 -0.246744
C32   C     C_R   0.551417 0.496000 0.745598 0.242395
O10   O     O_2   0.518994 0.252738 0.794905 -0.461134
C33   C     C_R   0.482172 0.388101 0.024856 0.062388
C34   C     C_R   0.519051 0.509612 0.049872 -0.014751
C35   C     C_R   0.556917 0.631056 0.024225 0.012710
C36   C     C_R   0.420438 0.281589 0.051800 -0.039583
H3    H     H_    0.495451 0.154090 0.969168 0.153481
O11   O     O_2   0.590742 0.738372 0.201846 -0.499581
C37   C     C_R   0.574490 0.752634 0.101378 -0.224749
H4    H     H_    0.644982 0.342004 0.347690 0.195203
H5    H     H_    0.649269 0.346443 0.259368 0.179081
H6    H     H_    0.591032 0.847862 0.121097 0.187530
C38   C     C_R   0.630632 0.730544 0.946075 -0.137394
C39   C     C_R   0.638047 0.725674 0.896145 -0.172334
O12   O     O_2   0.632477 0.721347 0.795742 -0.486585
C40   C     C_R   0.570316 0.757221 0.050837 0.397587
H7    H     H_    0.674903 0.818030 0.962353 0.206931
H8    H     H_    0.678031 0.813272 0.877074 0.185750
H9    H     H_    0.724414 0.393460 0.730418 0.167113
C41   C     C_3   0.065043 0.642356 0.520707 -0.142530
C42   C     C_3   0.068375 0.373468 0.528893 -0.141747
H10   H     H_    0.101200 0.731392 0.499357 0.130349
H11   H     H_    0.086864 0.277353 0.507698 0.071346
C43   C     C_3   0.923576 0.644484 0.515153 -0.417952
C44   C     C_3   0.927211 0.389250 0.533901 -0.546795
H12   H     H_    0.875927 0.673757 0.549591 0.179518
H13   H     H_    0.899987 0.420907 0.571195 0.244608
H14   H     H_    0.897544 0.726976 0.488759 0.246196
H15   H     H_    0.885610 0.285884 0.527804 0.159025
C45   C     C_3   0.076377 0.490462 0.444683 -0.232290
C46   C     C_3   0.121712 0.501601 0.499468 -0.093772
C47   C     C_3   0.877389 0.500191 0.498021 0.017615
C48   C     C_3   0.928849 0.472913 0.445426 0.733957
C49   C     C_3   0.613100 0.079610 0.524761 -0.164767
C50   C     C_3   0.608183 0.913980 0.528023 -0.126355
H16   H     H_    0.695558 0.100356 0.502248 0.139377
H17   H     H_    0.694580 0.874720 0.511376 0.136990
H18   H     H_    0.393711 0.115559 0.566773 0.233196
H19   H     H_    0.371800 0.873829 0.561236 0.208863
C51   C     C_3   0.392502 0.084303 0.528397 -0.191727
C52   C     C_3   0.387346 0.919601 0.525024 -0.241344
C53   C     C_3   0.495755 0.084188 0.450041 0.404984
C54   C     C_3   0.503258 0.915009 0.449813 0.299667
N3    N     N_3   0.500250 0.143650 0.501060 -0.193113
N4    N     N_3   0.500250 0.856350 0.501060 -0.208935
H20   H     H_    0.304036 0.130085 0.516092 0.131207
H21   H     H_    0.301696 0.892236 0.506123 0.123247
O13   O     O_3   0.718824 0.392709 0.634089 -0.758393
H22   H     H_    0.788345 0.355523 0.653368 0.329416
O14   O     O_3   0.567432 0.885262 0.027842 -0.773247
H23   H     H_    0.574281 0.961413 0.051780 0.318148
C55   C     C_2   0.099288 0.678413 0.571662 0.428256
H24   H     H_    0.165491 0.760282 0.577395 0.041797
O15   O     O_2   0.050159 0.622668 0.606506 -0.510269
C56   C     C_2   0.122864 0.338509 0.577716 0.461867
H25   H     H_    0.081214 0.256281 0.599166 0.067364
O16   O     O_2   0.213217 0.396764 0.593332 -0.561588
O17   O     O_3   0.356257 0.692125 0.253840 -0.683448
H26   H     H_    0.306710 0.749153 0.277041 0.345848
C57   C     C_2   0.121589 0.619098 0.416693 0.439751
H27   H     H_    0.216166 0.620225 0.403447 0.051710
O18   O     O_2   0.057835 0.723548 0.410687 -0.489148
C58   C     C_2   0.136498 0.367445 0.417816 0.305203
H28   H     H_    0.185135 0.285791 0.436787 0.122281
O19   O     O_2   0.125603 0.355533 0.374190 -0.467773
O20   O     O_3   0.871198 0.569065 0.414224 -0.666521
H29   H     H_    0.890885 0.539290 0.380639 0.374609
O21   O     O_3   0.893921 0.338623 0.430124 -0.666298
H30   H     H_    0.935382 0.266317 0.449829 0.318075
C59   C     C_2   0.648480 0.147435 0.571876 0.504890
H31   H     H_    0.739150 0.191879 0.574961 0.051136
O22   O     O_2   0.581239 0.146427 0.607603 -0.464201
C60   C     C_2   0.622491 0.855365 0.578809 0.486032
H32   H     H_    0.703742 0.793010 0.587244 0.040236
O23   O     O_2   0.546132 0.876666 0.610888 -0.484953
O24   O     O_3   0.386029 0.132990 0.428073 -0.702900
H33   H     H_    0.313268 0.082957 0.440869 0.343445
O25   O     O_3   0.400965 0.869694 0.422913 -0.767799
H34   H     H_    0.354074 0.797598 0.440247 0.364066
C61   C     C_2   0.596169 0.137175 0.415548 0.479465
H35   H     H_    0.586244 0.116876 0.377265 0.068318
O26   O     O_2   0.687020 0.198992 0.428450 -0.513406
C62   C     C_2   0.616175 0.858609 0.420578 0.412997
H36   H     H_    0.601259 0.805934 0.386552 0.139411
O27   O     O_2   0.722958 0.881251 0.431232 -0.561914
C63   C     C_2   0.330436 0.653786 0.655064 0.516328
H37   H     H_    0.301890 0.632809 0.618878 0.087900
O28   O     O_2   0.283313 0.752204 0.676703 -0.479127
O29   O     O_3   0.355974 0.606555 0.759090 -0.655440
H38   H     H_    0.273885 0.595430 0.744449 0.361831
C64   C     C_2   0.480283 0.106365 0.878318 0.541934
H39   H     H_    0.533898 0.015936 0.889459 0.033137
O30   O     O_2   0.392515 0.090678 0.851840 -0.428168
C65   C     C_2   0.330848 0.183634 0.030898 0.375064
H40   H     H_    0.315263 0.083189 0.047924 0.090726
O31   O     O_2   0.268401 0.217306 0.996340 -0.493079

loop_
_geom_bond_atom_site_label_1
_geom_bond_atom_site_label_2
_geom_bond_distance
_ccdc_geom_bond_type
C41   H10   1.110296 S    
C61   H35   1.086473 S    
C40   O14   1.382581 S    
C43   C47   1.555594 S    
N2    C27   1.367121 A    
C21   C22   1.394517 A    
C42   C46   1.584308 S    
C12   C15   1.404837 A    
C4    C17   1.479731 S    
C8    H4    1.079350 S    
O21   H30   0.989034 S    
C10   O17   1.380827 S    
O29   H38   0.990071 S    
C30   C31   1.402943 A    
C7    H5    1.082941 S    
Cu1   O7    1.944017 S    
C64   O30   1.220851 D    
C42   C56   1.519591 S    
C56   H25   1.085597 S    
C48   O20   1.409108 S    
O4    C2    1.313801 A    
C22   C23   1.419557 A    
H18   C51   1.106105 S    
C52   N4    1.503682 S    
C58   O19   1.222547 D    
C24   C25   1.408994 A    
O7    C4    1.309655 A    
C15   C37   1.394473 A    
C5    C13   1.404961 A    
C21   H3    1.080829 S    
C57   H27   1.083030 S    
C5    O9    1.350009 S    
C55   H24   1.084105 S    
C37   C40   1.402944 A    
C54   C62   1.548675 S    
C59   H31   1.080503 S    
C5    N1    1.368424 A    
C23   C27   1.419481 A    
O5    C3    1.305163 A    
O17   H26   0.991765 S    
C53   C61   1.528571 S    
C31   C32   1.393345 A    
C2    C16   1.466266 S    
C49   C59   1.516951 S    
C59   O22   1.220403 D    
C45   C58   1.529193 S    
C43   H14   1.112848 S    
C45   C57   1.537774 S    
C45   C48   1.608709 S    
C54   N4    1.526797 S    
C22   C64   1.478676 S    
H19   C52   1.106178 S    
C19   C38   1.414083 A    
C38   C39   1.385971 A    
C56   O16   1.219002 D    
O1    Cu1   1.988536 S    
C9    C10   1.405594 A    
C35   C40   1.428703 A    
O3    Cu1   1.945205 S    
C30   O13   1.378938 S    
O20   H29   0.993506 S    
C50   H17   1.099168 S    
C34   C35   1.425118 A    
C60   O23   1.220676 D    
C12   C34   1.419487 A    
C17   C29   1.418361 A    
C18   C21   1.407782 A    
Cu1   Cu2   2.731666 S    
C12   C13   1.406912 A    
C31   H9    1.083284 S    
C49   H16   1.101791 S    
C51   N3    1.499796 S    
C25   C26   1.398216 A    
C44   H13   1.112361 S    
C47   C48   1.573950 S    
C63   H37   1.074302 S    
C27   O10   1.346813 S    
C8    C16   1.399484 A    
C13   C14   1.395444 A    
C9    H1    1.081080 S    
C26   O12   1.350192 S    
O1    C1    1.309226 A    
C18   C20   1.412635 A    
C7    C11   1.401928 A    
C28   C29   1.417270 A    
C23   C24   1.419541 A    
C14   C36   1.395177 A    
Cu2   O8    1.944905 S    
C33   C36   1.431320 A    
Cu1   N4    2.052193 S    
O14   H23   0.992071 S    
N1    C6    1.368742 A    
N2    C32   1.434928 S    
N1    C11   1.438462 S    
C45   C46   1.607305 S    
C28   O29   1.380711 S    
C53   O24   1.416917 S    
C26   N2    1.362994 A    
C9    C16   1.401912 A    
C53   N3    1.527681 S    
C14   H2    1.084872 S    
C55   O15   1.221381 D    
C48   O21   1.415059 S    
O3    C2    1.308292 A    
C19   C35   1.428100 A    
C1    C46   1.501924 S    
C51   C52   1.584398 S    
C62   H36   1.086172 S    
Cu1   O5    1.983176 S    
C41   C46   1.585975 S    
C3    C47   1.494971 S    
C61   O26   1.214559 D    
C20   C24   1.424762 A    
Cu2   O6    1.988966 S    
O2    Cu2   1.982746 S    
C6    C15   1.404993 A    
C65   O31   1.221370 D    
C49   C50   1.592487 S    
O6    C3    1.312851 A    
O4    Cu2   1.944317 S    
C60   H32   1.085317 S    
C54   O25   1.418428 S    
C29   C63   1.480634 S    
C64   H39   1.084093 S    
C50   C60   1.524052 S    
C38   H7    1.075503 S    
C39   H8    1.083479 S    
C41   C55   1.507847 S    
C7    C8    1.392916 A    
O2    C1    1.309395 A    
O8    C4    1.315471 A    
C51   H20   1.106751 S    
C58   H28   1.078269 S    
C44   H15   1.108891 S    
C41   C43   1.542022 S    
C57   O18   1.221410 D    
C65   H40   1.085991 S    
C25   C39   1.394157 A    
C52   H21   1.107191 S    
C36   C65   1.484627 S    
C19   C20   1.423102 A    
C42   C44   1.538457 S    
C49   N3    1.518151 S    
O13   H22   0.991861 S    
C18   C33   1.422515 A    
C6    O11   1.349898 S    
C50   N4    1.508829 S    
Cu2   N3    2.051956 S    
C53   C54   1.623508 S    
C63   O28   1.221085 D    
C33   C34   1.422368 A    
C17   C30   1.409209 A    
C37   H6    1.083771 S    
C10   C11   1.407624 A    
C43   H12   1.112880 S    
C42   H11   1.108452 S    
O24   H33   0.989030 S    
C28   C32   1.400377 A    
C44   C47   1.551964 S    
O25   H34   0.983710 S    
C62   O27   1.220396 D    
