data_mof_unit_46297.cif
_audit_creation_date              2012-12-11T16:08:47-0500
_audit_creation_method            fapswitch 2.2
_symmetry_space_group_name_H-M    P1
_symmetry_Int_Tables_number       1
_space_group_crystal_system       triclinic
_cell_length_a                    12.890589
_cell_length_b                    13.247524
_cell_length_c                    27.775925
_cell_angle_alpha                 94.77839
_cell_angle_beta                  90.051825
_cell_angle_gamma                 118.898818
_cell_volume                      4133.55310475

loop_
_atom_site_label
_atom_site_type_symbol
_atom_type_description
_atom_site_fract_x
_atom_site_fract_y
_atom_site_fract_z
_atom_type_partial_charge
C1    C     C_R   0.627356 0.896982 0.426778 0.540673
C2    C     C_R   0.550863 0.244388 0.213522 -0.099926
C3    C     C_R   0.534782 0.217754 0.261466 -0.100111
C4    C     C_R   0.632637 0.247545 0.292821 0.037218
C5    C     C_R   0.665118 0.300623 0.196237 0.018881
C6    C     C_1   0.682582 0.341082 0.148655 -0.049035
C7    C     C_1   0.611908 0.222693 0.342777 -0.057594
C8    C     C_1   0.697874 0.381893 0.110287 -0.002136
C9    C     C_R   0.219397 0.767665 0.344942 -0.125640
C10   C     C_R   0.212586 0.766269 0.295255 0.018061
C11   C     C_R   0.194774 0.758447 0.195166 0.019513
C12   C     C_R   0.571595 0.170168 0.433142 0.564270
C13   C     C_R   0.213713 0.676307 0.216327 -0.126649
C14   C     C_R   0.221371 0.679603 0.266177 -0.131554
C15   C     C_R   0.171309 0.745305 0.145741 -0.125883
C16   C     C_R   0.134074 0.815670 0.125151 -0.011011
C17   C     C_R   0.212468 0.947902 0.354641 -0.118421
C18   C     C_R   0.198763 0.945301 0.304142 -0.004769
C19   C     C_R   0.200930 0.854212 0.274493 0.032775
C20   C     C_R   0.187641 0.033003 0.282545 0.099677
C21   C     C_R   0.173716 0.026340 0.231619 0.099902
C22   C     C_R   0.170669 0.931874 0.202508 -0.003432
C23   C     C_R   0.271911 0.877626 0.424743 0.538703
C24   C     C_R   0.190208 0.849306 0.224072 0.032916
C25   C     C_R   0.141358 0.913002 0.152607 -0.113063
C26   C     C_R   0.225272 0.860810 0.374888 -0.010991
C27   C     C_R   0.741299 0.952063 0.353799 -0.125086
C28   C     C_R   0.742877 0.942693 0.303825 0.008213
C29   C     C_R   0.742371 0.926281 0.203149 0.011392
C30   C     C_R   0.825863 0.027714 0.230116 -0.109104
C31   C     C_R   0.827734 0.034889 0.280281 -0.113701
C32   C     C_R   0.749265 0.913868 0.153445 -0.120038
C33   C     C_R   0.678604 0.806178 0.127209 -0.006215
C34   C     C_R   0.627344 0.898858 0.564850 0.538356
C35   C     C_R   0.563990 0.763430 0.351019 -0.129910
C36   C     C_R   0.567865 0.750215 0.300691 0.013422
C37   C     C_R   0.655526 0.841864 0.277009 0.063216
C38   C     C_R   0.483700 0.649097 0.273456 -0.124867
C39   C     C_R   0.487800 0.638129 0.223094 -0.125208
C40   C     C_R   0.574579 0.729172 0.199381 0.011319
C41   C     C_R   0.656589 0.832777 0.226473 0.063276
C42   C     C_R   0.586382 0.716166 0.149540 -0.134076
C43   C     C_R   0.648459 0.866063 0.377441 -0.002410
C44   C     C_R   0.650769 0.167248 0.661950 -0.144028
C45   C     C_R   0.573985 0.175888 0.582333 0.554506
C46   C     C_R   0.670755 0.201172 0.711379 0.012480
C47   C     C_R   0.706684 0.267707 0.811532 0.027550
C48   C     C_R   0.734065 0.183220 0.790859 -0.109701
C49   C     C_R   0.716293 0.150419 0.741248 -0.136183
C50   C     C_R   0.722916 0.302225 0.861697 0.059425
C51   C     C_R   0.692766 0.386722 0.879609 0.023076
C52   C     C_R   0.576984 0.302424 0.652473 -0.105486
C53   C     C_R   0.595451 0.337340 0.701488 0.012193
C54   C     C_R   0.642829 0.286190 0.731279 0.038288
C55   C     C_R   0.566148 0.420922 0.721494 0.081079
C56   C     C_R   0.271966 0.879672 0.563558 0.542440
C57   C     C_R   0.585955 0.454337 0.770653 -0.101287
C58   C     C_R   0.632263 0.403863 0.800140 -0.026119
C59   C     C_R   0.660903 0.319277 0.781008 0.030704
C60   C     C_R   0.649171 0.437034 0.848841 -0.147755
C61   C     C_R   0.602700 0.217006 0.632916 -0.005925
C62   C     C_1   0.224095 0.863703 0.610599 -0.012884
C63   C     C_R   0.085749 0.744192 0.718909 -0.113403
C64   C     C_R   0.070088 0.734605 0.768432 -0.111958
C65   C     C_R   0.233355 0.929764 0.786165 -0.102029
C66   C     C_R   0.248741 0.939531 0.736570 -0.113708
C67   C     C_1   0.594545 0.200831 0.384319 -0.010076
C68   C     C_R   0.175043 0.846696 0.702852 0.021662
C69   C     C_R   0.144397 0.826928 0.802189 0.030791
C70   C     C_1   0.126300 0.815045 0.852993 -0.052109
C71   C     C_1   0.196863 0.854559 0.652145 -0.063324
C72   C     C_1   0.101768 0.797740 0.894458 -0.003822
C73   C     C_1   0.646060 0.863938 0.609932 -0.014763
C74   C     C_R   0.783849 0.841235 0.718387 0.021437
C75   C     C_R   0.792919 0.823062 0.766979 -0.092144
C76   C     C_R   0.588009 0.775167 0.777276 -0.099060
C77   C     C_R   0.577466 0.791951 0.728987 -0.093054
C78   C     C_R   0.748861 0.301630 0.275581 0.020501
C79   C     C_R   0.674143 0.823721 0.699245 0.056218
C80   C     C_R   0.695575 0.790517 0.796267 0.018718
C81   C     C_1   0.707941 0.775957 0.846203 -0.060170
C82   C     C_1   0.659618 0.842680 0.649993 -0.049973
C83   C     C_1   0.722830 0.765686 0.887898 -0.008626
C84   C     C_R   0.066386 0.773352 0.078753 0.547568
C85   C     C_R   0.716561 0.440147 0.067055 0.558478
C86   C     C_R   0.719521 0.782738 0.080709 0.559357
C87   C     C_R   0.056857 0.766288 0.941244 0.537561
C88   C     C_R   0.710111 0.432982 0.929670 0.564418
C89   C     C_R   0.763401 0.327865 0.226879 -0.083816
C90   C     C_R   0.747648 0.755633 0.936933 0.553417
Cr1   Cr    Cr6+3 0.416430 0.829200 0.492370 1.030294
Cr2   Cr    Cr6+3 0.674630 0.087020 0.504170 1.031358
Cr3   Cr    Cr6+3 0.408920 0.083740 0.503490 1.039563
Cr4   Cr    Cr6+3 0.914010 0.832750 0.013970 1.046872
Cr5   Cr    Cr6+3 0.922310 0.578600 0.003000 1.060154
Cr6   Cr    Cr6+3 0.656280 0.574630 0.003870 1.037789
H1    H     H_    0.218499 0.019140 0.378621 0.172175
H2    H     H_    0.818622 0.984676 0.136095 0.150187
H3    H     H_    0.807117 0.031558 0.373837 0.142731
H4    H     H_    0.891936 0.099913 0.212437 0.145887
H5    H     H_    0.895087 0.112611 0.300653 0.138095
H6    H     H_    0.530274 0.633473 0.129097 0.134231
H7    H     H_    0.423970 0.558214 0.202770 0.129482
H8    H     H_    0.415677 0.578138 0.291123 0.121918
H9    H     H_    0.850656 0.372404 0.212594 0.111030
H10   H     H_    0.492296 0.696816 0.369231 0.128607
H11   H     H_    0.669824 0.100629 0.646199 0.116198
H12   H     H_    0.769161 0.141530 0.812482 0.158406
H13   H     H_    0.737714 0.084872 0.726259 0.114927
H14   H     H_    0.629173 0.504327 0.863020 0.130705
H15   H     H_    0.563312 0.518768 0.785984 0.142731
H16   H     H_    0.542179 0.341161 0.629035 0.186046
H17   H     H_    0.028827 0.671673 0.693227 0.125831
H18   H     H_    0.474284 0.223739 0.190284 0.148555
H19   H     H_    0.000398 0.654943 0.780432 0.122967
H20   H     H_    0.290948 0.001843 0.811889 0.125242
H21   H     H_    0.318913 0.018856 0.724525 0.119977
H22   H     H_    0.876481 0.836280 0.782299 0.114872
H23   H     H_    0.512525 0.750696 0.799813 0.130181
H24   H     H_    0.493615 0.780172 0.714762 0.135684
H25   H     H_    0.445769 0.175743 0.274438 0.150282
H26   H     H_    0.169527 0.672153 0.124285 0.136828
H27   H     H_    0.229691 0.699905 0.360031 0.132119
H28   H     H_    0.218173 0.607011 0.194387 0.114860
H29   H     H_    0.233892 0.614151 0.282036 0.105647
H30   H     H_    0.114426 0.967432 0.135475 0.172088
O1    O     O_R   0.296680 0.802170 0.437540 -0.518983
O2    O     O_R   0.662610 0.183990 0.557860 -0.480908
O3    O     O_R   0.500730 0.201280 0.562180 -0.503924
O4    O     O_R   0.312500 0.978850 0.548170 -0.509900
O5    O     O_3   0.499990 0.999990 0.500010 -0.291327
O6    O     O_R   0.820790 0.857990 0.068830 -0.506848
O7    O     O_R   0.016700 0.827330 0.062850 -0.498048
O8    O     O_R   0.041970 0.673520 0.060040 -0.514510
O9    O     O_R   0.817980 0.483660 0.048840 -0.484299
O10   O     O_R   0.637200 0.461990 0.052510 -0.503832
O11   O     O_R   0.664790 0.681920 0.057970 -0.496621
O12   O     O_R   0.525380 0.838530 0.443500 -0.501134
O13   O     O_R   0.815840 0.852920 0.961840 -0.483123
O14   O     O_R   0.012100 0.822630 0.963670 -0.510862
O15   O     O_R   0.037010 0.668460 0.953040 -0.496227
O16   O     O_R   0.813390 0.478970 0.949660 -0.473969
O17   O     O_R   0.632250 0.456930 0.945520 -0.524630
O18   O     O_R   0.660200 0.677230 0.958780 -0.494639
O19   O     O_3   0.830870 0.661990 0.006950 -0.278661
O20   O     O_R   0.702130 0.995190 0.446810 -0.523967
O21   O     O_R   0.661770 0.181390 0.458760 -0.487133
O22   O     O_R   0.499820 0.198480 0.455280 -0.480829
O23   O     O_R   0.311660 0.976250 0.449080 -0.513166
O24   O     O_R   0.297580 0.804960 0.544440 -0.494829
O25   O     O_R   0.526220 0.841130 0.542590 -0.483122
O26   O     O_R   0.703030 0.997990 0.553710 -0.521663
C91   C     C_3   0.853865 0.333260 0.310333 -0.255861
C92   C     C_3   0.974572 0.375520 0.287364 -0.318168
C93   C     C_3   0.070802 0.396397 0.325073 -0.427424
H31   H     H_    0.084835 0.468487 0.352424 0.149738
H32   H     H_    0.045358 0.317058 0.343549 0.187856
H33   H     H_    0.155340 0.419497 0.307172 0.171759
H34   H     H_    0.968876 0.309466 0.258477 0.179040
H35   H     H_    0.000489 0.458187 0.271432 0.167700
H36   H     H_    0.860266 0.401340 0.338336 0.160384
H37   H     H_    0.834954 0.255358 0.328886 0.145743
I1    I     I_    0.162419 0.161957 0.198726 -0.456555
I2    I     I_    0.191275 0.175841 0.326512 -0.446804
I3    I     I_    0.785957 0.225854 0.910989 -0.365309
I4    I     I_    0.486675 0.497477 0.681097 -0.435419
C94   C     C_3   0.892280 0.881867 0.688402 -0.257090
C95   C     C_3   0.949296 0.012398 0.683918 -0.303053
C96   C     C_3   0.061845 0.055020 0.655562 -0.426058
H38   H     H_    0.129292 0.042106 0.674917 0.164466
H39   H     H_    0.041778 0.007682 0.618888 0.162983
H40   H     H_    0.099202 0.148906 0.651775 0.167508
H41   H     H_    0.886125 0.032381 0.665196 0.170726
H42   H     H_    0.972252 0.060167 0.720593 0.171752
H43   H     H_    0.958616 0.863835 0.705593 0.153383
H44   H     H_    0.867767 0.832768 0.652012 0.159915

loop_
_geom_bond_atom_site_label_1
_geom_bond_atom_site_label_2
_ccdc_geom_bond_type
C66   C68   A    
C45   O3    A    
C21   I1    S    
C15   H26   S    
C93   H32   S    
Cr4   O14   S    
C96   H38   S    
Cr3   O23   S    
C35   C36   A    
Cr5   O19   S    
C90   O18   A    
C87   O14   A    
C33   C86   S    
C77   H24   S    
C90   O13   A    
Cr6   O10   S    
C48   H12   S    
C53   C54   A    
C95   H42   S    
Cr6   O19   S    
C46   C49   A    
C27   H3    S    
C14   H29   S    
Cr1   O1    S    
C5    C6    S    
C33   C42   A    
C31   H5    S    
C12   O21   A    
C49   H13   S    
C36   C37   A    
C8    C85   S    
C29   C32   A    
C2    C3    A    
C52   C61   A    
C38   C39   A    
C65   C69   A    
C11   C13   A    
Cr1   O5    S    
C52   H16   S    
C45   O2    A    
C58   C60   A    
C15   C16   A    
C20   I2    S    
C30   H4    S    
C11   C24   A    
C16   C84   S    
Cr4   O7    S    
Cr3   O22   S    
C18   C19   A    
C23   C26   S    
C38   H8    S    
C86   O11   A    
C9    H27   S    
C11   C15   A    
C1    C43   S    
C66   H21   S    
Cr2   O26   S    
C35   C43   A    
C75   C80   A    
C88   O17   A    
C18   C20   A    
C27   C28   A    
Cr4   O19   S    
C40   C42   A    
C23   O23   A    
C94   C95   S    
C64   H19   S    
C21   C22   A    
Cr2   O21   S    
Cr4   O13   S    
C96   H39   S    
C1    O20   A    
C75   H22   S    
C4    C7    S    
Cr3   O3    S    
Cr2   O2    S    
C88   O16   A    
C74   C94   S    
C81   C83   T    
C44   C46   A    
C9    C26   A    
C50   C51   A    
C47   C50   A    
C54   C59   A    
C53   C55   A    
C78   C89   A    
C95   H41   S    
C12   C67   S    
C84   O7    A    
C76   H23   S    
C74   C75   A    
Cr2   O20   S    
Cr2   O5    S    
C76   C77   A    
C10   C14   A    
C39   C40   A    
C13   H28   S    
C34   O26   A    
C6    C8    T    
C85   O10   A    
C58   C59   A    
C47   C59   A    
C22   C25   A    
Cr5   O8    S    
Cr4   O6    S    
C3    C4    A    
C91   H36   S    
C25   H30   S    
C92   H35   S    
C29   C30   A    
Cr6   O18   S    
Cr1   O12   S    
C47   C48   A    
C10   C19   A    
C84   O8    A    
C46   C54   A    
C50   I3    S    
Cr5   O9    S    
C17   C18   A    
C77   C79   A    
C64   C69   A    
C87   O15   A    
C92   C93   S    
C85   O9    A    
C40   C41   A    
Cr5   O15   S    
C74   C79   A    
C55   C57   A    
C96   H40   S    
C22   C24   A    
C2    C5    A    
C17   C26   A    
C56   O24   A    
Cr3   O4    S    
C73   C82   T    
Cr6   O11   S    
C72   C87   S    
C52   C53   A    
C23   O1    A    
C9    C10   A    
C44   H11   S    
C16   C25   A    
C83   C90   S    
C63   C68   A    
C95   C96   S    
C29   C41   A    
C28   C31   A    
C76   C80   A    
C80   C81   S    
C51   C88   S    
C79   C82   S    
C34   O25   A    
C78   C91   S    
C39   H7    S    
C44   C61   A    
C4    C78   A    
C91   H37   S    
C32   C33   A    
C12   O22   A    
C36   C38   A    
Cr1   O24   S    
C92   H34   S    
C35   H10   S    
Cr3   O5    S    
C42   H6    S    
Cr6   O17   S    
Cr1   O25   S    
C2    H18   S    
C30   C31   A    
C86   O6    A    
C57   C58   A    
C57   H15   S    
C28   C37   A    
C68   C71   S    
C48   C49   A    
C45   C61   S    
C65   H20   S    
C32   H2    S    
C62   C71   T    
C19   C24   A    
C94   H43   S    
C56   C62   S    
C37   C41   A    
C69   C70   S    
C56   O4    A    
C60   H14   S    
C34   C73   S    
C7    C67   T    
C63   C64   A    
C63   H17   S    
C27   C43   A    
C20   C21   A    
Cr5   O16   S    
C65   C66   A    
C89   H9    S    
C93   H31   S    
C70   C72   T    
C51   C60   A    
C55   I4    S    
C91   C92   S    
C13   C14   A    
C17   H1    S    
C5    C89   A    
C1    O12   A    
C3    H25   S    
C94   H44   S    
C93   H33   S    
