data_mof_unit_29312.cif
_audit_creation_date              2012-12-10T16:49:21-0500
_audit_creation_method            fapswitch 2.2
_symmetry_space_group_name_H-M    P1
_symmetry_Int_Tables_number       1
_space_group_crystal_system       triclinic
_cell_length_a                    8.240055
_cell_length_b                    9.013635
_cell_length_c                    12.73974
_cell_angle_alpha                 87.229607
_cell_angle_beta                  85.835701
_cell_angle_gamma                 92.926797
_cell_volume                      941.200410489

loop_
_atom_site_label
_atom_site_type_symbol
_atom_type_description
_atom_site_fract_x
_atom_site_fract_y
_atom_site_fract_z
_atom_type_partial_charge
C1    C     C_R   0.456813 0.208625 0.499959 0.862917
C2    C     C_R   0.667529 0.611273 0.131876 -0.043677
C3    C     C_R   0.523312 0.598850 0.869124 -0.334300
C4    C     C_R   0.488531 0.393427 0.127834 -0.354077
C5    C     C_R   0.535836 0.566688 0.975432 0.182082
C6    C     C_R   0.468850 0.428648 0.022136 0.184076
C7    C     C_2   0.434743 0.046194 0.503916 -0.245884
C8    C     C_2   0.562332 0.954310 0.500805 -0.233591
C9    C     C_R   0.837721 0.577070 0.130075 0.187505
C10   C     C_R   0.884309 0.440881 0.091003 -0.090138
C11   C     C_R   0.031514 0.387130 0.114520 -0.203877
C12   C     C_R   0.542298 0.791603 0.502852 0.853473
C13   C     C_R   0.130952 0.469918 0.175001 -0.093878
C14   C     C_R   0.100131 0.616216 0.195922 -0.150151
C15   C     C_R   0.950181 0.670355 0.173958 -0.216420
C16   C     C_R   0.161349 0.434293 0.862529 0.187950
C17   C     C_R   0.044264 0.343665 0.819146 -0.224075
C18   C     C_R   0.901889 0.405714 0.789608 -0.139940
C19   C     C_R   0.885129 0.559132 0.796747 -0.068663
C20   C     C_R   0.990736 0.644227 0.851787 -0.208317
C21   C     C_R   0.126243 0.580690 0.887986 -0.074934
C22   C     C_R   0.277555 0.992472 0.474858 0.191043
C23   C     C_R   0.464936 0.502640 0.698614 0.844201
C24   C     C_R   0.165909 0.916770 0.549125 -0.133471
C25   C     C_R   0.036035 0.835194 0.513165 -0.065353
C26   C     C_R   0.011169 0.840647 0.404957 -0.095992
C27   C     C_R   0.121478 0.920118 0.332374 -0.189251
C28   C     C_R   0.256105 0.993869 0.367012 -0.120901
C29   C     C_R   0.720878 0.016199 0.460151 0.176170
C30   C     C_R   0.829387 0.070749 0.529969 -0.094423
C31   C     C_R   0.960294 0.164687 0.490670 -0.084749
C32   C     C_R   0.977765 0.212125 0.383935 -0.019308
C33   C     C_R   0.867879 0.157449 0.314925 -0.138840
C34   C     C_R   0.535609 0.496260 0.300735 0.845202
C35   C     C_R   0.741237 0.057772 0.352346 -0.180165
C36   C     C_R   0.563966 0.500169 0.186093 -0.070243
C37   C     C_R   0.440320 0.496312 0.812168 -0.072552
C38   C     C_R   0.368526 0.338122 0.965212 -0.259559
C39   C     C_R   0.628401 0.661986 0.032891 -0.259376
C40   C     C_R   0.329576 0.391432 0.866279 -0.041617
H1    H     H_    0.433401 0.291196 0.166339 0.126654
H2    H     H_    0.186660 0.680786 0.236826 0.170769
H3    H     H_    0.915211 0.778649 0.196288 0.114639
H4    H     H_    0.067704 0.229968 0.801682 0.115411
H5    H     H_    0.814068 0.337728 0.751620 0.159128
H6    H     H_    0.796171 0.616683 0.756796 0.163710
H7    H     H_    0.972353 0.761017 0.861378 0.116432
H8    H     H_    0.211365 0.650265 0.927142 0.138189
H9    H     H_    0.185967 0.912743 0.632299 0.107118
H10   H     H_    0.951026 0.773723 0.569871 0.151299
H11   H     H_    0.903963 0.785818 0.377634 0.149682
H12   H     H_    0.579362 0.700539 0.830701 0.126217
H13   H     H_    0.102310 0.929569 0.249563 0.119876
H14   H     H_    0.344306 0.051685 0.310018 0.094366
H15   H     H_    0.810737 0.042939 0.613850 0.090422
H16   H     H_    0.048549 0.198563 0.544230 0.133279
H17   H     H_    0.080076 0.285538 0.354743 0.136934
H18   H     H_    0.880344 0.187777 0.232414 0.127636
H19   H     H_    0.653792 0.019256 0.298772 0.107120
H20   H     H_    0.300037 0.242596 0.003780 0.131003
H21   H     H_    0.698739 0.755942 0.992891 0.136827
H22   H     H_    0.015304 0.567462 0.399142 0.198011
H23   H     H_    0.989762 0.417801 0.596174 0.190370
H24   H     H_    0.801773 0.370730 0.050317 0.141608
H25   H     H_    0.060130 0.275662 0.094932 0.115360
H26   H     H_    0.223440 0.415602 0.211897 0.165508
N1    N     N_2   0.054030 0.541640 0.471970 -0.209158
N2    N     N_2   0.945970 0.458360 0.528030 -0.217125
O1    O     O_R   0.609680 0.261530 0.506880 -0.586746
O2    O     O_R   0.390320 0.738470 0.493120 -0.583581
O3    O     O_R   0.323330 0.288220 0.488910 -0.648338
O4    O     O_R   0.676670 0.711780 0.511090 -0.649577
O5    O     O_R   0.619510 0.488830 0.661140 -0.643670
O6    O     O_R   0.380490 0.511170 0.338860 -0.639090
O7    O     O_R   0.333160 0.515520 0.643180 -0.605101
O8    O     O_R   0.666840 0.484480 0.356820 -0.600555
Zn1   Zn    Zn3+2 0.691200 0.482180 0.511990 0.921329
Zn2   Zn    Zn3+2 0.308800 0.517820 0.488010 0.927148

loop_
_geom_bond_atom_site_label_1
_geom_bond_atom_site_label_2
_ccdc_geom_bond_type
C4    C36   A    
C16   C21   A    
O2    Zn2   S    
O1    Zn1   S    
C19   C20   A    
C19   H6    S    
C7    C8    D    
C26   C27   A    
C33   H18   S    
H22   N1    S    
C8    C29   S    
C37   C40   A    
C5    C6    A    
C4    H1    S    
C24   H9    S    
C35   H19   S    
C18   C19   A    
C25   H10   S    
O4    Zn1   S    
C2    C39   A    
C16   C17   A    
C6    C38   A    
C31   H16   S    
C9    C10   A    
C14   H2    S    
C21   H8    S    
C12   O4    A    
C22   C28   A    
C13   C14   A    
N1    Zn2   S    
C32   H17   S    
C23   O5    A    
C13   H26   S    
C39   H21   S    
N1    N2    D    
O8    Zn1   S    
C4    C6    A    
C28   H14   S    
C25   C26   A    
C23   C37   S    
C1    O1    A    
C29   C30   A    
C31   C32   A    
C8    C12   S    
C17   C18   A    
C1    O3    A    
C24   C25   A    
C16   C40   S    
C38   H20   S    
C34   O6    A    
C5    C39   A    
C22   C24   A    
C18   H5    S    
C2    C36   A    
N2    Zn1   S    
C12   O2    A    
H23   N2    S    
C1    C7    S    
C10   H24   S    
C23   O7    A    
C3    C5    A    
C3    H12   S    
C27   H13   S    
C7    C22   S    
C30   H15   S    
C29   C35   A    
C32   C33   A    
C9    C15   A    
C17   H4    S    
C15   H3    S    
C26   H11   S    
C38   C40   A    
C11   C13   A    
C30   C31   A    
C33   C35   A    
C34   C36   S    
O7    Zn2   S    
C20   H7    S    
C10   C11   A    
C20   C21   A    
C3    C37   A    
O6    Zn2   S    
C27   C28   A    
O5    Zn1   S    
C14   C15   A    
C2    C9    S    
O3    Zn2   S    
C11   H25   S    
C34   O8    A    
