data_mof_unit_36080.cif
_audit_creation_date              2012-12-10T20:39:55-0500
_audit_creation_method            fapswitch 2.2
_symmetry_space_group_name_H-M    P1
_symmetry_Int_Tables_number       1
_space_group_crystal_system       triclinic
_cell_length_a                    23.304009
_cell_length_b                    10.724001
_cell_length_c                    9.906983
_cell_angle_alpha                 91.188659
_cell_angle_beta                  91.677588
_cell_angle_gamma                 90.219237
_cell_volume                      2474.25797518

loop_
_atom_site_label
_atom_site_type_symbol
_atom_type_description
_atom_site_fract_x
_atom_site_fract_y
_atom_site_fract_z
_atom_type_partial_charge
C1    C     C_R   0.502141 0.260562 0.498771 0.921835
C2    C     C_R   0.966994 0.347050 0.308117 0.209697
C3    C     C_R   0.026581 0.353911 0.305832 -0.242628
C4    C     C_R   0.058117 0.414368 0.410090 -0.032326
C5    C     C_R   0.030084 0.466448 0.522314 -0.061451
C6    C     C_R   0.062476 0.526728 0.627881 -0.064102
C7    C     C_R   0.034434 0.575260 0.742384 0.167789
C8    C     C_R   0.974173 0.568158 0.748142 -0.078212
C9    C     C_R   0.117676 0.423284 0.404501 0.554547
C10   C     C_R   0.122394 0.536775 0.614321 0.518844
C11   C     C_R   0.236462 0.595714 0.467076 -0.241531
C12   C     C_R   0.389810 0.499848 0.498295 0.953724
C13   C     C_R   0.295940 0.601303 0.464619 -0.096934
C14   C     C_R   0.327965 0.494019 0.494504 -0.115975
C15   C     C_R   0.300831 0.381024 0.525647 0.064959
C16   C     C_R   0.240676 0.377578 0.532314 0.193997
C17   C     C_R   0.209115 0.485251 0.501438 0.251126
C18   C     C_R   0.755854 0.367763 0.555437 -0.135082
C19   C     C_R   0.696777 0.379201 0.545724 -0.257958
C20   C     C_R   0.672197 0.492102 0.507121 -0.070507
C21   C     C_R   0.706572 0.594895 0.474826 0.123141
C22   C     C_R   0.766697 0.581306 0.479810 0.178366
C23   C     C_R   0.503156 0.739282 0.501185 0.903709
C24   C     C_R   0.790641 0.468185 0.523116 0.267190
C25   C     C_R   0.477188 0.065138 0.596280 0.023983
C26   C     C_R   0.504265 0.128495 0.495185 -0.147469
C27   C     C_R   0.531799 0.063071 0.390495 0.129663
C28   C     C_R   0.534247 0.933051 0.394780 -0.076690
C29   C     C_R   0.507787 0.871266 0.501723 -0.201634
C30   C     C_R   0.478775 0.938266 0.599966 0.023592
C31   C     C_3   0.484623 0.939998 0.752003 0.208777
C32   C     C_3   0.482305 0.081766 0.746366 -0.480699
C33   C     C_R   0.452723 0.537377 0.068608 0.037536
C34   C     C_R   0.610353 0.500007 0.501825 0.903459
C35   C     C_R   0.546773 0.462097 0.075101 -0.145933
C36   C     C_R   0.546214 0.457639 0.931983 0.014502
C37   C     C_R   0.453760 0.543324 0.926379 0.056052
C38   C     C_3   0.393483 0.495988 0.908467 -0.083801
C39   C     C_3   0.393972 0.475773 0.061967 0.338283
C40   C     C_R   0.880961 0.502561 0.640134 0.544683
C41   C     C_R   0.877764 0.400159 0.423679 0.526013
C42   C     C_R   0.937877 0.400670 0.418740 -0.042595
C43   C     C_R   0.969768 0.458891 0.527579 -0.070688
C44   C     C_R   0.941424 0.509981 0.640713 -0.089118
H1    H     H_    0.670045 0.299807 0.568172 0.161557
H2    H     H_    0.442719 0.123794 0.787454 0.210894
H3    H     H_    0.522809 0.129799 0.780262 0.187607
H4    H     H_    0.583881 0.429147 0.131922 0.167337
H5    H     H_    0.048016 0.312724 0.220202 0.188092
H6    H     H_    0.391050 0.410184 0.843586 0.176362
H7    H     H_    0.211051 0.677481 0.444184 0.168717
H8    H     H_    0.774798 0.280497 0.586538 0.155299
N1    N     N_R   0.851400 0.454338 0.530405 -0.338392
N2    N     N_R   0.148126 0.482766 0.506083 -0.332311
N3    N     N_R   0.499610 0.499140 0.142800 -0.111656
N4    N     N_R   0.499610 0.499180 0.857150 -0.127075
O1    O     O_R   0.500010 0.316790 0.614690 -0.628888
O2    O     O_2   0.845253 0.347796 0.322639 -0.534320
O3    O     O_2   0.145237 0.373479 0.298262 -0.584060
O4    O     O_2   0.155238 0.599097 0.707885 -0.554152
O5    O     O_R   0.500000 0.316760 0.385350 -0.595630
O6    O     O_R   0.416160 0.499980 0.614700 -0.606562
O7    O     O_R   0.416150 0.499940 0.385360 -0.601829
O8    O     O_R   0.500000 0.683240 0.614650 -0.632462
O9    O     O_R   0.499990 0.683210 0.385310 -0.600193
O10   O     O_R   0.583850 0.500060 0.614640 -0.619138
O11   O     O_R   0.583840 0.500020 0.385300 -0.611121
O12   O     O_2   0.851212 0.543541 0.746918 -0.562577
Zn1   Zn    Zn3+2 0.500000 0.500020 0.653130 0.959535
Zn2   Zn    Zn3+2 0.500000 0.499980 0.346870 0.981409
N5    N     N_2   0.937126 0.283918 0.199288 -0.262051
H9    H     H_    0.955901 0.200672 0.171365 0.217343
C45   C     C_3   0.924721 0.360901 0.083932 -0.632482
H10   H     H_    0.965032 0.385536 0.033641 0.193339
H11   H     H_    0.902241 0.447471 0.115385 0.270423
H12   H     H_    0.896456 0.308695 0.010230 0.244472
N6    N     N_2   0.680681 0.711152 0.442129 -0.306890
H13   H     H_    0.702387 0.763089 0.373607 0.239259
C46   C     C_3   0.663650 0.784912 0.558197 -0.755319
H14   H     H_    0.645169 0.874639 0.524527 0.226270
H15   H     H_    0.701240 0.805623 0.626492 0.249658
H16   H     H_    0.630637 0.734952 0.614906 0.256347
N7    N     N_2   0.803716 0.678250 0.438222 -0.317122
H17   H     H_    0.795303 0.710999 0.342605 0.227909
C47   C     C_3   0.818457 0.774183 0.538407 -0.730860
H18   H     H_    0.865510 0.790557 0.539217 0.247317
H19   H     H_    0.806258 0.747214 0.641463 0.274297
H20   H     H_    0.796311 0.862500 0.512728 0.226225
N8    N     N_2   0.560775 0.128708 0.288596 -0.285787
H21   H     H_    0.603877 0.108136 0.283844 0.223256
C48   C     C_3   0.531908 0.125300 0.157244 -0.738423
H22   H     H_    0.538647 0.034179 0.105180 0.236707
H23   H     H_    0.549630 0.199311 0.093887 0.225421
H24   H     H_    0.485189 0.140547 0.167561 0.242219
C49   C     C_1   0.566611 0.865542 0.293922 0.220933
N9    N     N_1   0.592279 0.811796 0.213267 -0.182627
N10   N     N_2   0.434776 0.885776 0.813722 -0.290081
H25   H     H_    0.425722 0.796003 0.780382 0.251064
C50   C     C_3   0.431093 0.902583 0.958795 -0.821615
H26   H     H_    0.386910 0.880790 0.989953 0.236123
H27   H     H_    0.440604 0.000521 0.989820 0.246179
H28   H     H_    0.461678 0.839578 0.011605 0.249357
C51   C     C_1   0.539890 0.890894 0.805037 0.184980
N11   N     N_1   0.583025 0.852506 0.847052 -0.203754
C52   C     C_1   0.593379 0.396537 0.868784 0.225411
N12   N     N_1   0.631642 0.345657 0.820673 -0.209528
N13   N     N_2   0.356235 0.595648 0.860859 -0.294111
H29   H     H_    0.361536 0.681986 0.906826 0.224335
C53   C     C_3   0.297424 0.565553 0.822673 -0.677093
H30   H     H_    0.268297 0.595604 0.903357 0.243628
H31   H     H_    0.291694 0.464516 0.799494 0.229426
H32   H     H_    0.284815 0.619656 0.732999 0.263016
N14   N     N_2   0.352541 0.547815 0.139068 -0.261103
H33   H     H_    0.355497 0.643569 0.133402 0.207061
C54   C     C_3   0.294779 0.499942 0.152447 -0.663516
H34   H     H_    0.265034 0.577640 0.175588 0.220583
H35   H     H_    0.293916 0.433563 0.236304 0.257896
H36   H     H_    0.278788 0.451444 0.059191 0.239914
N15   N     N_2   0.397706 0.344159 0.099498 -0.270818
H37   H     H_    0.437501 0.305734 0.084326 0.211363
C55   C     C_3   0.352347 0.257980 0.055028 -0.826283
H38   H     H_    0.370067 0.162598 0.042497 0.231547
H39   H     H_    0.332118 0.284458 0.957142 0.229598
H40   H     H_    0.319254 0.252145 0.132493 0.263367
N16   N     N_2   0.066924 0.631938 0.851932 -0.256182
H41   H     H_    0.050477 0.714550 0.888927 0.221446
C56   C     C_3   0.084377 0.547446 0.957391 -0.663826
H42   H     H_    0.046587 0.517261 0.014120 0.206591
H43   H     H_    0.115064 0.595715 0.028836 0.243481
H44   H     H_    0.106026 0.464293 0.913965 0.246578
C57   C     C_1   0.947367 0.623439 0.865317 0.244902
N17   N     N_1   0.926301 0.667972 0.958980 -0.189302
C58   C     C_1   0.323377 0.718217 0.434424 0.179937
N18   N     N_1   0.345444 0.811695 0.410321 -0.222746
N19   N     N_2   0.334412 0.272932 0.552571 -0.317473
H45   H     H_    0.319607 0.218152 0.628459 0.234371
C59   C     C_3   0.348832 0.201281 0.433051 -0.776088
H46   H     H_    0.309277 0.169827 0.376761 0.236109
H47   H     H_    0.373679 0.117662 0.462435 0.249638
H48   H     H_    0.375464 0.257938 0.366229 0.273860
N20   N     N_2   0.211187 0.266537 0.566723 -0.293527
H49   H     H_    0.228119 0.185538 0.527103 0.243567
C60   C     C_3   0.198873 0.257333 0.708500 -0.800861
H50   H     H_    0.172761 0.172342 0.724195 0.251378
H51   H     H_    0.174137 0.339313 0.743619 0.262271
H52   H     H_    0.239309 0.251052 0.770114 0.222518

loop_
_geom_bond_atom_site_label_1
_geom_bond_atom_site_label_2
_ccdc_geom_bond_type
O5    Zn2   S    
C33   N3    A    
C60   H52   S    
C4    C9    A    
N13   C53   S    
C41   C42   A    
C49   N9    T    
C34   O10   A    
N10   H25   S    
C3    H5    S    
C18   H8    S    
N19   H45   S    
N6    H13   S    
C59   H47   S    
C26   C27   A    
C29   C30   A    
C28   C49   S    
C18   C24   A    
C5    C6    A    
C23   C29   S    
C28   C29   A    
C41   O2    S    
C53   H31   S    
C30   C31   S    
O10   Zn1   S    
C15   N19   S    
C60   H50   S    
N19   C59   S    
C18   C19   A    
C45   H10   S    
C38   N13   S    
C55   H40   S    
C37   N4    A    
C31   C32   S    
C16   C17   A    
C39   N14   S    
N13   H29   S    
C56   H42   S    
C27   N8    S    
C13   C14   A    
N8    C48   S    
C20   C34   S    
C25   C32   S    
N6    C46   S    
C5    C43   A    
C21   C22   A    
C45   H11   S    
C13   C58   S    
C35   H4    S    
N10   C50   S    
N15   C55   S    
C38   C39   S    
C59   H48   S    
C1    C26   S    
C15   C16   A    
C47   H19   S    
C35   N3    A    
C7    C8    A    
C53   H32   S    
C48   H22   S    
C46   H15   S    
C12   O7    A    
C54   H35   S    
C25   C26   A    
C47   H18   S    
C33   C37   A    
O6    Zn1   S    
C9    O3    S    
C35   C36   A    
C31   C51   S    
C10   O4    S    
C43   C44   A    
C56   H43   S    
C37   C38   S    
C36   N4    A    
C1    O1    A    
C48   H23   S    
C12   O6    A    
N7    H17   S    
O7    Zn2   S    
C54   H36   S    
C8    C57   S    
C33   C39   S    
O8    Zn1   S    
C7    N16   S    
C41   N1    A    
C55   H38   S    
C2    N5    S    
C23   O8    A    
C50   H27   S    
C12   C14   S    
N4    Zn1   S    
C58   N18   T    
C32   H3    S    
C22   C24   A    
C42   C43   A    
C3    C4    A    
C51   N11   T    
N5    C45   S    
N14   H33   S    
C59   H46   S    
C47   H20   S    
C25   C30   A    
C60   H51   S    
C11   C17   A    
N7    C47   S    
C36   C52   S    
C32   H2    S    
C8    C44   A    
C4    C5    A    
C1    O5    A    
C34   O11   A    
C6    C10   A    
C46   H16   S    
N15   H37   S    
C19   H1    S    
C6    C7    A    
C38   H6    S    
C52   N12   T    
C50   H26   S    
O11   Zn2   S    
C22   N7    S    
C23   O9    A    
C19   C20   A    
N20   C60   S    
C16   N20   S    
C24   N1    S    
C56   H44   S    
N5    H9    S    
C53   H30   S    
C48   H24   S    
C11   C13   A    
C54   H34   S    
N16   H41   S    
C2    C42   A    
C39   N15   S    
C45   H12   S    
C2    C3    A    
C31   N10   S    
C57   N17   T    
C10   N2    A    
C55   H39   S    
N3    Zn2   S    
C11   H7    S    
C46   H14   S    
C40   C44   A    
C50   H28   S    
C20   C21   A    
C40   N1    A    
C40   O12   S    
C21   N6    S    
C27   C28   A    
N16   C56   S    
C14   C15   A    
C9    N2    A    
O1    Zn1   S    
N8    H21   S    
N20   H49   S    
C17   N2    S    
O9    Zn2   S    
N14   C54   S    
