data_mof_unit_34550.cif
_audit_creation_date              2012-12-10T18:16:19-0500
_audit_creation_method            fapswitch 2.2
_symmetry_space_group_name_H-M    P1
_symmetry_Int_Tables_number       1
_space_group_crystal_system       triclinic
_cell_length_a                    15.874927
_cell_length_b                    14.668974
_cell_length_c                    10.635992
_cell_angle_alpha                 89.783348
_cell_angle_beta                  90.066618
_cell_angle_gamma                 90.242048
_cell_volume                      2476.7502298

loop_
_atom_site_label
_atom_site_type_symbol
_atom_type_description
_atom_site_fract_x
_atom_site_fract_y
_atom_site_fract_z
_atom_type_partial_charge
C1    C     C_R   0.339722 0.499798 0.499495 0.817576
C2    C     C_3   0.499685 0.500739 0.122184 -0.028888
C3    C     C_3   0.049596 0.591864 0.535534 -0.439439
C4    C     C_3   0.048435 0.424159 0.583502 -0.467429
C5    C     C_3   0.951224 0.427629 0.589898 -0.402710
C6    C     C_3   0.952419 0.594184 0.532053 -0.390575
C7    C     C_1   0.749683 0.500467 0.499645 -0.182217
C8    C     C_3   0.082261 0.497636 0.490748 0.260066
C9    C     C_3   0.917252 0.499464 0.495974 0.263241
C10   C     C_3   0.948792 0.474892 0.362534 -0.505667
C11   C     C_3   0.048899 0.477044 0.354112 0.877190
C12   C     C_1   0.825168 0.500307 0.498587 -0.079774
C13   C     C_1   0.174629 0.498419 0.494423 -0.006152
C14   C     C_R   0.499909 0.500211 0.258656 0.831308
C15   C     C_1   0.250128 0.499185 0.497123 -0.174178
C16   C     C_3   0.590565 0.053633 0.534512 -0.358000
C17   C     C_3   0.590562 0.947030 0.534514 -0.358235
C18   C     C_3   0.475496 0.053528 0.372958 -0.355514
C19   C     C_3   0.475493 0.946965 0.372958 -0.360512
C20   C     C_3   0.501815 0.091861 0.503256 0.228482
C21   C     C_3   0.501812 0.908153 0.503256 0.230620
C22   C     C_3   0.439401 0.946161 0.602314 -0.356941
C23   C     C_3   0.439404 0.052744 0.602315 -0.359586
C24   C     C_1   0.501686 0.804931 0.503066 0.058429
C25   C     C_1   0.501688 0.195073 0.503067 0.062115
C26   C     C_R   0.660123 0.500164 0.500079 0.840509
C27   C     C_R   0.500160 0.499816 0.741061 0.794494
C28   C     C_3   0.488149 0.586102 0.039807 -0.184137
C29   C     C_3   0.437219 0.446132 0.041682 -0.221326
C30   C     C_3   0.425734 0.531376 0.957080 -0.145665
C31   C     C_3   0.500451 0.499470 0.877474 -0.034718
C32   C     C_3   0.563013 0.554818 0.957562 -0.263613
C33   C     C_3   0.511788 0.413669 0.959624 -0.212414
C34   C     C_3   0.572924 0.469598 0.040824 0.485652
Cu1   Cu    Cu3+1 0.499910 0.589920 0.499840 0.964171
Cu2   Cu    Cu3+1 0.499910 0.410080 0.499840 0.974811
H1    H     H_    0.365009 0.556704 0.918934 0.132263
H2    H     H_    0.921290 0.524036 0.294198 0.148011
H3    H     H_    0.920858 0.407649 0.340477 0.149501
H4    H     H_    0.637034 0.922235 0.464409 0.155172
H5    H     H_    0.637037 0.079238 0.464403 0.157072
H6    H     H_    0.411537 0.078499 0.347850 0.155779
H7    H     H_    0.411531 0.921553 0.347852 0.155460
H8    H     H_    0.519532 0.079127 0.299422 0.156928
H9    H     H_    0.519523 0.922171 0.299419 0.153960
H10   H     H_    0.456894 0.077765 0.697508 0.153682
H11   H     H_    0.456887 0.920777 0.697507 0.154412
H12   H     H_    0.374677 0.077699 0.582092 0.156045
H13   H     H_    0.374673 0.920729 0.582089 0.155541
H14   H     H_    0.611250 0.078676 0.628268 0.153537
H15   H     H_    0.611244 0.921667 0.628273 0.154092
H16   H     H_    0.477908 0.656220 0.075436 0.150421
H17   H     H_    0.385633 0.402573 0.079215 0.146382
H18   H     H_    0.613802 0.599285 0.919690 0.126512
H19   H     H_    0.522394 0.343488 0.924467 0.140178
H20   H     H_    0.928072 0.614793 0.625816 0.167831
H21   H     H_    0.931309 0.445168 0.687132 0.182373
H22   H     H_    0.071516 0.604994 0.633339 0.170929
H23   H     H_    0.074820 0.435727 0.679109 0.185480
H24   H     H_    0.068851 0.355093 0.553755 0.194997
H25   H     H_    0.075414 0.647836 0.475927 0.201774
H26   H     H_    0.924633 0.359155 0.568213 0.166330
H27   H     H_    0.931210 0.646208 0.462569 0.176558
N1    N     N_1   0.501390 0.724970 0.502570 -0.151366
N2    N     N_1   0.501390 0.275030 0.502570 -0.149998
O1    O     O_R   0.379360 0.575970 0.499860 -0.573276
O2    O     O_R   0.379360 0.424030 0.499860 -0.570979
O3    O     O_R   0.499910 0.575920 0.316720 -0.588178
O4    O     O_R   0.499910 0.424080 0.316720 -0.563864
O5    O     O_R   0.620490 0.575900 0.499870 -0.574790
O6    O     O_R   0.620490 0.424100 0.499870 -0.567267
O7    O     O_R   0.499950 0.575950 0.683010 -0.575687
O8    O     O_R   0.499950 0.424050 0.683010 -0.587021
O9    O     O_3   0.648374 0.436319 0.094075 -0.619705
C35   C     C_3   0.710030 0.428399 0.999281 0.050498
H28   H     H_    0.728975 0.497248 0.964920 0.137032
H29   H     H_    0.686101 0.387072 0.918914 0.133608
C36   C     C_3   0.787882 0.381447 0.053549 -0.304417
H30   H     H_    0.811553 0.420473 0.135858 0.215740
H31   H     H_    0.770543 0.311676 0.085739 0.218691
C37   C     C_3   0.857871 0.374995 0.955584 -0.988155
H32   H     H_    0.835068 0.338292 0.870862 0.261741
H33   H     H_    0.912053 0.336995 0.995309 0.253588
H34   H     H_    0.879700 0.444265 0.927901 0.251859
O10   O     O_3   0.077749 0.551813 0.278647 -0.646911
C38   C     C_3   0.061265 0.544552 0.148277 0.058835
H35   H     H_    0.042153 0.613179 0.114541 0.150516
H36   H     H_    0.007728 0.499555 0.124130 0.115243
C39   C     C_3   0.141551 0.517997 0.077718 -0.300526
H37   H     H_    0.189584 0.572709 0.089216 0.213220
H38   H     H_    0.168131 0.454255 0.117323 0.236400
C40   C     C_3   0.124151 0.504195 0.937909 -0.987282
H39   H     H_    0.077947 0.447958 0.924394 0.256695
H40   H     H_    0.183558 0.486159 0.889080 0.256331
H41   H     H_    0.098868 0.567696 0.895262 0.256319
O11   O     O_3   0.089786 0.394018 0.317076 -0.642796
C41   C     C_3   0.046427 0.334075 0.234880 0.013179
H42   H     H_    0.091268 0.313530 0.160209 0.167367
H43   H     H_    0.992193 0.363721 0.184641 0.125359
C42   C     C_3   0.019824 0.247942 0.306399 -0.349258
H44   H     H_    0.076845 0.212896 0.342853 0.222229
H45   H     H_    0.979813 0.266149 0.387925 0.209965
C43   C     C_3   0.970821 0.182751 0.221775 -0.931168
H46   H     H_    0.912046 0.215557 0.187805 0.257283
H47   H     H_    0.953684 0.120426 0.275673 0.253881
H48   H     H_    0.009801 0.162719 0.139812 0.254866

loop_
_geom_bond_atom_site_label_1
_geom_bond_atom_site_label_2
_ccdc_geom_bond_type
C11   O11   S    
C33   H19   S    
C8    C13   S    
C37   H34   S    
Cu1   Cu2   S    
C4    C8    S    
C3    C6    S    
C17   H15   S    
C6    C9    S    
C41   H42   S    
Cu2   O2    S    
O10   C38   S    
C7    C26   S    
C2    C29   S    
C19   C21   S    
C16   H14   S    
C18   H6    S    
C30   C31   S    
C36   H31   S    
C20   C25   S    
C29   C33   S    
C18   C19   S    
C32   H18   S    
C40   H39   S    
C37   H33   S    
Cu1   O5    S    
C16   C17   S    
C31   C33   S    
Cu1   N1    S    
C1    C15   S    
C39   H38   S    
C9    C10   S    
C18   C20   S    
Cu2   O6    S    
C2    C34   S    
C22   H11   S    
C24   N1    T    
C23   H10   S    
C21   C22   S    
C26   O6    A    
C40   H40   S    
C41   H43   S    
C19   H7    S    
C37   H32   S    
C3    H25   S    
C7    C12   T    
O9    C35   S    
C27   C31   S    
C28   C32   S    
C25   N2    T    
C3    C8    S    
Cu2   O8    S    
C38   H35   S    
Cu1   O1    S    
C42   C43   S    
C17   C21   S    
C30   H1    S    
C10   H3    S    
C17   H4    S    
C32   C34   S    
C6    H27   S    
C35   H28   S    
C5    C9    S    
C29   C30   S    
C9    C12   S    
C18   H8    S    
C31   C32   S    
C20   C23   S    
C16   C20   S    
O11   C41   S    
C4    H24   S    
C42   H45   S    
C1    O1    A    
C43   H47   S    
C39   C40   S    
C35   H29   S    
C34   O9    S    
C22   H13   S    
Cu1   O7    S    
C13   C15   T    
C26   O5    A    
C14   O4    A    
C41   C42   S    
Cu2   O4    S    
C23   H12   S    
C36   H30   S    
C6    H20   S    
C4    C5    S    
C38   C39   S    
C19   H9    S    
C5    H21   S    
C10   H2    S    
Cu2   N2    S    
C28   C30   S    
C28   H16   S    
C36   C37   S    
C29   H17   S    
Cu1   O3    S    
C11   O10   S    
C8    C11   S    
C4    H23   S    
C42   H44   S    
C1    O2    A    
C33   C34   S    
C5    H26   S    
C43   H48   S    
C38   H36   S    
C40   H41   S    
C2    C14   S    
C35   C36   S    
C10   C11   S    
C3    H22   S    
C21   C24   S    
C43   H46   S    
C14   O3    A    
C22   C23   S    
C2    C28   S    
C39   H37   S    
C27   O8    A    
C16   H5    S    
C27   O7    A    
