data_mof_unit_68169.cif
_audit_creation_date              2013-03-05T16:02:49-0500
_audit_creation_method            fapswitch 2.2
_symmetry_space_group_name_H-M    P1
_symmetry_Int_Tables_number       1
_space_group_crystal_system       triclinic
_cell_length_a                    6.945066
_cell_length_b                    14.471768
_cell_length_c                    16.076977
_cell_angle_alpha                 90.009874
_cell_angle_beta                  89.970391
_cell_angle_gamma                 89.828359
_cell_volume                      1615.84740853

loop_
_atom_site_label
_atom_site_type_symbol
_atom_site_description
_atom_site_fract_x
_atom_site_fract_y
_atom_site_fract_z
_atom_type_partial_charge
O1    O     O_R   0.611670 0.415650 0.164070 -0.592134
O2    O     O_R   0.388330 0.915650 0.835930 -0.593956
O3    O     O_R   0.940950 0.405490 0.337780 -0.526963
O4    O     O_R   0.059050 0.905490 0.662220 -0.555909
O5    O     O_R   0.111350 0.584350 0.338470 -0.598218
O6    O     O_R   0.888650 0.084350 0.661530 -0.601354
C1    C     C_R   0.773146 0.383653 0.367811 0.850216
C2    C     C_R   0.227263 0.884464 0.631687 0.862030
O7    O     O_R   0.941380 0.404630 0.164680 -0.577920
O8    O     O_R   0.058620 0.904630 0.835320 -0.559426
O9    O     O_R   0.111780 0.583470 0.164130 -0.589702
O10   O     O_R   0.888220 0.083470 0.835870 -0.590602
C3    C     C_R   0.772526 0.381394 0.136898 0.930043
C4    C     C_R   0.228260 0.880617 0.862428 0.947898
O11   O     O_R   0.611240 0.416530 0.338400 -0.581246
O12   O     O_R   0.388760 0.916530 0.661600 -0.578673
O13   O     O_3   0.778020 0.558680 0.251290 -0.285206
O14   O     O_3   0.221980 0.058680 0.748710 -0.287239
V1    V     V_3+5 0.052840 0.489110 0.251260 1.216125
V2    V     V_3+5 0.947160 0.989110 0.748740 1.229976
O15   O     O_R   0.441500 0.594510 0.164760 -0.585641
O16   O     O_R   0.558500 0.094510 0.835240 -0.587200
C5    C     C_R   0.272158 0.617958 0.137368 0.921716
C6    C     C_R   0.727365 0.117409 0.863111 0.920660
O17   O     O_R   0.441080 0.595370 0.337860 -0.594013
O18   O     O_R   0.558920 0.095370 0.662140 -0.595222
C7    C     C_R   0.271561 0.619873 0.364997 0.935038
C8    C     C_R   0.728317 0.119550 0.634753 0.940547
V3    V     V_3+5 0.552850 0.510890 0.251270 1.189889
V4    V     V_3+5 0.447150 0.010890 0.748730 1.198313
O19   O     O_3   0.277800 0.441320 0.251250 -0.241467
O20   O     O_3   0.722200 0.941320 0.748750 -0.239341
C9    C     C_3   0.223029 0.642567 0.519102 -0.386205
C10   C     C_3   0.822242 0.144883 0.485367 -0.350698
H1    H     H_    0.106293 0.590741 0.514046 0.162228
H2    H     H_    0.970320 0.119022 0.499021 0.160860
H3    H     H_    0.353427 0.601795 0.534362 0.192325
H4    H     H_    0.736278 0.084235 0.468123 0.184670
C11   C     C_3   0.191308 0.713827 0.590835 -0.337050
C12   C     C_3   0.820782 0.212521 0.410099 -0.239425
H5    H     H_    0.937190 0.834040 0.516432 0.180062
H6    H     H_    0.056505 0.334545 0.492046 0.214413
C13   C     C_3   0.099248 0.764574 0.417930 -0.359132
C14   C     C_3   0.876812 0.272168 0.587935 -0.378916
C15   C     C_3   0.451203 0.744847 0.443262 -0.428725
C16   C     C_3   0.539971 0.230597 0.543788 -0.424775
C17   C     C_3   0.259962 0.691343 0.434633 0.075928
C18   C     C_3   0.740835 0.190548 0.564885 0.055358
H7    H     H_    0.482384 0.780950 0.383566 0.174611
H8    H     H_    0.469549 0.256350 0.601634 0.174409
H9    H     H_    0.572278 0.695829 0.453107 0.162266
H10   H     H_    0.445848 0.174467 0.519584 0.163473
C19   C     C_3   0.235364 0.814423 0.559370 -0.092540
C20   C     C_3   0.766431 0.313378 0.439987 -0.092016
C21   C     C_3   0.084731 0.836102 0.490178 -0.296101
C22   C     C_3   0.904842 0.338980 0.512773 -0.256145
C23   C     C_3   0.441453 0.812914 0.517958 -0.136454
C24   C     C_3   0.556526 0.307818 0.477257 -0.164616
H11   H     H_    0.543886 0.787226 0.566006 0.164962
H12   H     H_    0.460167 0.288221 0.425721 0.147870
C25   C     C_R   0.247372 0.941178 0.032604 -0.235784
C26   C     C_R   0.750321 0.441233 0.965692 -0.226935
C27   C     C_R   0.263578 0.974838 0.113812 -0.095289
C28   C     C_R   0.735748 0.473732 0.883768 -0.098308
C29   C     C_R   0.276427 0.912082 0.179823 -0.112179
C30   C     C_R   0.722394 0.409966 0.818681 -0.128213
C31   C     C_R   0.274284 0.817024 0.164858 -0.165464
C32   C     C_R   0.722962 0.315351 0.834785 -0.155175
C33   C     C_R   0.261482 0.781904 0.083040 0.157235
C34   C     C_R   0.736596 0.281325 0.916864 0.154665
C35   C     C_R   0.248517 0.845478 0.015650 0.158733
C36   C     C_R   0.750104 0.345546 0.983727 0.158409
C37   C     C_R   0.261079 0.685280 0.067501 -0.269228
C38   C     C_R   0.737666 0.184946 0.932876 -0.269800
C39   C     C_R   0.251268 0.652770 0.984397 0.152976
C40   C     C_R   0.751353 0.152873 0.015967 0.156562
C41   C     C_R   0.249361 0.716717 0.917235 0.140432
C42   C     C_R   0.761356 0.217088 0.082942 0.145308
C43   C     C_R   0.240785 0.813128 0.932607 -0.277444
C44   C     C_R   0.762482 0.313605 0.067000 -0.275549
C45   C     C_R   0.246020 0.556906 0.966631 -0.233072
C46   C     C_R   0.753613 0.057024 0.033709 -0.235759
C47   C     C_R   0.242579 0.524225 0.884424 -0.093971
C48   C     C_R   0.761619 0.024298 0.115693 -0.099328
C49   C     C_R   0.251507 0.587927 0.819184 -0.109027
C50   C     C_R   0.765757 0.088058 0.180895 -0.071953
C51   C     C_R   0.259070 0.682454 0.835498 -0.101902
C52   C     C_R   0.767496 0.182836 0.165011 -0.153311
H13   H     H_    0.238155 0.990835 0.982449 0.152031
H14   H     H_    0.760335 0.491531 0.015301 0.151951
H15   H     H_    0.288808 0.936419 0.243298 0.204413
H16   H     H_    0.710734 0.433182 0.754871 0.198700
H17   H     H_    0.284786 0.771394 0.217980 0.079536
H18   H     H_    0.711556 0.269116 0.782168 0.081331
H19   H     H_    0.276176 0.728917 0.783581 0.108433
H20   H     H_    0.770595 0.229114 0.217766 0.072454
C53   C     C_2   0.510350 0.907019 0.490793 0.965781
O21   O     O_2   0.645524 0.942368 0.527160 -0.682665
O22   O     O_R   0.423618 0.952054 0.423422 -0.804470
H21   H     H_    0.481173 0.014684 0.411035 0.323722
C54   C     C_2   0.482347 0.398246 0.512646 0.991515
O23   O     O_2   0.354653 0.440076 0.476338 -0.668471
O24   O     O_R   0.551665 0.430804 0.588913 -0.812365
H22   H     H_    0.481097 0.487459 0.609859 0.330445
H23   H     H_    0.130526 0.801784 0.358942 0.172042
H24   H     H_    0.816197 0.310940 0.641544 0.188551
H25   H     H_    0.102166 0.907336 0.466019 0.206101
H26   H     H_    0.883070 0.411753 0.532631 0.176888
H27   H     H_    0.255851 0.564779 0.755150 0.165172
H28   H     H_    0.764402 0.064448 0.244686 0.195542
C55   C     C_2   0.274067 0.075726 0.128742 1.031761
O25   O     O_2   0.238523 0.130243 0.072579 -0.635543
O26   O     O_R   0.330335 0.109048 0.206373 -0.787421
H29   H     H_    0.347351 0.178503 0.205734 0.313687
C56   C     C_2   0.729486 0.574317 0.866187 1.017062
O27   O     O_2   0.754052 0.630339 0.922166 -0.626803
O28   O     O_R   0.691038 0.605458 0.785591 -0.778852
H30   H     H_    0.675117 0.675032 0.782916 0.357426
H31   H     H_    0.244151 0.506754 0.016533 0.155063
H32   H     H_    0.747787 0.006800 0.983915 0.154490
C57   C     C_2   0.234202 0.423632 0.866462 1.012457
O29   O     O_2   0.233071 0.367561 0.923405 -0.630778
O30   O     O_R   0.227405 0.392543 0.784110 -0.815832
H33   H     H_    0.221841 0.322685 0.779922 0.323501
C58   C     C_2   0.763581 0.923568 0.133541 1.012528
O31   O     O_2   0.757047 0.867570 0.076596 -0.630721
O32   O     O_R   0.773262 0.892261 0.215771 -0.808682
H34   H     H_    0.773872 0.822339 0.219870 0.321896
H35   H     H_    0.299793 0.697077 0.639561 0.119955
H36   H     H_    0.704360 0.190396 0.366854 0.084983
C59   C     C_2   0.993688 0.704294 0.632351 1.087201
O33   O     O_2   0.976677 0.725517 0.705266 -0.623161
O34   O     O_R   0.829201 0.673090 0.590899 -0.783643
H37   H     H_    0.844176 0.666637 0.528901 0.270667
C60   C     C_2   0.007953 0.198827 0.362629 0.986713
O35   O     O_2   0.039725 0.123759 0.330475 -0.624598
O36   O     O_R   0.148302 0.267076 0.358739 -0.784050
H38   H     H_    0.261539 0.248796 0.322736 0.314958
H39   H     H_    0.957917 0.730230 0.409123 0.146335
H40   H     H_    0.019949 0.245324 0.607735 0.154481

loop_
_geom_bond_atom_site_label_1
_geom_bond_atom_site_label_2
_geom_bond_distance
_ccdc_geom_bond_type
C30   C32   1.393536 A    
C52   H20   1.080858 S    
C54   O23   1.221116 D    
O13   V3    1.711822 S    
C55   O25   1.223914 D    
C46   H32   1.082027 S    
O4    C2    1.302146 A    
V1    O19   1.706698 S    
C27   C29   1.399641 A    
C53   O21   1.219913 D    
O30   H33   1.014042 S    
C11   C19   1.572141 S    
C15   C23   1.554392 S    
C9    C11   1.562041 S    
C38   C40   1.417409 A    
C10   C12   1.556569 S    
C50   H28   1.081087 S    
C48   C50   1.396753 A    
C49   H27   1.082932 S    
C20   C24   1.578134 S    
C42   C44   1.420171 A    
C23   H11   1.113593 S    
C15   H9    1.109933 S    
C24   H12   1.102902 S    
C56   O27   1.223561 D    
C16   H10   1.114407 S    
C25   C27   1.398130 A    
O10   C6    1.295062 A    
C13   H23   1.112290 S    
C15   C17   1.545694 S    
C33   C35   1.424186 A    
O7    C3    1.300248 A    
H5    C21   1.108490 S    
C46   C48   1.401715 A    
C26   C28   1.402222 A    
H6    C22   1.106272 S    
O5    C7    1.299250 A    
O7    V1    2.009383 S    
O6    C8    1.296889 A    
O8    V2    2.006851 S    
C56   O28   1.397559 S    
C51   H19   1.078647 S    
C34   C38   1.418377 A    
C33   C37   1.420428 A    
O14   V4    1.708032 S    
C13   C17   1.560260 S    
O14   V2    2.160574 S    
C25   C35   1.411464 A    
C1    O11   1.308340 A    
C3    C44   1.493388 S    
C23   C53   1.509392 S    
C54   O24   1.399637 S    
C28   C56   1.483398 S    
C60   O36   1.391131 S    
C16   C24   1.551522 S    
C37   C39   1.418144 A    
C8    C18   1.525055 S    
C5    C37   1.488902 S    
C35   C43   1.415801 A    
C53   O22   1.399750 S    
C25   H13   1.081981 S    
C16   H8    1.114137 S    
O11   V3    1.997330 S    
C16   C18   1.546846 S    
C19   C21   1.558742 S    
O17   V3    2.006943 S    
C12   C60   1.519503 S    
C20   C22   1.560069 S    
C49   C51   1.393998 A    
C60   O35   1.222446 D    
O8    C4    1.302651 A    
C40   C46   1.416210 A    
C19   C23   1.578353 S    
C39   C45   1.416950 A    
C30   H16   1.082543 S    
C11   H35   1.113405 S    
C29   C31   1.396630 A    
O15   V3    1.998228 S    
C9    H3    1.107056 S    
C36   C44   1.418977 A    
C21   H25   1.108640 S    
C31   C33   1.413021 A    
C28   C30   1.398347 A    
C14   C22   1.560211 S    
O22   H21   1.011487 S    
C15   H7    1.114260 S    
O9    V1    1.999483 S    
O10   V2    1.997476 S    
O1    V3    2.006812 S    
C41   C43   1.417978 A    
C26   C36   1.414851 A    
C55   O26   1.394408 S    
C24   C54   1.515613 S    
C4    C43   1.494804 S    
C47   C57   1.485399 S    
O3    V1    2.002046 S    
C39   C41   1.422240 A    
C57   O29   1.223472 D    
C13   C21   1.558734 S    
C47   C49   1.397997 A    
O18   V4    2.010065 S    
C12   C20   1.581141 S    
O15   C5    1.300185 A    
O34   H37   1.006395 S    
C9    C17   1.552183 S    
O16   C6    1.299547 A    
O1    C3    1.296434 A    
O13   V1    2.155240 S    
O32   H34   1.014047 S    
C31   H17   1.082004 S    
O26   H29   1.012469 S    
V2    O20   1.710487 S    
C7    C17   1.525978 S    
C48   C58   1.485795 S    
C29   H15   1.083028 S    
C12   H36   1.114326 S    
C42   C52   1.410161 A    
O16   V4    2.000744 S    
C10   H4    1.098557 S    
O18   C8    1.304759 A    
C40   C42   1.424068 A    
C59   O34   1.398871 S    
C2    C19   1.543211 S    
C45   C47   1.403876 A    
O5    V1    2.008458 S    
C14   H24   1.110369 S    
C13   H39   1.110661 S    
O17   C7    1.303488 A    
O6    V2    2.007118 S    
O36   H38   1.010804 S    
C45   H31   1.082041 S    
O3    C1    1.301090 A    
O2    V4    2.008826 S    
V3    O19   2.161988 S    
O28   H30   1.013507 S    
V4    O20   2.156653 S    
C6    C38   1.489478 S    
C58   O31   1.223501 D    
C11   C59   1.532470 S    
C26   H14   1.082105 S    
O9    C5    1.295286 A    
C9    H1    1.109109 S    
C10   H2    1.115273 S    
C14   H40   1.112889 S    
C50   C52   1.395305 A    
C27   C55   1.481605 S    
O2    C4    1.295125 A    
C32   H18   1.081548 S    
C57   O30   1.399123 S    
O4    V2    1.998940 S    
C14   C18   1.559240 S    
C10   C18   1.545133 S    
C41   C51   1.405950 A    
C2    O12   1.306988 A    
O24   H22   1.011511 S    
C58   O32   1.399147 S    
C32   C34   1.411672 A    
C22   H26   1.110320 S    
C34   C36   1.424209 A    
C1    C20   1.543872 S    
O12   V4    1.998661 S    
C59   O33   1.217360 D    
