data_mof_unit_19764.cif
_audit_creation_date              2012-12-11T14:49:47-0500
_audit_creation_method            fapswitch 2.2
_symmetry_space_group_name_H-M    P1
_symmetry_Int_Tables_number       1
_space_group_crystal_system       triclinic
_cell_length_a                    10.94924
_cell_length_b                    11.005213
_cell_length_c                    18.996953
_cell_angle_alpha                 90.313498
_cell_angle_beta                  89.881279
_cell_angle_gamma                 119.97721
_cell_volume                      1982.85094532

loop_
_atom_site_label
_atom_site_type_symbol
_atom_type_description
_atom_site_fract_x
_atom_site_fract_y
_atom_site_fract_z
_atom_type_partial_charge
C1    C     C_R   0.548564 0.434502 0.638734 0.542715
C2    C     C_R   0.464421 0.528664 0.354146 0.566712
C3    C     C_R   0.451085 0.885363 0.138679 0.606911
C4    C     C_R   0.068169 0.538219 0.355471 0.562346
C5    C     C_R   0.421795 0.041783 0.530701 -0.180185
C6    C     C_R   0.632677 0.571968 0.969541 -0.160537
C7    C     C_R   0.938311 0.365427 0.530075 -0.186838
C8    C     C_R   0.419807 0.042109 0.969370 -0.184869
C9    C     C_R   0.646327 0.541440 0.523204 -0.192695
C10   C     C_R   0.902694 0.354334 0.975378 -0.200958
C11   C     C_R   0.943278 0.373790 0.045753 -0.161586
C12   C     C_R   0.888869 0.452499 0.861085 0.541590
C13   C     C_R   0.626776 0.561969 0.452785 -0.159411
C14   C     C_R   0.404599 0.004095 0.039729 -0.141253
C15   C     C_R   0.964297 0.382152 0.458259 -0.156785
C16   C     C_R   0.617335 0.578220 0.041694 -0.149532
C17   C     C_R   0.407286 0.004732 0.460182 -0.142957
C18   C     C_R   0.469731 0.929843 0.433721 0.018423
C19   C     C_R   0.483170 0.509199 0.071354 0.010993
C20   C     C_R   0.029098 0.516432 0.429495 0.010972
C21   C     C_R   0.469600 0.931747 0.065845 0.009847
C22   C     C_R   0.490382 0.504466 0.426059 0.020382
C23   C     C_R   0.536729 0.066529 0.645081 0.524751
C24   C     C_R   0.015885 0.509548 0.073481 0.008510
C25   C     C_R   0.942830 0.471364 0.932088 -0.045870
C26   C     C_R   0.528975 0.466206 0.567043 -0.035835
C27   C     C_R   0.497567 0.005004 0.924303 -0.048463
C28   C     C_R   0.983600 0.483855 0.573690 -0.051997
C29   C     C_R   0.513316 0.494507 0.926986 -0.028395
C30   C     C_R   0.501884 0.007076 0.574842 -0.030800
C31   C     C_R   0.555886 0.900529 0.476880 0.260243
C32   C     C_R   0.362734 0.427336 0.028663 0.276112
C33   C     C_R   0.070504 0.635496 0.473390 0.281149
C34   C     C_R   0.530918 0.463016 0.855088 0.526103
C35   C     C_R   0.554106 0.901432 0.021548 0.262972
C36   C     C_R   0.372098 0.423038 0.469546 0.274262
C37   C     C_R   0.051144 0.626857 0.030124 0.272158
C38   C     C_R   0.026125 0.608000 0.959085 0.260038
C39   C     C_R   0.391290 0.411766 0.540144 0.257466
C40   C     C_R   0.558732 0.927370 0.949824 0.260176
C41   C     C_R   0.059277 0.619480 0.545890 0.261399
C42   C     C_R   0.377632 0.424921 0.956687 0.258976
C43   C     C_R   0.567570 0.933817 0.547988 0.257678
C44   C     C_3   0.768190 0.929835 0.441076 -0.076493
C45   C     C_R   0.930230 0.467442 0.644600 0.527855
C46   C     C_3   0.181419 0.216769 0.064733 -0.081323
C47   C     C_3   0.052305 0.832654 0.455732 -0.083414
C48   C     C_3   0.770792 0.942782 0.054979 -0.084247
C49   C     C_3   0.177913 0.219667 0.434620 -0.081892
C50   C     C_3   0.031515 0.814353 0.064933 -0.087249
C51   C     C_3   0.199756 0.742703 0.882205 -0.081896
C52   C     C_3   0.243804 0.438928 0.614023 -0.081550
C53   C     C_3   0.541784 0.780231 0.860749 -0.089511
C54   C     C_3   0.220421 0.747507 0.630951 -0.096250
C55   C     C_3   0.213106 0.423302 0.883482 -0.084264
C56   C     C_R   0.536167 0.066835 0.854876 0.524729
C57   C     C_3   0.573519 0.785111 0.628438 -0.084156
C58   C     C_R   0.462390 0.529391 0.144913 0.561465
C59   C     C_R   0.450283 0.883372 0.361019 0.609531
C60   C     C_R   0.064701 0.535863 0.145686 0.561968
Cr1   Cr    Cr6+3 0.776430 0.541680 0.750000 1.031794
Cr2   Cr    Cr6+3 0.765250 0.223570 0.750000 1.033169
Cr3   Cr    Cr6+3 0.458320 0.234750 0.750000 1.040512
Cr4   Cr    Cr6+3 0.541680 0.776430 0.250000 1.024239
Cr5   Cr    Cr6+3 0.223570 0.765250 0.250000 1.032237
Cr6   Cr    Cr6+3 0.234750 0.458320 0.250000 1.031005
H1    H     H_    0.374779 0.101876 0.550042 0.159813
H2    H     H_    0.931189 0.290863 0.424969 0.129487
H3    H     H_    0.709169 0.638164 0.074325 0.124552
H4    H     H_    0.347535 0.034742 0.426309 0.146535
H5    H     H_    0.826230 0.947517 0.491377 0.156741
H6    H     H_    0.787835 0.031810 0.419230 0.099903
H7    H     H_    0.812433 0.885472 0.402932 0.106000
H8    H     H_    0.257900 0.200448 0.095977 0.098674
H9    H     H_    0.161182 0.161412 0.013324 0.153079
H10   H     H_    0.080519 0.167820 0.094186 0.102661
H11   H     H_    0.089546 0.902159 0.502733 0.165112
H12   H     H_    0.737962 0.623322 0.947482 0.164594
H13   H     H_    0.937927 0.756568 0.461019 0.092393
H14   H     H_    0.065539 0.899302 0.409518 0.093369
H15   H     H_    0.785257 0.038631 0.082426 0.105402
H16   H     H_    0.824000 0.970514 0.002918 0.159158
H17   H     H_    0.823741 0.899635 0.087642 0.095805
H18   H     H_    0.150905 0.163048 0.485531 0.142811
H19   H     H_    0.249928 0.195354 0.403912 0.095796
H20   H     H_    0.078919 0.178731 0.403946 0.104852
H21   H     H_    0.946027 0.748113 0.102385 0.103291
H22   H     H_    0.986149 0.823150 0.014201 0.145582
H23   H     H_    0.879466 0.260229 0.551127 0.170821
H24   H     H_    0.090069 0.920722 0.088437 0.095934
H25   H     H_    0.278147 0.746175 0.920239 0.102691
H26   H     H_    0.247121 0.842133 0.852401 0.152668
H27   H     H_    0.173564 0.657670 0.843182 0.098107
H28   H     H_    0.238002 0.509928 0.574622 0.114537
H29   H     H_    0.324021 0.501497 0.654614 0.097471
H30   H     H_    0.141247 0.381202 0.641481 0.157868
H31   H     H_    0.492211 0.817269 0.821952 0.087966
H32   H     H_    0.458236 0.691508 0.890612 0.082147
H33   H     H_    0.602591 0.742745 0.830073 0.161435
H34   H     H_    0.374506 0.103913 0.950759 0.167165
H35   H     H_    0.303353 0.745625 0.598346 0.084608
H36   H     H_    0.183316 0.663212 0.670782 0.091904
H37   H     H_    0.266206 0.847166 0.660864 0.157025
H38   H     H_    0.284319 0.483164 0.839410 0.085921
H39   H     H_    0.202974 0.494856 0.921415 0.112989
H40   H     H_    0.108115 0.352970 0.860409 0.178905
H41   H     H_    0.505815 0.695279 0.593551 0.113470
H42   H     H_    0.508627 0.801408 0.668322 0.077016
H43   H     H_    0.645464 0.759892 0.657469 0.176857
H44   H     H_    0.752319 0.582501 0.543313 0.153513
H45   H     H_    0.839607 0.248685 0.954889 0.158984
H46   H     H_    0.915661 0.284127 0.078860 0.130627
H47   H     H_    0.716553 0.620298 0.418748 0.126731
H48   H     H_    0.345025 0.033990 0.074045 0.146440
O1    O     O_R   0.916700 0.566820 0.669930 -0.469042
O2    O     O_R   0.566820 0.916700 0.330070 -0.507623
O3    O     O_R   0.083300 0.650120 0.169930 -0.498551
O4    O     O_R   0.349880 0.433180 0.330070 -0.492663
O5    O     O_R   0.649840 0.534790 0.674920 -0.530106
O6    O     O_R   0.884950 0.350160 0.825080 -0.528516
O7    O     O_R   0.465210 0.115050 0.674920 -0.527813
O8    O     O_R   0.649840 0.534790 0.825080 -0.531111
O9    O     O_R   0.884950 0.350160 0.674920 -0.521463
O10   O     O_R   0.465210 0.115050 0.825080 -0.518319
O11   O     O_R   0.534790 0.649840 0.174920 -0.498825
O12   O     O_R   0.650120 0.083300 0.830070 -0.473147
O13   O     O_R   0.350160 0.884950 0.325080 -0.495803
O14   O     O_R   0.115050 0.465210 0.174920 -0.484432
O15   O     O_R   0.534790 0.649840 0.325080 -0.496212
O16   O     O_R   0.350160 0.884950 0.174920 -0.496715
O17   O     O_R   0.115050 0.465210 0.325080 -0.490117
O18   O     O_3   0.666667 0.333333 0.750000 -0.296134
O19   O     O_3   0.333333 0.666667 0.250000 -0.296566
O20   O     O_3   0.623146 0.832290 0.449886 -0.539178
O21   O     O_3   0.227180 0.360655 0.055905 -0.518629
O22   O     O_3   0.135931 0.769257 0.445400 -0.534458
O23   O     O_R   0.433180 0.349880 0.669930 -0.464427
O24   O     O_3   0.627089 0.839652 0.048192 -0.535768
O25   O     O_3   0.234954 0.365544 0.444945 -0.518337
O26   O     O_3   0.125736 0.763174 0.055238 -0.525100
O27   O     O_3   0.079438 0.726789 0.917536 -0.522948
O28   O     O_3   0.271758 0.340364 0.581344 -0.531957
O29   O     O_3   0.635080 0.887396 0.906778 -0.529884
O30   O     O_3   0.110924 0.738181 0.588192 -0.535585
O31   O     O_3   0.258525 0.339614 0.917193 -0.539984
O32   O     O_3   0.655833 0.906846 0.588838 -0.540635
O33   O     O_R   0.916700 0.566820 0.830070 -0.464455
O34   O     O_R   0.650120 0.083300 0.669930 -0.465281
O35   O     O_R   0.433180 0.349880 0.830070 -0.461517
O36   O     O_R   0.566820 0.916700 0.169930 -0.504901
O37   O     O_R   0.083300 0.650120 0.330070 -0.490564
O38   O     O_R   0.349880 0.433180 0.169930 -0.492819

loop_
_geom_bond_atom_site_label_1
_geom_bond_atom_site_label_2
_ccdc_geom_bond_type
C54   O30   S    
Cr4   O2    S    
C47   O22   S    
Cr1   O5    S    
C3    O16   A    
C28   C41   A    
C54   H35   S    
C47   H13   S    
C5    H1    S    
C46   H10   S    
Cr3   O10   S    
C2    O4    A    
C52   H30   S    
C23   O7    A    
C53   H33   S    
C31   C43   A    
C55   H39   S    
Cr5   O13   S    
C14   C21   A    
C5    C30   A    
C35   O24   S    
C29   C42   A    
C50   O26   S    
C26   C39   A    
C6    H12   S    
C5    C17   A    
C59   O13   A    
C7    H23   S    
C11   C24   A    
C2    O15   A    
C48   H15   S    
C52   H29   S    
C1    O5    A    
C9    C13   A    
C46   H9    S    
Cr1   O18   S    
C51   H25   S    
C46   O21   S    
C12   O6    A    
C50   H24   S    
Cr3   O35   S    
C48   H16   S    
C59   O2    A    
C37   O26   S    
Cr1   O1    S    
C25   C38   A    
C52   H28   S    
C56   O12   A    
Cr2   O6    S    
C50   H22   S    
C7    C15   A    
C17   H4    S    
C34   O8    A    
Cr2   O34   S    
C57   O32   S    
Cr3   O23   S    
C47   H14   S    
C31   O20   S    
C19   C32   A    
Cr2   O9    S    
Cr3   O7    S    
C34   O35   A    
C58   O38   A    
C9    C26   A    
Cr5   O16   S    
C4    O17   A    
C51   O27   S    
C19   C58   S    
C44   O20   S    
C15   C20   A    
C57   H43   S    
C28   C45   S    
C55   H40   S    
C23   C30   S    
Cr2   O18   S    
C54   H37   S    
C60   O14   A    
C41   O30   S    
C24   C37   A    
Cr2   O12   S    
C27   C56   S    
C53   H31   S    
C14   H48   S    
C55   H38   S    
C52   O28   S    
C7    C28   A    
Cr4   O36   S    
C44   H5    S    
C53   O29   S    
Cr5   O37   S    
Cr6   O38   S    
C37   C38   A    
C49   H19   S    
C51   H26   S    
Cr6   O19   S    
C45   O1    A    
C39   O28   S    
C27   C40   A    
C24   C60   S    
C6    C29   A    
C17   C18   A    
C10   H45   S    
C45   O9    A    
Cr3   O18   S    
C50   H21   S    
C51   H27   S    
C20   C33   A    
C10   C25   A    
C57   H41   S    
C49   O25   S    
C60   O3    A    
C1    C26   S    
C38   O27   S    
C30   C43   A    
C3    C21   S    
C47   H11   S    
C56   O10   A    
C46   H8    S    
C1    O23   A    
C12   O33   A    
Cr6   O17   S    
C49   H18   S    
C9    H44   S    
C4    O37   A    
Cr4   O19   S    
C3    O36   A    
C8    C14   A    
C11   H46   S    
C49   H20   S    
C54   H36   S    
C36   C39   A    
C16   H3    S    
C32   O21   S    
C21   C35   A    
C53   H32   S    
C22   C36   A    
C23   O34   A    
C48   H17   S    
C48   O24   S    
C12   C25   S    
C33   C41   A    
C35   C40   A    
C8    H34   S    
C43   O32   S    
C2    C22   S    
C33   O22   S    
C32   C42   A    
C16   C19   A    
C15   H2    S    
C29   C34   S    
Cr6   O14   S    
C13   C22   A    
C44   H6    S    
Cr1   O33   S    
C44   H7    S    
C36   O25   S    
C13   H47   S    
C55   O31   S    
C10   C11   A    
C6    C16   A    
C4    C20   S    
C18   C59   S    
C57   H42   S    
Cr4   O15   S    
C58   O11   A    
Cr4   O11   S    
Cr6   O4    S    
C40   O29   S    
C8    C27   A    
Cr5   O3    S    
Cr1   O8    S    
C18   C31   A    
C42   O31   S    
Cr5   O19   S    
