data_mof_unit_59599.cif
_audit_creation_date              2012-12-10T17:40:51-0500
_audit_creation_method            fapswitch 2.2
_symmetry_space_group_name_H-M    P1
_symmetry_Int_Tables_number       1
_space_group_crystal_system       triclinic
_cell_length_a                    15.090945
_cell_length_b                    15.269601
_cell_length_c                    9.918316
_cell_angle_alpha                 89.991653
_cell_angle_beta                  86.866666
_cell_angle_gamma                 90.004029
_cell_volume                      2282.08765187

loop_
_atom_site_label
_atom_site_type_symbol
_atom_type_description
_atom_site_fract_x
_atom_site_fract_y
_atom_site_fract_z
_atom_type_partial_charge
Br1   Br    Br    0.690419 0.999963 0.828579 -0.345152
Br2   Br    Br    0.190419 0.499963 0.828579 -0.345164
Br3   Br    Br    0.392414 0.209420 0.842808 -0.292351
Br4   Br    Br    0.391897 0.790552 0.843112 -0.291188
Br5   Br    Br    0.892380 0.709422 0.842829 -0.292274
Br6   Br    Br    0.891881 0.290527 0.843145 -0.291123
C1    C     C_R   0.384956 0.874930 0.503497 0.920121
C2    C     C_R   0.746881 0.194677 0.385331 0.647708
C3    C     C_R   0.246663 0.305086 0.385196 0.647856
C4    C     C_R   0.246868 0.694696 0.385323 0.647704
C5    C     C_R   0.680094 0.806246 0.489274 -0.170707
C6    C     C_R   0.680119 0.193731 0.489150 -0.170507
C7    C     C_R   0.180100 0.306249 0.489278 -0.170681
C8    C     C_R   0.180119 0.693732 0.489159 -0.170512
C9    C     C_R   0.337201 0.000060 0.152095 -0.225246
C10   C     C_R   0.837202 0.500064 0.152097 -0.225220
C11   C     C_R   0.257647 0.000147 0.087969 -0.262831
C12   C     C_R   0.384945 0.125055 0.503488 0.920304
C13   C     C_R   0.757650 0.500156 0.087973 -0.262851
C14   C     C_R   0.258171 0.000157 0.948625 0.598144
C15   C     C_R   0.758173 0.500163 0.948628 0.598104
C16   C     C_R   0.338286 0.000056 0.872460 -0.225128
C17   C     C_R   0.838286 0.500054 0.872461 -0.225117
C18   C     C_R   0.420176 0.000021 0.933998 0.102241
C19   C     C_R   0.920176 0.500020 0.933999 0.102247
C20   C     C_R   0.419989 0.000025 0.078471 0.178915
C21   C     C_R   0.919990 0.500026 0.078472 0.178924
C22   C     C_R   0.576238 0.999978 0.066095 -0.058258
C23   C     C_R   0.884957 0.374930 0.503497 0.920098
C24   C     C_R   0.076238 0.499978 0.066095 -0.058216
C25   C     C_R   0.617407 0.122688 0.496817 1.005642
C26   C     C_R   0.617409 0.877314 0.496842 1.005675
C27   C     C_R   0.117409 0.622688 0.496819 1.005642
C28   C     C_R   0.117411 0.377316 0.496842 1.005665
C29   C     C_R   0.576652 0.999980 0.923463 0.313128
C30   C     C_R   0.076652 0.499980 0.923463 0.313128
C31   C     C_R   0.280844 0.194903 0.764019 0.271722
C32   C     C_R   0.280508 0.805325 0.763871 0.271344
C33   C     C_R   0.780820 0.694887 0.764017 0.271690
C34   C     C_R   0.884942 0.625053 0.503488 0.920307
C35   C     C_R   0.780503 0.305333 0.763879 0.271324
C36   C     C_R   0.208381 0.189120 0.857834 -0.339242
C37   C     C_R   0.207896 0.811418 0.857349 -0.339652
C38   C     C_R   0.708351 0.689098 0.857820 -0.339212
C39   C     C_R   0.707884 0.311444 0.857351 -0.339672
C40   C     C_R   0.622594 0.698673 0.816135 0.680298
C41   C     C_R   0.622196 0.302051 0.815287 0.680300
C42   C     C_R   0.122623 0.198705 0.816168 0.680267
C43   C     C_R   0.122209 0.802000 0.815300 0.680289
C44   C     C_R   0.610199 0.730974 0.687144 0.581265
C45   C     C_R   0.316777 0.247890 0.393740 -0.240712
C46   C     C_R   0.609970 0.269454 0.686404 0.580770
C47   C     C_R   0.110221 0.230999 0.687175 0.581288
C48   C     C_R   0.109977 0.769422 0.686418 0.580863
C49   C     C_R   0.684257 0.749619 0.599691 -0.265434
C50   C     C_R   0.684154 0.250513 0.599371 -0.265243
C51   C     C_R   0.184274 0.249635 0.599705 -0.265455
C52   C     C_R   0.184152 0.750515 0.599367 -0.265315
C53   C     C_R   0.266382 0.213929 0.626477 -0.046290
C54   C     C_R   0.266242 0.786167 0.626337 -0.046590
C55   C     C_R   0.766365 0.713916 0.626472 -0.046319
C56   C     C_R   0.316993 0.751895 0.393898 -0.240471
C57   C     C_R   0.766244 0.286167 0.626342 -0.046580
C58   C     C_R   0.326458 0.200304 0.512755 -0.069738
C59   C     C_R   0.326491 0.799651 0.512788 -0.070064
C60   C     C_R   0.826452 0.700301 0.512756 -0.069747
C61   C     C_R   0.826495 0.299646 0.512790 -0.070092
C62   C     C_R   0.816781 0.747900 0.393741 -0.240711
C63   C     C_R   0.817005 0.251881 0.393907 -0.240477
C64   C     C_R   0.746668 0.805098 0.385197 0.647816
F1    F     F_    0.180302 0.000248 0.886450 -0.634362
F2    F     F_    0.027198 0.759988 0.642414 -0.614787
F3    F     F_    0.743781 0.858218 0.275672 -0.610522
F4    F     F_    0.744170 0.141341 0.276054 -0.610452
F5    F     F_    0.243760 0.358186 0.275669 -0.610567
F6    F     F_    0.244146 0.641375 0.276029 -0.610470
F7    F     F_    0.680303 0.500252 0.886453 -0.634361
F8    F     F_    0.552636 0.681963 0.903711 -0.544932
F9    F     F_    0.552119 0.319341 0.902402 -0.544278
F10   F     F_    0.052668 0.182009 0.903763 -0.544950
F11   F     F_    0.052138 0.819240 0.902431 -0.544347
F12   F     F_    0.527328 0.740568 0.643488 -0.614518
F13   F     F_    0.527190 0.260045 0.642368 -0.614775
F14   F     F_    0.027348 0.240590 0.643533 -0.614511
H1    H     H_    0.363852 0.241204 0.307832 0.211700
H2    H     H_    0.717848 0.323877 0.962910 0.220093
H3    H     H_    0.638333 0.999962 0.115734 0.234380
H4    H     H_    0.138333 0.499963 0.115733 0.234367
H5    H     H_    0.330223 0.000026 0.259136 0.227511
H6    H     H_    0.830222 0.500029 0.259138 0.227506
H7    H     H_    0.195150 0.000199 0.147057 0.213594
H8    H     H_    0.695152 0.500211 0.147062 0.213594
H9    H     H_    0.364219 0.758460 0.308142 0.211774
H10   H     H_    0.863865 0.741224 0.307835 0.211709
H11   H     H_    0.864239 0.258436 0.308160 0.211778
H12   H     H_    0.333839 0.000014 0.765709 0.210313
H13   H     H_    0.833839 0.500009 0.765710 0.210303
H14   H     H_    0.218522 0.176832 0.963384 0.220079
H15   H     H_    0.217865 0.823838 0.962903 0.220099
H16   H     H_    0.718485 0.676809 0.963371 0.220077
N1    N     N_R   0.498810 0.000000 0.142780 -0.140470
N2    N     N_R   0.998810 0.500000 0.142780 -0.140469
N3    N     N_R   0.498740 0.000000 0.857170 -0.123575
N4    N     N_R   0.998740 0.500000 0.857170 -0.123572
O1    O     O_R   0.408390 0.908380 0.614690 -0.603949
O2    O     O_R   0.591620 0.908390 0.614640 -0.578793
O3    O     O_R   0.091620 0.591610 0.614640 -0.579077
O4    O     O_R   0.091620 0.408390 0.614640 -0.578794
O5    O     O_R   0.591610 0.091610 0.385310 -0.575657
O6    O     O_R   0.591610 0.908390 0.385310 -0.575478
O7    O     O_R   0.091610 0.591610 0.385310 -0.575646
O8    O     O_R   0.091610 0.408390 0.385310 -0.575475
O9    O     O_R   0.408390 0.091620 0.614690 -0.604307
O10   O     O_R   0.908390 0.408380 0.614690 -0.603958
O11   O     O_R   0.908390 0.591620 0.614690 -0.604275
O12   O     O_R   0.408370 0.908380 0.385360 -0.661297
O13   O     O_R   0.408370 0.091620 0.385360 -0.661422
O14   O     O_R   0.908370 0.408380 0.385360 -0.661288
O15   O     O_R   0.908370 0.591620 0.385360 -0.661417
O16   O     O_R   0.591620 0.091610 0.614640 -0.579096
Zn1   Zn    Zn3+2 0.500010 0.000000 0.653130 1.061830
Zn2   Zn    Zn3+2 0.000010 0.500000 0.653130 1.061853
Zn3   Zn    Zn3+2 0.499980 0.000000 0.346870 1.026010
Zn4   Zn    Zn3+2 0.999980 0.500000 0.346870 1.026022

loop_
_geom_bond_atom_site_label_1
_geom_bond_atom_site_label_2
_ccdc_geom_bond_type
C60   C62   A    
C23   O10   A    
C10   H6    S    
O12   Zn3   S    
C28   O8    A    
C11   H7    S    
C41   F9    S    
C45   H1    S    
C8    C27   S    
C5    C64   A    
O15   Zn4   S    
C44   F12   S    
C2    C63   A    
N1    Zn3   S    
C26   O6    A    
C47   F14   S    
C13   C15   A    
C18   C20   A    
O8    Zn4   S    
C29   N3    A    
C36   H14   S    
C20   N1    A    
C51   C53   A    
C34   O11   A    
C9    H5    S    
C52   C54   A    
C43   C48   A    
C11   C14   A    
C43   F11   S    
C31   C36   A    
C3    C7    A    
C13   H8    S    
C23   C61   S    
C4    F6    S    
C55   C60   A    
C8    C52   A    
Br6   C35   S    
C27   O3    A    
C1    O1    A    
C14   F1    S    
C27   O7    A    
C31   C53   A    
C10   C21   A    
C15   F7    S    
O11   Zn2   S    
C34   C60   S    
C4    C56   A    
C64   F3    S    
N2    Zn4   S    
C22   N1    A    
C12   O9    A    
C38   C40   A    
C39   C41   A    
C25   O5    A    
C42   C47   A    
C33   C55   A    
C57   C61   A    
C7    C51   A    
C22   C29   A    
C4    C8    A    
C40   F8    S    
C47   C51   A    
C37   C43   A    
C9    C20   A    
O14   Zn4   S    
C62   H10   S    
C61   C63   A    
C1    O12   A    
C46   F13   S    
O6    Zn3   S    
C1    C59   S    
C2    C6    A    
C24   N2    A    
C22   H3    S    
C2    F4    S    
C53   C58   A    
C50   C57   A    
O1    Zn1   S    
C36   C42   A    
C12   O13   A    
N4    Zn2   S    
C6    C50   A    
C32   C54   A    
C17   H13   S    
C14   C16   A    
C5    C26   S    
C15   C17   A    
C6    C25   S    
C16   C18   A    
C35   C57   A    
C24   H4    S    
N3    Zn1   S    
C5    C49   A    
O16   Zn1   S    
Br1   C29   S    
C48   C52   A    
Br2   C30   S    
C9    C11   A    
C56   C59   A    
O7    Zn4   S    
C16   H12   S    
O5    Zn3   S    
C45   C58   A    
O4    Zn2   S    
C63   H11   S    
C54   C59   A    
C19   N4    A    
C33   C38   A    
C19   C21   A    
O9    Zn1   S    
C23   O14   A    
C40   C44   A    
C21   N2    A    
C44   C49   A    
C24   C30   A    
C30   N4    A    
C18   N3    A    
C28   O4    A    
C3    C45   A    
C42   F10   S    
Br5   C33   S    
C39   H2    S    
O13   Zn3   S    
C32   C37   A    
C37   H15   S    
C38   H16   S    
C12   C58   S    
C10   C13   A    
C49   C55   A    
O2    Zn1   S    
C17   C19   A    
C25   O16   A    
O10   Zn2   S    
C7    C28   S    
C34   O15   A    
C48   F2    S    
Br3   C31   S    
C62   C64   A    
C56   H9    S    
C41   C46   A    
C35   C39   A    
C26   O2    A    
C3    F5    S    
O3    Zn2   S    
Br4   C32   S    
C46   C50   A    
