data_mof_unit_68083.cif
_audit_creation_date              2013-03-05T15:51:46-0500
_audit_creation_method            fapswitch 2.2
_symmetry_space_group_name_H-M    P1
_symmetry_Int_Tables_number       1
_space_group_crystal_system       triclinic
_cell_length_a                    7.358618
_cell_length_b                    12.041575
_cell_length_c                    28.831069
_cell_angle_alpha                 90.059051
_cell_angle_beta                  90.45275
_cell_angle_gamma                 90.011729
_cell_volume                      2554.62112592

loop_
_atom_site_label
_atom_site_type_symbol
_atom_site_description
_atom_site_fract_x
_atom_site_fract_y
_atom_site_fract_z
_atom_type_partial_charge
O1    O     O_R   0.647170 0.849180 0.201220 -0.592608
O2    O     O_R   0.352830 0.150820 0.798780 -0.591954
O3    O     O_R   0.352830 0.150820 0.701220 -0.594078
O4    O     O_R   0.647170 0.849180 0.298780 -0.600434
O5    O     O_R   0.147170 0.650820 0.298780 -0.594027
O6    O     O_R   0.852830 0.349180 0.701220 -0.601255
O7    O     O_R   0.852830 0.349180 0.798780 -0.587061
O8    O     O_R   0.147170 0.650820 0.201220 -0.598346
O9    O     O_R   0.317430 0.862210 0.298450 -0.591175
O10   O     O_R   0.682570 0.137790 0.701550 -0.592987
O11   O     O_R   0.682570 0.137790 0.798450 -0.595594
O12   O     O_R   0.317430 0.862210 0.201550 -0.598274
O13   O     O_R   0.817430 0.637790 0.201550 -0.590228
O14   O     O_R   0.182570 0.362210 0.798450 -0.602874
O15   O     O_R   0.182570 0.362210 0.701550 -0.591158
O16   O     O_R   0.817430 0.637790 0.298450 -0.594113
H1    H     H_    0.947442 0.220699 0.460002 0.173840
H2    H     H_    0.878230 0.769984 0.543663 0.170144
H3    H     H_    0.022584 0.777933 0.960994 0.171609
H4    H     H_    0.010807 0.221300 0.039504 0.170699
H5    H     H_    0.337726 0.269940 0.043610 0.167927
H6    H     H_    0.349809 0.726541 0.953433 0.167801
H7    H     H_    0.551270 0.720703 0.539629 0.173972
H8    H     H_    0.620679 0.270291 0.456664 0.170055
C1    C     C_R   0.486410 0.889362 0.312671 0.913901
C2    C     C_R   0.513955 0.111022 0.687195 0.912163
C3    C     C_R   0.514520 0.111899 0.813248 0.911601
C4    C     C_R   0.484703 0.888109 0.186732 0.911249
C5    C     C_R   0.985348 0.610658 0.187289 0.915058
C6    C     C_R   0.014862 0.389391 0.812707 0.913129
C7    C     C_R   0.013627 0.389264 0.687304 0.911765
C8    C     C_R   0.986016 0.611126 0.312832 0.909887
H9    H     H_    0.064157 0.609652 0.691043 0.098400
H10   H     H_    0.003751 0.390871 0.306127 0.091883
H11   H     H_    0.925521 0.392081 0.192493 0.098078
H12   H     H_    0.957921 0.608404 0.806854 0.093009
H13   H     H_    0.534426 0.891095 0.807934 0.097273
H14   H     H_    0.502495 0.109114 0.191689 0.092035
H15   H     H_    0.436593 0.109808 0.309014 0.098213
H16   H     H_    0.496870 0.890708 0.693740 0.092078
H17   H     H_    0.933537 0.343221 0.601420 0.198447
H18   H     H_    0.012253 0.656333 0.400979 0.171148
H19   H     H_    0.071408 0.650160 0.101199 0.198786
H20   H     H_    0.076070 0.348109 0.899968 0.199883
H21   H     H_    0.507963 0.157664 0.901894 0.176207
H22   H     H_    0.499439 0.840737 0.098276 0.177650
H23   H     H_    0.566208 0.843417 0.398507 0.198103
H24   H     H_    0.486844 0.156217 0.599152 0.170967
O17   O     O_3   0.480630 0.680630 0.250000 -0.320524
O18   O     O_3   0.519370 0.319370 0.750000 -0.326155
O19   O     O_3   0.980630 0.819370 0.250000 -0.326269
O20   O     O_3   0.019370 0.180630 0.750000 -0.321680
V1    V     V_3+5 0.205800 0.762860 0.250000 1.094763
V2    V     V_3+5 0.794200 0.237140 0.750000 1.097178
V3    V     V_3+5 0.705800 0.737140 0.250000 1.096742
V4    V     V_3+5 0.294200 0.262860 0.750000 1.094638
C9    C     C_R   0.991900 0.530411 0.350926 -0.139969
C10   C     C_R   0.003085 0.469076 0.648909 -0.152843
C11   C     C_R   0.009155 0.470195 0.850878 -0.145901
C12   C     C_R   0.991200 0.529296 0.149347 -0.151864
C13   C     C_R   0.484715 0.967582 0.147954 -0.145119
C14   C     C_R   0.503345 0.031670 0.851601 -0.147144
C15   C     C_R   0.508000 0.030287 0.649062 -0.141123
C16   C     C_R   0.497051 0.969247 0.351086 -0.153844
C17   C     C_R   0.983090 0.338087 0.378077 0.084909
C18   C     C_R   0.002954 0.659855 0.620039 0.073845
C19   C     C_R   0.986848 0.661476 0.878742 0.087685
C20   C     C_R   0.967345 0.338262 0.121310 0.084376
C21   C     C_R   0.455299 0.158414 0.119975 0.073959
C22   C     C_R   0.474890 0.840100 0.878635 0.072187
C23   C     C_R   0.516876 0.838004 0.621718 0.084631
C24   C     C_R   0.497185 0.160035 0.380093 0.073666
C25   C     C_R   0.991231 0.416801 0.341892 -0.208778
C26   C     C_R   0.027827 0.582574 0.656408 -0.205011
C27   C     C_R   0.981162 0.582764 0.842377 -0.207499
C28   C     C_R   0.956903 0.417251 0.157424 -0.208267
C29   C     C_R   0.480452 0.081515 0.156386 -0.199345
C30   C     C_R   0.504753 0.917872 0.842876 -0.206971
C31   C     C_R   0.509011 0.916678 0.657991 -0.208186
C32   C     C_R   0.472607 0.082743 0.343648 -0.204435
C33   C     C_R   0.988526 0.568721 0.396310 -0.167805
C34   C     C_R   0.968982 0.429736 0.604398 -0.168772
C35   C     C_R   0.032482 0.432955 0.896029 -0.164016
C36   C     C_R   0.024150 0.565918 0.104603 -0.161912
C37   C     C_R   0.472045 0.927907 0.102660 -0.181841
C38   C     C_R   0.482740 0.070422 0.896743 -0.181034
C39   C     C_R   0.510890 0.068636 0.603727 -0.167582
C40   C     C_R   0.530847 0.929936 0.395570 -0.168706
C41   C     C_R   0.967448 0.495614 0.434106 0.121517
C42   C     C_R   0.975117 0.500779 0.565595 0.111849
C43   C     C_R   0.003916 0.503654 0.934341 0.105877
C44   C     C_R   0.997109 0.495629 0.065974 0.109284
C45   C     C_R   0.434980 0.999466 0.064826 0.124814
C46   C     C_R   0.442606 0.997853 0.933823 0.125301
C47   C     C_R   0.531946 0.995605 0.565861 0.121651
C48   C     C_R   0.524441 0.000986 0.434414 0.111976
C49   C     C_R   0.970648 0.379162 0.424964 0.063860
C50   C     C_R   0.969326 0.616957 0.574169 0.061711
C51   C     C_R   0.997563 0.620105 0.925678 0.063722
C52   C     C_R   0.985581 0.379314 0.074545 0.067392
C53   C     C_R   0.424347 0.115617 0.073984 0.060013
C54   C     C_R   0.436734 0.881820 0.924325 0.062354
C55   C     C_R   0.528822 0.879135 0.574870 0.063350
C56   C     C_R   0.530282 0.117166 0.425949 0.061415
C57   C     C_R   0.950488 0.535259 0.481022 -0.105155
C58   C     C_R   0.977376 0.459875 0.518748 -0.127187
C59   C     C_R   0.990704 0.461859 0.980990 -0.123402
C60   C     C_R   0.990151 0.537557 0.019224 -0.122230
C61   C     C_R   0.414372 0.959515 0.017924 -0.108401
C62   C     C_R   0.414706 0.037070 0.980423 -0.108778
C63   C     C_R   0.548804 0.035361 0.519005 -0.105296
C64   C     C_R   0.521890 0.960042 0.481203 -0.127241
C65   C     C_R   0.007698 0.346526 0.508016 0.573444
C66   C     C_R   0.904876 0.646912 0.491549 0.552646
C67   C     C_R   0.972648 0.652403 0.009296 0.580770
C68   C     C_R   0.968522 0.347246 0.990731 0.571574
C69   C     C_R   0.377769 0.149806 0.990898 0.554460
C70   C     C_R   0.383723 0.846143 0.006900 0.554619
C71   C     C_R   0.491242 0.846696 0.491797 0.573927
C72   C     C_R   0.594324 0.147070 0.508613 0.553163
C73   C     C_R   0.971072 0.308106 0.463303 -0.465605
C74   C     C_R   0.919102 0.685720 0.537199 -0.443981
C75   C     C_R   0.998289 0.690716 0.964223 -0.463034
C76   C     C_R   0.988602 0.308686 0.036043 -0.463797
C77   C     C_R   0.378258 0.185657 0.037059 -0.447190
C78   C     C_R   0.388612 0.810956 0.960617 -0.446757
C79   C     C_R   0.527934 0.808141 0.536450 -0.465456
C80   C     C_R   0.580047 0.185956 0.463013 -0.443957
C81   C     C_R   0.991655 0.216081 0.364943 0.149632
C82   C     C_R   0.913705 0.178048 0.322873 -0.192348
C83   C     C_R   0.907668 0.064994 0.312023 -0.117856
C84   C     C_R   0.980524 0.987228 0.342687 0.005130
C85   C     C_R   0.069092 0.022938 0.382729 -0.137530
C86   C     C_R   0.082036 0.136224 0.392524 -0.169521
H25   H     H_    0.856449 0.234746 0.297949 0.103991
H26   H     H_    0.843500 0.037832 0.280075 0.128579
H27   H     H_    0.972575 0.899458 0.335068 0.149556
H28   H     H_    0.132309 0.962930 0.405641 0.142009
H29   H     H_    0.166128 0.160213 0.421600 0.115899
C87   C     C_R   0.021761 0.782484 0.630931 0.152183
C88   C     C_R   0.973526 0.824837 0.674865 -0.197116
C89   C     C_R   0.972614 0.938991 0.683537 -0.114082
C90   C     C_R   0.023897 0.013348 0.649045 0.017720
C91   C     C_R   0.084663 0.973217 0.606633 -0.111780
C92   C     C_R   0.090687 0.858978 0.598362 -0.193033
H30   H     H_    0.934407 0.770856 0.702831 0.099854
H31   H     H_    0.929383 0.969655 0.716932 0.137995
H32   H     H_    0.020399 0.101874 0.655468 0.141074
H33   H     H_    0.130113 0.030583 0.580307 0.124794
H34   H     H_    0.149123 0.831357 0.566105 0.128460
C93   C     C_R   0.980016 0.783456 0.865598 0.149906
C94   C     C_R   0.060733 0.820438 0.824068 -0.193676
C95   C     C_R   0.076477 0.933526 0.814067 -0.128073
C96   C     C_R   0.010589 0.012340 0.845046 0.032617
C97   C     C_R   0.917876 0.977903 0.884311 -0.119282
C98   C     C_R   0.894300 0.864796 0.893081 -0.177931
H35   H     H_    0.114326 0.762726 0.799182 0.104781
H36   H     H_    0.144262 0.959828 0.782781 0.125514
H37   H     H_    0.027075 0.100017 0.838166 0.147543
H38   H     H_    0.860468 0.038937 0.907513 0.127716
H39   H     H_    0.807673 0.842228 0.921536 0.115809
C99   C     C_R   0.956643 0.216525 0.134564 0.152863
C100  C     C_R   0.030070 0.179664 0.177313 -0.199686
C101  C     C_R   0.041836 0.066659 0.187818 -0.122399
C102  C     C_R   0.979620 0.987830 0.156066 0.020674
C103  C     C_R   0.895147 0.022270 0.115280 -0.124847
C104  C     C_R   0.874228 0.135328 0.106033 -0.174509
H40   H     H_    0.080332 0.237389 0.202913 0.104236
H41   H     H_    0.102705 0.040466 0.220287 0.135469
H42   H     H_    0.992328 0.900143 0.163412 0.151279
H43   H     H_    0.841395 0.961261 0.091284 0.127708
H44   H     H_    0.791752 0.157918 0.076461 0.114265
C105  C     C_R   0.471252 0.281184 0.131005 0.151008
C106  C     C_R   0.416917 0.323558 0.174440 -0.190197
C107  C     C_R   0.419896 0.437510 0.183576 -0.112237
C108  C     C_R   0.481541 0.511639 0.150127 0.003335
C109  C     C_R   0.547237 0.471443 0.108224 -0.129721
C110  C     C_R   0.547742 0.357332 0.099376 -0.188270
H45   H     H_    0.371039 0.269698 0.201723 0.099694
H46   H     H_    0.371971 0.468267 0.216532 0.127701
H47   H     H_    0.481556 0.600017 0.156945 0.139322
H48   H     H_    0.600695 0.528605 0.082793 0.137149
H49   H     H_    0.609358 0.329387 0.067562 0.128346
C111  C     C_R   0.494322 0.717739 0.867316 0.153990
C112  C     C_R   0.448285 0.676309 0.822871 -0.197796
C113  C     C_R   0.455716 0.562740 0.813175 -0.108740
C114  C     C_R   0.512504 0.488034 0.847200 0.001820
C115  C     C_R   0.568765 0.527319 0.890356 -0.133097
C116  C     C_R   0.566325 0.641146 0.899708 -0.187781
H50   H     H_    0.405478 0.730570 0.795171 0.100574
H51   H     H_    0.415361 0.532760 0.779259 0.137196
H52   H     H_    0.516267 0.399915 0.839946 0.144021
H53   H     H_    0.617918 0.469683 0.916355 0.139885
H54   H     H_    0.622657 0.668503 0.932476 0.128844
C117  C     C_R   0.508655 0.715997 0.634739 0.149631
C118  C     C_R   0.587392 0.678056 0.676684 -0.191733
C119  C     C_R   0.593676 0.565036 0.687461 -0.119077
C120  C     C_R   0.520073 0.487186 0.656877 0.005499
C121  C     C_R   0.430851 0.522800 0.616944 -0.137022
C122  C     C_R   0.417876 0.636069 0.607198 -0.169416
H55   H     H_    0.645122 0.734822 0.701559 0.104185
H56   H     H_    0.658746 0.537977 0.719277 0.125203
H57   H     H_    0.528065 0.399438 0.664475 0.148836
H58   H     H_    0.367205 0.462734 0.594076 0.141827
H59   H     H_    0.333386 0.659996 0.578212 0.115682
C123  C     C_R   0.478597 0.282638 0.369280 0.152475
C124  C     C_R   0.527652 0.324934 0.325440 -0.196715
C125  C     C_R   0.528604 0.439061 0.316828 -0.114665
C126  C     C_R   0.476505 0.513459 0.351283 0.018764
C127  C     C_R   0.415025 0.473368 0.393602 -0.111406
C128  C     C_R   0.409044 0.359141 0.401815 -0.193488
H60   H     H_    0.567312 0.270908 0.297502 0.099495
H61   H     H_    0.572580 0.469660 0.283518 0.135099
H62   H     H_    0.479988 0.601974 0.344901 0.140621
H63   H     H_    0.369019 0.530749 0.419901 0.124514
H64   H     H_    0.350135 0.331529 0.433995 0.128539
O21   O     O_3   0.079354 0.273950 0.540483 -0.784327
H65   H     H_    0.101723 0.200460 0.526012 0.314151
O22   O     O_3   0.832091 0.715618 0.457894 -0.779232
H66   H     H_    0.839933 0.793892 0.468425 0.311683
O23   O     O_3   0.916107 0.726582 0.042908 -0.782551
H67   H     H_    0.900496 0.801773 0.029412 0.315014
O24   O     O_3   0.912563 0.273740 0.956571 -0.782695
H68   H     H_    0.892993 0.198839 0.969926 0.314851
O25   O     O_3   0.321742 0.222110 0.956503 -0.780835
H69   H     H_    0.326520 0.299440 0.968316 0.309076
O26   O     O_3   0.329511 0.772100 0.040632 -0.781427
H70   H     H_    0.338116 0.695118 0.028581 0.308895
O27   O     O_3   0.419204 0.774276 0.459254 -0.784504
H71   H     H_    0.396275 0.700855 0.473665 0.313980
O28   O     O_3   0.667062 0.215760 0.542350 -0.779229
H72   H     H_    0.659446 0.294043 0.531886 0.311671

loop_
_geom_bond_atom_site_label_1
_geom_bond_atom_site_label_2
_geom_bond_distance
_ccdc_geom_bond_type
O14   V4    2.017991 S    
C40   C48   1.409707 A    
C125  H61   1.080912 S    
C22   C30   1.411978 A    
C21   C29   1.411627 A    
C100  C101  1.396909 A    
C66   O22   1.380749 S    
H20   C35   1.076753 S    
C23   C31   1.411890 A    
O4    C1    1.342111 A    
C19   C27   1.413002 A    
O9    C1    1.346363 A    
C112  H50   1.077555 S    
C15   C31   1.392316 A    
C105  C106  1.412470 A    
C14   C38   1.391587 A    
C69   O25   1.380874 S    
C102  C103  1.389488 A    
O12   C4    1.342875 A    
O8    C5    1.343500 A    
C60   C67   1.418210 A    
O13   C5    1.345559 A    
C101  C102  1.392858 A    
H12   C27   1.082297 S    
C11   C35   1.386645 A    
C99   C100  1.413774 A    
C81   C86   1.411661 A    
C10   C34   1.388468 A    
H6    C78   1.075260 S    
C90   C91   1.391456 A    
C18   C26   1.413509 A    
C122  H59   1.077182 S    
C113  H51   1.081337 S    
C17   C25   1.411875 A    
C111  C112  1.413292 A    
C72   O28   1.380819 S    
C9    C25   1.392354 A    
C95   H36   1.081827 S    
C106  C107  1.397081 A    
C49   C73   1.398489 A    
C38   C46   1.414409 A    
C120  H57   1.080845 S    
C92   H34   1.079884 S    
C37   C45   1.415629 A    
C116  H54   1.079803 S    
C44   C60   1.440316 A    
O24   H68   0.991964 S    
C13   C29   1.393456 A    
C84   C85   1.389014 A    
C39   C47   1.410674 A    
O1    C4    1.347678 A    
C53   C77   1.398549 A    
C59   C60   1.429691 A    
O16   C8    1.344000 A    
C120  C121  1.389122 A    
C55   C79   1.398484 A    
C110  H49   1.079896 S    
C19   C51   1.444068 A    
H22   C37   1.076397 S    
C33   C41   1.411052 A    
C4    C13   1.472408 S    
O10   C2    1.343926 A    
C128  H64   1.079887 S    
C85   H28   1.082210 S    
C95   C96   1.392396 A    
O7    C6    1.345039 A    
H19   C36   1.077121 S    
C16   C32   1.395072 A    
C101  H41   1.081882 S    
C108  H47   1.082016 S    
H18   C33   1.077431 S    
C21   C105  1.516169 S    
C8    C9    1.467736 S    
O6    V2    1.999371 S    
C100  H40   1.076670 S    
C123  C128  1.412954 A    
C62   C69   1.417238 A    
C65   O21   1.382762 S    
O27   H71   0.992228 S    
C47   C55   1.426806 A    
C61   C70   1.418973 A    
O25   H69   0.991693 S    
C97   C98   1.396545 A    
H10   C25   1.081708 S    
C90   H32   1.082119 S    
H11   C28   1.082477 S    
H24   C39   1.077457 S    
C67   C75   1.393638 A    
C58   C65   1.417335 A    
C19   C93   1.518040 S    
C124  C125  1.396807 A    
C43   C59   1.440519 A    
C57   C66   1.418923 A    
H1    C73   1.070769 S    
C87   C88   1.412928 A    
C42   C58   1.437399 A    
C83   H26   1.082017 S    
C45   C53   1.425359 A    
C86   H29   1.077184 S    
C44   C52   1.425130 A    
C67   O23   1.383773 S    
C123  C124  1.412715 A    
C125  C126  1.393081 A    
C24   C123  1.515192 S    
C24   C56   1.438766 A    
C84   H27   1.080739 S    
O17   V3    1.791097 S    
C46   C62   1.439891 A    
O18   V4    1.791096 S    
C117  C118  1.413178 A    
C41   C49   1.426786 A    
C115  C116  1.396794 A    
C52   C76   1.398032 A    
C1    C16   1.467837 S    
O8    V1    1.992607 S    
C7    C10   1.468299 S    
C2    C15   1.467238 S    
C20   C52   1.443762 A    
O23   H67   0.992198 S    
C3    C14   1.471868 S    
C48   C64   1.437003 A    
O3    V4    1.997533 S    
C23   C117  1.518044 S    
O26   H70   0.991839 S    
C56   C80   1.397864 A    
C5    C12   1.468620 S    
O11   C3    1.347921 A    
C63   C64   1.429708 A    
C93   C94   1.413149 A    
H3    C75   1.069575 S    
C6    C11   1.469087 S    
C72   C80   1.399230 A    
C126  C127  1.391489 A    
C114  H52   1.081702 S    
H16   C31   1.081738 S    
O20   V2    1.791354 S    
C119  H56   1.081933 S    
C93   C98   1.411231 A    
C36   C44   1.410964 A    
C96   C97   1.389984 A    
O2    C3    1.342413 A    
O11   V2    2.019498 S    
C13   C37   1.392511 A    
C88   H30   1.077123 S    
H2    C74   1.074891 S    
C22   C111  1.515822 S    
C108  C109  1.391260 A    
O21   H65   0.992299 S    
C82   H25   1.075338 S    
C115  H53   1.082242 S    
C127  C128  1.396692 A    
C21   C53   1.438544 A    
C48   C56   1.421077 A    
O4    V3    1.997531 S    
C121  H58   1.082198 S    
C9    C33   1.387361 A    
O9    V1    2.008784 S    
H5    C77   1.074843 S    
C83   C84   1.392966 A    
C11   C27   1.392811 A    
O22   H66   0.991463 S    
O19   V1    1.791355 S    
C10   C26   1.395138 A    
C51   C75   1.398553 A    
C117  C122  1.411667 A    
C57   C58   1.429994 A    
O5    V1    1.999369 S    
C102  H42   1.081056 S    
C50   C74   1.397871 A    
C23   C55   1.442446 A    
C94   H35   1.075566 S    
C68   C76   1.393671 A    
C91   H33   1.081718 S    
C15   C39   1.386998 A    
C97   H38   1.081506 S    
C111  C116  1.413412 A    
C89   H31   1.081052 S    
C14   C30   1.393002 A    
O3    C2    1.344006 A    
O12   V1    2.019500 S    
C42   C50   1.421094 A    
C118  C119  1.396963 A    
C54   C78   1.398539 A    
C87   C92   1.412987 A    
C98   H39   1.077902 S    
C64   C71   1.417326 A    
C17   C81   1.518225 S    
C124  H60   1.076991 S    
C22   C54   1.439107 A    
C41   C57   1.440306 A    
O15   C7    1.346367 A    
C104  H44   1.077792 S    
H14   C29   1.081399 S    
C20   C99   1.517464 S    
C70   O26   1.381191 S    
C20   C28   1.412059 A    
C65   C73   1.393475 A    
C35   C43   1.410967 A    
H13   C30   1.081368 S    
H7    C79   1.070744 S    
C81   C82   1.413399 A    
C126  H62   1.082145 S    
C34   C42   1.410033 A    
C127  H63   1.081674 S    
C91   C92   1.396658 A    
H23   C40   1.077139 S    
O5    C8    1.344116 A    
C68   O24   1.383684 S    
H21   C38   1.076706 S    
C118  H55   1.075221 S    
O16   V3    2.010698 S    
C17   C49   1.442562 A    
C114  C115  1.390648 A    
C24   C32   1.413474 A    
C107  C108  1.393236 A    
O2    V4    1.994686 S    
C61   C62   1.429426 A    
H15   C32   1.081674 S    
C12   C36   1.386909 A    
C18   C50   1.438888 A    
C112  C113  1.396705 A    
C85   C86   1.395862 A    
C103  C104  1.395831 A    
C105  C110  1.413788 A    
H17   C34   1.077062 S    
C12   C28   1.392738 A    
O6    C7    1.342267 A    
C121  C122  1.396004 A    
O1    V3    1.994688 S    
C119  C120  1.392926 A    
O10   V2    2.008787 S    
O15   V4    2.010701 S    
C59   C68   1.418333 A    
H4    C76   1.069558 S    
C103  H43   1.081344 S    
C71   O27   1.382776 S    
C107  H46   1.081180 S    
C99   C104  1.410882 A    
C66   C74   1.399302 A    
H9    C26   1.081646 S    
C96   H37   1.081416 S    
C18   C87   1.515431 S    
C94   C95   1.397221 A    
C46   C54   1.424110 A    
C109  C110  1.397305 A    
C82   C83   1.397131 A    
O28   H72   0.991517 S    
H8    C80   1.074859 S    
C89   C90   1.393079 A    
C63   C72   1.419021 A    
C47   C63   1.439963 A    
C70   C78   1.400352 A    
O7    V2    1.992605 S    
C43   C51   1.425289 A    
C113  C114  1.393438 A    
C88   C89   1.396917 A    
C69   C77   1.398711 A    
C106  H45   1.076341 S    
C16   C40   1.388166 A    
O14   C6    1.344244 A    
C109  H48   1.082404 S    
C45   C61   1.441646 A    
O13   V3    2.017993 S    
C71   C79   1.393416 A    
