data_mof_unit_41308.cif
_audit_creation_date              2012-12-11T15:41:33-0500
_audit_creation_method            fapswitch 2.2
_symmetry_space_group_name_H-M    P1
_symmetry_Int_Tables_number       1
_space_group_crystal_system       triclinic
_cell_length_a                    15.020889
_cell_length_b                    14.816888
_cell_length_c                    15.096282
_cell_angle_alpha                 108.602972
_cell_angle_beta                  110.138561
_cell_angle_gamma                 108.888605
_cell_volume                      2610.74016494

loop_
_atom_site_label
_atom_site_type_symbol
_atom_type_description
_atom_site_fract_x
_atom_site_fract_y
_atom_site_fract_z
_atom_type_partial_charge
C1    C     C_R   0.195475 0.993416 0.902210 -0.116600
C2    C     C_R   0.756590 0.940711 0.033487 -0.017306
C3    C     C_R   0.861599 0.300436 0.300180 -0.081686
C4    C     C_R   0.202310 0.674605 0.676690 -0.090894
C5    C     C_R   0.497212 0.024530 0.321837 0.023146
C6    C     C_R   0.499968 0.070302 0.703427 0.080798
C7    C     C_R   0.494087 0.324634 0.042759 0.069516
C8    C     C_R   0.501165 0.707341 0.083280 0.017293
C9    C     C_R   0.149734 0.243962 0.761540 -0.184375
C10   C     C_R   0.788914 0.907478 0.427974 -0.110029
C11   C     C_R   0.258571 0.315834 0.845718 0.514150
C12   C     C_R   0.693951 0.805016 0.354337 0.481784
C13   C     C_R   0.284946 0.341850 0.953177 -0.111481
C14   C     C_R   0.693495 0.726540 0.270593 -0.078996
C15   C     C_R   0.203926 0.295627 0.975777 -0.231435
C16   C     C_R   0.789467 0.747097 0.266360 -0.172309
C17   C     C_R   0.097199 0.223577 0.892575 -0.012260
C18   C     C_R   0.883676 0.846696 0.340899 -0.007447
C19   C     C_R   0.070037 0.199087 0.786528 -0.178348
C20   C     C_R   0.882910 0.926859 0.419735 -0.194968
C21   C     C_R   0.397950 0.533638 0.070474 -0.113351
C22   C     C_R   0.586201 0.524061 0.165514 -0.170731
C23   C     C_R   0.801529 0.208427 0.299715 0.405069
C24   C     C_R   0.234945 0.776796 0.685979 0.409743
C25   C     C_R   0.497943 0.626596 0.121717 0.089308
C26   C     C_R   0.489071 0.426582 0.085662 0.071065
C27   C     C_R   0.591679 0.625046 0.184234 0.115396
C28   C     C_R   0.391931 0.432634 0.043366 0.102145
C29   C     C_R   0.929421 0.475776 0.449234 0.484828
C30   C     C_R   0.138298 0.497123 0.528206 0.529589
C31   C     C_R   0.014132 0.566767 0.543048 -0.187076
C32   C     C_R   0.052975 0.405049 0.433657 -0.191090
C33   C     C_R   0.117575 0.577610 0.580944 -0.017771
C34   C     C_R   0.950024 0.395880 0.394678 -0.019659
C35   C     C_R   0.555993 0.159443 0.602842 -0.061809
C36   C     C_R   0.432656 0.946192 0.422301 -0.070917
C37   C     C_R   0.555699 0.142554 0.506905 -0.208402
C38   C     C_R   0.432350 0.963496 0.516959 -0.091383
C39   C     C_R   0.494659 0.037547 0.418154 0.082417
C40   C     C_R   0.494351 0.067755 0.606586 0.066287
C41   C     C_R   0.059393 0.035007 0.019147 -0.066230
C42   C     C_R   0.850637 0.851776 0.863057 -0.065645
C43   C     C_R   0.968094 0.036155 0.018749 -0.182938
C44   C     C_R   0.942539 0.850799 0.862755 -0.157806
C45   C     C_R   0.406777 0.962233 0.220658 -0.170262
C46   C     C_R   0.590650 0.094924 0.791429 -0.027116
C47   C     C_R   0.865734 0.945922 0.942654 0.085793
C48   C     C_R   0.044695 0.941134 0.939751 0.105826
C49   C     C_R   0.587526 0.314672 0.060095 -0.011638
C50   C     C_R   0.411522 0.708093 0.016836 0.020876
C51   C     C_R   0.589930 0.050040 0.313752 -0.053416
C52   C     C_R   0.410626 0.012552 0.706383 -0.078581
C53   C     C_R   0.406422 0.220821 0.972690 -0.113129
C54   C     C_R   0.590141 0.794314 0.103011 -0.070445
C55   C     C_R   0.801527 0.299614 0.208153 0.436731
C56   C     C_R   0.235946 0.684542 0.777776 0.458081
C57   C     C_R   0.199315 0.908784 0.000397 -0.152854
C58   C     C_R   0.748319 0.027030 0.935572 -0.122589
C59   C     C_R   0.136936 0.937549 0.937658 0.027384
C60   C     C_R   0.779028 0.954435 0.955403 0.122469
H1    H     H_    0.223243 0.317965 0.058309 0.194212
H2    H     H_    0.790309 0.687299 0.203068 0.181544
H3    H     H_    0.034849 0.188176 0.910481 0.142174
H4    H     H_    0.957034 0.862805 0.336131 0.168289
H5    H     H_    0.323211 0.535168 0.033091 0.141761
H6    H     H_    0.659251 0.522366 0.209363 0.166470
H7    H     H_    0.999813 0.629363 0.586686 0.194047
H8    H     H_    0.066304 0.341172 0.390831 0.209541
H9    H     H_    0.602051 0.211087 0.500436 0.139857
H10   H     H_    0.388605 0.893606 0.523269 0.194255
H11   H     H_    0.976017 0.106774 0.079327 0.176914
H12   H     H_    0.935242 0.780111 0.803001 0.133657
H13   H     H_    0.322608 0.925509 0.199983 0.110776
H14   H     H_    0.674199 0.147182 0.817095 0.119379
H15   H     H_    0.670215 0.379432 0.111613 0.160838
H16   H     H_    0.331560 0.668365 0.005566 0.138181
H17   H     H_    0.672462 0.093448 0.378933 0.163508
H18   H     H_    0.330093 0.997573 0.658137 0.181007
H19   H     H_    0.322988 0.194912 0.948517 0.087878
H20   H     H_    0.671555 0.828612 0.165599 0.092803
H21   H     H_    0.173742 0.856146 0.032610 0.134844
H22   H     H_    0.764129 0.063455 0.887276 0.123724
H23   H     H_    0.986335 0.144086 0.723723 0.137209
H24   H     H_    0.956633 0.004127 0.475177 0.150196
N1    N     N_R   0.293810 0.002730 0.945950 -0.080389
N2    N     N_R   0.706190 0.997270 0.054050 -0.087231
N3    N     N_R   0.706160 0.152130 0.208910 -0.110687
N4    N     N_R   0.293840 0.847870 0.791090 -0.122795
N5    N     N_R   0.443140 0.945920 0.152090 -0.048647
N6    N     N_R   0.556860 0.054080 0.847910 -0.051396
N7    N     N_R   0.556830 0.208940 0.002760 -0.042541
N8    N     N_R   0.443170 0.791060 0.997240 -0.047422
N9    N     N_R   0.556790 0.002750 0.208910 -0.047806
N10   N     N_R   0.443210 0.997250 0.791090 -0.051830
N11   N     N_R   0.443180 0.152110 0.945950 -0.057988
N12   N     N_R   0.556820 0.847890 0.054050 -0.053354
N13   N     N_R   0.706170 0.208950 0.152090 -0.116958
N14   N     N_R   0.293830 0.791050 0.847910 -0.117764
N15   N     N_R   0.293800 0.945910 0.002760 -0.044043
N16   N     N_R   0.706200 0.054090 0.997240 -0.055431
Ni1   Ni    Ni4+2 0.369690 0.999990 0.869700 0.240493
Ni2   Ni    Ni4+2 0.630310 0.000010 0.130300 0.244174
Ni3   Ni    Ni4+2 0.369670 0.869670 0.000000 0.244536
Ni4   Ni    Ni4+2 0.630330 0.130330 0.000000 0.289970
C61   C     C_2   0.149514 0.005533 0.805929 0.540701
H25   H     H_    0.201273 0.038204 0.776147 0.027980
O1    O     O_2   0.052925 0.976342 0.757029 -0.576513
C62   C     C_2   0.809063 0.903826 0.105362 0.496598
H26   H     H_    0.826606 0.939293 0.188223 0.047911
O2    O     O_2   0.835633 0.835762 0.073668 -0.560951
C63   C     C_2   0.114831 0.217838 0.647890 0.669396
H27   H     H_    0.031808 0.193665 0.594030 0.011894
O3    O     O_2   0.176675 0.220706 0.612187 -0.483604
C64   C     C_2   0.793211 0.997758 0.511859 0.612910
H28   H     H_    0.856490 0.080453 0.547101 -0.004005
O4    O     O_2   0.727968 0.982166 0.543515 -0.535153
Cl1   Cl    Cl    0.361122 0.381369 0.820324 -0.502740
Cl2   Cl    Cl    0.575941 0.772308 0.366165 -0.613206
Cl3   Cl    Cl    0.798732 0.463489 0.404460 -0.654145
Cl4   Cl    Cl    0.269000 0.510173 0.578118 -0.470061
C65   C     C_2   0.618951 0.272508 0.694250 0.581869
H29   H     H_    0.675794 0.336895 0.690701 0.025651
O5    O     O_2   0.606359 0.296137 0.772607 -0.534869
C66   C     C_2   0.374439 0.831772 0.333096 0.634780
H30   H     H_    0.394862 0.810486 0.269991 0.032813
O6    O     O_2   0.303440 0.758865 0.329913 -0.518479
C67   C     C_2   0.168537 0.130696 0.103545 0.503082
H31   H     H_    0.241802 0.132235 0.105452 0.029313
O7    O     O_2   0.178152 0.209673 0.172947 -0.543217
C68   C     C_2   0.742959 0.754144 0.780458 0.643246
H32   H     H_    0.738320 0.683687 0.723120 0.023050
O8    O     O_2   0.658645 0.750587 0.774497 -0.524075
Cl5   Cl    Cl    0.857188 0.152455 0.375144 -0.768096
Cl6   Cl    Cl    0.178143 0.804266 0.581629 -0.654746
Cl7   Cl    Cl    0.856225 0.376164 0.153907 -0.613833
Cl8   Cl    Cl    0.181831 0.579053 0.804801 -0.656171

loop_
_geom_bond_atom_site_label_1
_geom_bond_atom_site_label_2
_ccdc_geom_bond_type
C9    C63   S    
N15   Ni3   S    
C38   H10   S    
C37   H9    S    
C53   N11   A    
C41   C67   S    
C3    C23   A    
C63   H27   S    
C56   N14   A    
N7    Ni4   S    
C67   O7    D    
C64   H28   S    
C31   H7    S    
C29   Cl3   S    
C7    C26   S    
C16   H2    S    
C53   H19   S    
N12   Ni2   S    
C1    C59   A    
C4    C24   A    
C52   H18   S    
C57   C59   A    
C58   C60   A    
N14   Ni3   S    
C57   N15   A    
N8    N12   A    
C62   H26   S    
C45   H13   S    
C2    N2    A    
C2    C62   S    
C22   H6    S    
N8    Ni3   S    
C47   C60   S    
C3    C55   A    
C9    C19   A    
N16   Ni4   S    
N10   Ni1   S    
C10   C20   A    
C49   H15   S    
C13   C28   S    
C52   N10   A    
C14   C27   S    
N2    N16   A    
C54   N12   A    
C10   C64   S    
C32   H8    S    
C21   H5    S    
C38   C40   A    
C23   N3    A    
C4    C56   A    
C8    C25   S    
C41   C43   A    
C2    C60   A    
C42   C44   A    
C49   N7    A    
C19   H23   S    
C56   Cl8   S    
N6    N10   A    
C54   H20   S    
C1    N1    A    
C23   Cl5   S    
C35   C40   A    
C35   C65   S    
C6    C40   S    
C58   N16   A    
C7    C49   A    
C42   C68   S    
C8    C54   A    
C3    C34   S    
C5    C45   A    
C29   C34   A    
C32   C34   A    
C68   O8    D    
C51   H17   S    
N1    N15   A    
C50   H16   S    
N3    Ni2   S    
C61   O1    D    
C13   C15   A    
C55   N13   A    
C31   C33   A    
C15   H1    S    
C63   O3    D    
C16   C18   A    
C9    C11   A    
N6    Ni4   S    
C65   H29   S    
C10   C12   A    
C51   N9    A    
C12   Cl2   S    
C50   N8    A    
C21   C28   A    
C12   C14   A    
C22   C27   A    
C20   H24   S    
C14   C16   A    
C7    C53   A    
C67   H31   S    
C11   Cl1   S    
C8    C50   A    
C46   H14   S    
N1    Ni1   S    
C35   C37   A    
C48   C59   S    
C66   O6    D    
C24   Cl6   S    
C15   C17   A    
C5    C39   S    
C21   C25   A    
C4    C33   S    
C43   H11   S    
C45   N5    A    
C6    C46   A    
C30   C33   A    
C36   C66   S    
C24   N4    A    
C36   C39   A    
N4    Ni1   S    
N9    Ni2   S    
C64   O4    D    
C46   N6    A    
C25   C27   A    
C61   H25   S    
C26   C28   A    
C58   H22   S    
C68   H32   S    
C29   C31   A    
C17   H3    S    
C30   C32   A    
C11   C13   A    
C18   H4    S    
C30   Cl4   S    
C55   Cl7   S    
C36   C38   A    
C17   C19   A    
C41   C48   A    
C62   O2    D    
C44   H12   S    
C18   C20   A    
C42   C47   A    
N5    N9    A    
C57   H21   S    
C65   O5    D    
N13   Ni4   S    
N7    N11   A    
N11   Ni1   S    
C37   C39   A    
C22   C26   A    
C5    C51   A    
N5    Ni3   S    
C6    C52   A    
C43   C47   A    
N4    N14   A    
C44   C48   A    
C1    C61   S    
C66   H30   S    
N3    N13   A    
N2    Ni2   S    
