data_mof_unit_61066.cif
_audit_creation_date              2012-12-10T19:47:34-0500
_audit_creation_method            fapswitch 2.2
_symmetry_space_group_name_H-M    P1
_symmetry_Int_Tables_number       1
_space_group_crystal_system       triclinic
_cell_length_a                    18.346045
_cell_length_b                    18.305571
_cell_length_c                    18.355292
_cell_angle_alpha                 119.897165
_cell_angle_beta                  90.155142
_cell_angle_gamma                 119.898758
_cell_volume                      4366.37926938

loop_
_atom_site_label
_atom_site_type_symbol
_atom_type_description
_atom_site_fract_x
_atom_site_fract_y
_atom_site_fract_z
_atom_type_partial_charge
C1    C     C_R   0.639804 0.779868 0.638414 0.900298
C2    C     C_R   0.247564 0.946173 0.158581 0.571999
C3    C     C_R   0.203082 0.891450 0.195443 -0.320472
C4    C     C_R   0.360777 0.220049 0.359991 0.928181
C5    C     C_R   0.223874 0.946676 0.287971 -0.143831
C6    C     C_3   0.166807 0.941329 0.346006 0.444969
C7    C     C_3   0.226281 0.059148 0.404551 1.088901
C8    C     C_R   0.786994 0.564475 0.338850 0.010511
C9    C     C_R   0.694563 0.498956 0.303631 -0.034538
C10   C     C_R   0.655647 0.430782 0.209787 -0.179442
C11   C     C_R   0.709691 0.430783 0.155680 -0.176958
C12   C     C_3   0.701483 0.402689 0.641631 -0.074784
C13   C     C_R   0.803574 0.498960 0.194493 -0.078692
C14   C     C_R   0.838871 0.564494 0.286878 0.019695
C15   C     C_3   0.923358 0.648269 0.364238 0.556940
C16   C     C_R   0.360168 0.499940 0.639818 0.858155
C17   C     C_3   0.864138 0.648135 0.423588 -0.493662
C18   C     C_R   0.786663 0.946365 0.725985 -0.197556
C19   C     C_R   0.695522 0.891151 0.684948 -0.120707
C20   C     C_R   0.660809 0.944725 0.685100 0.589747
C21   C     C_R   0.714672 0.053139 0.737838 -0.179647
C22   C     C_R   0.803752 0.108117 0.791794 -0.105722
C23   C     C_3   0.698467 0.500345 0.700076 -0.160834
C24   C     C_R   0.839649 0.052580 0.778290 -0.104387
C25   C     C_3   0.895207 0.058747 0.843578 0.479262
C26   C     C_3   0.835470 0.941513 0.786731 0.518397
C27   C     C_R   0.284790 0.570822 0.338448 -0.020933
C28   C     C_R   0.639771 0.499931 0.360110 0.811905
C29   C     C_R   0.291965 0.488493 0.304727 -0.106435
C30   C     C_R   0.232125 0.396399 0.219760 -0.091125
C31   C     C_R   0.179652 0.397087 0.164330 -0.078231
C32   C     C_R   0.184951 0.488534 0.196158 -0.180041
C33   C     C_R   0.231086 0.569997 0.285784 0.088579
C34   C     C_3   0.801655 0.501330 0.802115 -0.125918
C35   C     C_3   0.293575 0.683698 0.329960 0.487805
C36   C     C_3   0.353205 0.684967 0.389253 -0.285065
C37   C     C_R   0.272745 0.559644 0.720863 0.088972
C38   C     C_R   0.304576 0.498993 0.695301 -0.153212
C39   C     C_R   0.280393 0.435418 0.725535 -0.251089
C40   C     C_R   0.357277 0.498112 0.359318 0.823338
C41   C     C_R   0.226371 0.434805 0.779524 0.636947
C42   C     C_R   0.195333 0.498197 0.804191 -0.221577
C43   C     C_R   0.220392 0.558960 0.772394 -0.006741
C44   C     C_3   0.213314 0.636945 0.772961 -0.189338
C45   C     C_3   0.729269 0.510921 0.843054 -0.320358
C46   C     C_3   0.272634 0.637056 0.713428 -0.435081
C47   C     C_R   0.860041 0.499897 0.139699 0.819494
C48   C     C_R   0.139815 0.499671 0.860037 0.839341
C49   C     C_R   0.140669 0.779839 0.139795 0.889704
C50   C     C_R   0.859786 0.219880 0.857658 0.882140
C51   C     C_R   0.139224 0.498069 0.140631 0.810115
C52   C     C_R   0.641074 0.500570 0.641815 0.789845
C53   C     C_R   0.859042 0.501016 0.859803 0.856327
C54   C     C_3   0.797563 0.600254 0.743572 -0.399377
C55   C     C_3   0.858821 0.592605 0.793210 0.463582
C56   C     C_3   0.752216 0.397380 0.706491 -0.322331
C57   C     C_3   0.661054 0.496875 0.777016 0.490215
C58   C     C_1   0.805111 0.697370 0.802430 0.352681
C59   C     C_1   0.073137 0.894216 0.301848 0.171834
C60   C     C_1   0.676252 0.104822 0.735885 0.340689
C61   C     C_1   0.880960 0.892571 0.744072 0.126270
C62   C     C_1   0.224778 0.301990 0.188416 0.245917
C63   C     C_1   0.124232 0.305284 0.074806 0.304577
C64   C     C_1   0.439565 0.713123 0.374842 0.198006
C65   C     C_1   0.121712 0.593599 0.726817 0.313573
C66   C     C_1   0.637030 0.571143 0.822102 0.196936
C67   C     C_R   0.277760 0.052955 0.341225 -0.150973
C68   C     C_1   0.770838 0.607122 0.934403 0.235429
C69   C     C_1   0.611322 0.304611 0.588269 0.323752
C70   C     C_1   0.744505 0.409844 0.574680 0.123915
C71   C     C_1   0.812125 0.366328 0.671332 0.163936
C72   C     C_R   0.311811 0.108406 0.304058 -0.307487
C73   C     C_R   0.301459 0.053981 0.212514 0.554894
F1    F     F_    0.581688 0.401003 0.740478 -0.626981
F2    F     F_    0.783114 0.901044 0.828435 -0.596604
F3    F     F_    0.256124 0.734244 0.377109 -0.547816
F4    F     F_    0.205472 0.372643 0.807228 -0.614872
F5    F     F_    0.916643 0.685190 0.875911 -0.617846
F6    F     F_    0.340273 0.104118 0.174063 -0.585688
F7    F     F_    0.236568 0.896356 0.070190 -0.585589
F8    F     F_    0.175052 0.898676 0.387359 -0.548820
F9    F     F_    0.184381 0.105178 0.406099 -0.688520
F10   F     F_    0.276757 0.101901 0.488602 -0.558919
F11   F     F_    0.972375 0.612995 0.371997 -0.574106
F12   F     F_    0.574499 0.892455 0.636466 -0.642117
F13   F     F_    0.885687 0.102421 0.926662 -0.589107
H1    H     H_    0.702708 0.336024 0.714004 0.202738
H2    H     H_    0.901611 0.577547 0.753622 0.128670
H3    H     H_    0.321636 0.704194 0.284089 0.054815
H4    H     H_    0.358930 0.727250 0.460684 0.240215
H5    H     H_    0.303195 0.386313 0.707886 0.232772
H6    H     H_    0.245134 0.710708 0.840156 0.202050
H7    H     H_    0.238992 0.604170 0.643713 0.215442
H8    H     H_    0.339963 0.710993 0.746856 0.222131
H9    H     H_    0.691383 0.447273 0.851560 0.212342
H10   H     H_    0.583899 0.377592 0.178030 0.196852
H11   H     H_    0.823461 0.606058 0.690620 0.178047
H12   H     H_    0.677863 0.377599 0.083975 0.190537
H13   H     H_    0.962108 0.720172 0.367233 0.106111
H14   H     H_    0.869906 0.620661 0.463924 0.251286
H15   H     H_    0.866561 0.719745 0.460227 0.180089
H16   H     H_    0.965395 0.093563 0.844644 0.055897
N1    N     N_1   0.811681 0.773656 0.849125 -0.063494
N2    N     N_1   0.803268 0.682018 0.005670 -0.124757
N3    N     N_1   0.540943 0.227924 0.546479 -0.090596
N4    N     N_1   0.777937 0.415491 0.522572 -0.152703
N5    N     N_1   0.858787 0.342092 0.644101 -0.170462
N6    N     N_1   0.999545 0.857021 0.267091 -0.172673
N7    N     N_1   0.645450 0.146069 0.734133 -0.150089
N8    N     N_1   0.916600 0.853850 0.710409 -0.154005
N9    N     N_1   0.218765 0.226689 0.163373 -0.103549
N10   N     N_1   0.080820 0.231716 0.003262 -0.123642
N11   N     N_1   0.507442 0.735218 0.363610 -0.169653
N12   N     N_1   0.049639 0.559572 0.690627 -0.171598
N13   N     N_1   0.617811 0.628587 0.857036 -0.164070
O1    O     O_3   0.500000 0.500000 0.500000 -0.532646
O2    O     O_R   0.945140 0.268320 0.884430 -0.620785
O3    O     O_R   0.116800 0.560590 0.177500 -0.582350
O4    O     O_R   0.676800 0.731580 0.616070 -0.646447
O5    O     O_R   0.822390 0.439230 0.883130 -0.665040
O6    O     O_R   0.116800 0.439160 0.056060 -0.636707
O7    O     O_R   0.943840 0.560660 0.883130 -0.590337
O8    O     O_R   0.115490 0.731510 0.054770 -0.569953
O9    O     O_R   0.823160 0.268340 0.883890 -0.651218
O10   O     O_R   0.945140 0.560620 0.176740 -0.604756
O11   O     O_R   0.116030 0.439190 0.884430 -0.578208
O12   O     O_R   0.384470 0.439280 0.616070 -0.618489
O13   O     O_R   0.384470 0.268410 0.445190 -0.599408
O14   O     O_R   0.383920 0.560720 0.615530 -0.641899
O15   O     O_R   0.554810 0.439290 0.323210 -0.636526
O16   O     O_R   0.383160 0.560750 0.443890 -0.627940
O17   O     O_R   0.677560 0.560680 0.616830 -0.647867
O18   O     O_R   0.383160 0.439320 0.322450 -0.641933
O19   O     O_R   0.556120 0.439250 0.616830 -0.587146
O20   O     O_R   0.676800 0.560710 0.445190 -0.639554
O21   O     O_R   0.554810 0.731590 0.615530 -0.585162
O22   O     O_R   0.383920 0.268420 0.323210 -0.586500
O23   O     O_3   0.999960 0.499910 0.999960 -0.538540
O24   O     O_R   0.823160 0.439210 0.054770 -0.647503
O25   O     O_R   0.115490 0.560640 0.883890 -0.647979
O26   O     O_R   0.116030 0.731490 0.176740 -0.610145
Zn1   Zn    Zn3+2 0.457010 0.413240 0.543760 1.071804
Zn2   Zn    Zn3+2 0.456230 0.586760 0.542990 1.027188
Zn3   Zn    Zn3+2 0.456230 0.413270 0.369490 1.028259
Zn4   Zn    Zn3+2 0.630520 0.586730 0.543760 0.989500
Zn5   Zn    Zn3+2 0.042950 0.586670 0.956190 1.046913
Zn6   Zn    Zn3+2 0.043720 0.586650 0.130470 1.081219
Zn7   Zn    Zn3+2 0.043720 0.413150 0.956960 1.039495
Zn8   Zn    Zn3+2 0.869430 0.413180 0.956190 0.987713

loop_
_geom_bond_atom_site_label_1
_geom_bond_atom_site_label_2
_ccdc_geom_bond_type
C7    F10   S    
C12   C69   S    
C34   C56   S    
C71   N5    T    
C27   C29   A    
C50   O2    A    
C52   O19   A    
C41   C42   A    
C35   C36   S    
C18   C26   S    
C57   C66   S    
C5    C67   A    
C3    C49   S    
C53   O5    A    
C39   C41   A    
C27   C33   A    
C46   H7    S    
C12   C23   S    
C45   C57   S    
O5    Zn8   S    
C29   C30   A    
O2    Zn7   S    
C18   C24   A    
O1    Zn4   S    
O3    Zn6   S    
C26   C61   S    
C18   C19   A    
O21   Zn2   S    
C53   O7    A    
C41   F4    S    
C30   C31   A    
C25   H16   S    
C49   O8    A    
C63   N10   T    
C51   O3    A    
C23   C57   S    
C67   C72   A    
C1    O4    A    
C55   H2    S    
C17   H15   S    
C60   N7    T    
C4    O22   A    
O1    Zn3   S    
C62   N9    T    
C19   C20   A    
O23   Zn7   S    
C8    C9    A    
O20   Zn4   S    
C49   O26   A    
C8    C14   A    
O8    Zn5   S    
C54   H11   S    
C1    O21   A    
O15   Zn3   S    
C9    C10   A    
C44   H6    S    
C22   C50   S    
C34   C55   S    
C6    F8    S    
C21   C22   A    
C44   C65   S    
C61   N8    T    
C39   H5    S    
C17   H14   S    
C44   C46   S    
C47   O10   A    
O23   Zn8   S    
C38   C39   A    
C35   F3    S    
C1    C19   S    
C66   N13   T    
C48   O25   A    
C52   O17   A    
C31   C63   S    
C50   O9    A    
C24   C25   S    
C21   C60   S    
C70   N4    T    
O25   Zn5   S    
C13   C47   S    
C55   F5    S    
C4    O13   A    
C56   H1    S    
C25   C26   S    
C48   O11   A    
O24   Zn8   S    
O12   Zn1   S    
C57   F1    S    
C37   C43   A    
C43   C44   S    
C32   C51   S    
C37   C38   A    
O19   Zn1   S    
O1    Zn2   S    
C31   C32   A    
C46   H8    S    
C65   N12   T    
C10   H10   S    
O23   Zn6   S    
C56   C71   S    
C20   F12   S    
C45   C68   S    
C26   F2    S    
C73   F6    S    
O6    Zn7   S    
C34   C45   S    
C42   C48   S    
C16   O14   A    
C15   F11   S    
C12   C56   S    
C2    C73   A    
O1    Zn1   S    
C35   H3    S    
O22   Zn3   S    
C11   H12   S    
O10   Zn6   S    
C51   O6    A    
C22   C24   A    
C42   C43   A    
O17   Zn4   S    
C45   H9    S    
C4    C72   S    
O16   Zn2   S    
C23   C54   S    
C54   C58   S    
C36   H4    S    
C15   C17   S    
C12   C70   S    
C54   C55   S    
O18   Zn3   S    
C69   N3    T    
C64   N11   T    
C6    C59   S    
C40   O16   A    
C68   N2    T    
C28   O20   A    
C15   H13   S    
C72   C73   A    
C3    C5    A    
C6    C7    S    
O14   Zn2   S    
C27   C36   S    
O4    Zn4   S    
C40   O18   A    
C59   N6    T    
C32   C33   A    
C30   C62   S    
C2    C3    A    
C36   C64   S    
C8    C17   S    
C11   C13   A    
C23   C52   S    
C5    C6    S    
O11   Zn7   S    
O23   Zn5   S    
C29   C40   S    
O9    Zn8   S    
C25   F13   S    
C33   C35   S    
C28   O15   A    
O7    Zn5   S    
C16   O12   A    
C2    F7    S    
C10   C11   A    
O26   Zn6   S    
C7    C67   S    
C7    F9    S    
C20   C21   A    
C34   C53   S    
C47   O24   A    
C14   C15   S    
C58   N1    T    
C37   C46   S    
C13   C14   A    
O13   Zn1   S    
C9    C28   S    
C16   C38   S    
