data_mof_unit_5412.cif
_audit_creation_date              2012-12-11T15:48:53-0500
_audit_creation_method            fapswitch 2.2
_symmetry_space_group_name_H-M    P1
_symmetry_Int_Tables_number       1
_space_group_crystal_system       triclinic
_cell_length_a                    10.926361
_cell_length_b                    10.922538
_cell_length_c                    18.789773
_cell_angle_alpha                 90.701001
_cell_angle_beta                  90.50178
_cell_angle_gamma                 60.552827
_cell_volume                      1952.58101651

loop_
_atom_site_label
_atom_site_type_symbol
_atom_type_description
_atom_site_fract_x
_atom_site_fract_y
_atom_site_fract_z
_atom_type_partial_charge
C1    C     C_R   0.239887 0.645448 0.610506 0.542417
C2    C     C_R   0.578294 0.140555 0.709464 -0.180485
C3    C     C_R   0.574761 0.147363 0.782635 -0.171726
C4    C     C_R   0.654000 0.622425 0.600814 0.539567
C5    C     C_3   0.935914 0.090931 0.786447 -0.270764
C6    C     C_3   0.930868 0.098579 0.705878 -0.281127
C7    C     C_R   0.674710 0.163509 0.672049 0.015357
C8    C     C_R   0.181329 0.667016 0.835278 0.011755
C9    C     C_R   0.154371 0.575530 0.793947 0.017928
C10   C     C_R   0.163062 0.573263 0.720142 -0.004380
C11   C     C_R   0.215595 0.762586 0.726412 -0.171676
C12   C     C_3   0.669856 0.550993 0.799483 -0.254011
C13   C     C_R   0.214809 0.759277 0.800350 -0.179295
C14   C     C_3   0.227830 0.419134 0.797246 -0.283546
C15   C     C_3   0.234964 0.417225 0.716744 -0.270809
C16   C     C_R   0.630367 0.225401 0.601832 0.537468
C17   C     C_R   0.195974 0.665112 0.684963 0.011652
C18   C     C_R   0.668637 0.681601 0.173083 0.011430
C19   C     C_R   0.774057 0.568873 0.209627 0.026129
C20   C     C_R   0.774607 0.560076 0.281873 0.024102
C21   C     C_R   0.566029 0.787072 0.288143 -0.169992
C22   C     C_R   0.568572 0.796957 0.213425 -0.165797
C23   C     C_3   0.698323 0.673771 0.812294 0.051284
C24   C     C_3   0.832498 0.415382 0.197633 -0.283896
C25   C     C_3   0.831861 0.404309 0.277688 -0.267586
C26   C     C_R   0.665008 0.662763 0.322319 0.017109
C27   C     C_R   0.662932 0.138020 0.179795 0.019842
C28   C     C_R   0.218905 0.650643 0.401901 0.541818
C29   C     C_R   0.552457 0.139267 0.216091 0.048247
C30   C     C_R   0.547026 0.145387 0.288909 -0.004074
C31   C     C_R   0.775349 0.129037 0.293276 -0.169317
C32   C     C_R   0.778544 0.125415 0.219151 -0.172345
C33   C     C_3   0.396864 0.229516 0.207623 0.004068
C34   C     C_3   0.670048 0.648146 0.676225 0.057997
C35   C     C_3   0.389257 0.234869 0.288339 -0.215047
C36   C     C_R   0.652173 0.154936 0.328087 0.013105
C37   C     C_R   0.048594 0.730329 0.195230 0.012218
C38   C     C_R   0.065903 0.831136 0.233375 0.024756
C39   C     C_R   0.103984 0.811966 0.303634 0.027915
C40   C     C_R   0.643091 0.623891 0.392926 0.542129
C41   C     C_R   0.092647 0.596845 0.304496 -0.154791
C42   C     C_R   0.051745 0.617666 0.232515 -0.131947
C43   C     C_3   0.158246 0.893602 0.217693 -0.270193
C44   C     C_3   0.197571 0.875312 0.295133 -0.270233
C45   C     C_3   0.815608 0.633272 0.690769 -0.248541
C46   C     C_R   0.131103 0.688502 0.338424 0.009664
C47   C     C_R   0.702068 0.100096 0.895293 0.543675
C48   C     C_R   0.722927 0.687776 0.888358 0.544113
C49   C     C_R   0.119383 0.705368 0.906097 0.545318
C50   C     C_R   0.677096 0.103895 0.105139 0.539757
C51   C     C_R   0.697715 0.692342 0.098755 0.538164
C52   C     C_R   0.617571 0.225834 0.396150 0.541893
C53   C     C_R   0.026829 0.747349 0.118758 0.564337
C54   C     C_3   0.572124 0.810020 0.782467 -0.233263
C55   C     C_3   0.556613 0.795764 0.702004 -0.239448
C56   C     C_3   0.655165 0.534794 0.719160 -0.212545
C57   C     C_3   0.832770 0.646050 0.771112 -0.216424
C58   C     C_3   0.418764 0.448587 0.191221 -0.276112
C59   C     C_R   0.682613 0.152129 0.822313 0.015735
C60   C     C_R   0.780373 0.173611 0.785068 -0.007207
C61   C     C_R   0.774472 0.182492 0.710929 0.011565
Cr1   Cr    Cr6+3 0.392960 0.397920 0.502240 0.999477
Cr2   Cr    Cr6+3 0.398340 0.708480 0.501250 0.999696
Cr3   Cr    Cr6+3 0.708670 0.393570 0.496460 1.001689
Cr4   Cr    Cr6+3 0.937650 0.938540 0.007610 0.997891
Cr5   Cr    Cr6+3 0.625330 0.937370 0.994520 0.995758
Cr6   Cr    Cr6+3 0.937940 0.625230 0.001190 1.001338
H1    H     H_    0.739554 0.429536 0.702482 0.149197
H2    H     H_    0.236361 0.839438 0.701967 0.132771
H3    H     H_    0.473161 0.832805 0.809914 0.116169
H4    H     H_    0.230425 0.836304 0.829932 0.129366
H5    H     H_    0.331363 0.376970 0.824149 0.143035
H6    H     H_    0.342730 0.373498 0.695893 0.179337
H7    H     H_    0.169249 0.377849 0.690559 0.123706
H8    H     H_    0.483162 0.872196 0.318218 0.123595
H9    H     H_    0.492104 0.892560 0.187581 0.129551
H10   H     H_    0.940116 0.364555 0.174829 0.139872
H11   H     H_    0.757099 0.390176 0.170047 0.131395
H12   H     H_    0.923110 0.546026 0.789543 0.143784
H13   H     H_    0.753481 0.375873 0.296566 0.167498
H14   H     H_    0.449970 0.812486 0.690771 0.137491
H15   H     H_    0.938779 0.344298 0.301300 0.130216
H16   H     H_    0.861781 0.128330 0.322310 0.130084
H17   H     H_    0.869165 0.117253 0.192471 0.137694
H18   H     H_    0.346276 0.172004 0.183372 0.117537
H19   H     H_    0.350255 0.341080 0.311766 0.178371
H20   H     H_    0.337519 0.177380 0.309837 0.094214
H21   H     H_    0.106423 0.503433 0.330987 0.122933
H22   H     H_    0.035439 0.539535 0.204817 0.152150
H23   H     H_    0.900677 0.529639 0.671419 0.132942
H24   H     H_    0.100353 0.005572 0.201983 0.124932
H25   H     H_    0.567506 0.878204 0.673207 0.113161
H26   H     H_    0.248741 0.825636 0.182743 0.150463
H27   H     H_    0.310283 0.798127 0.303548 0.160842
H28   H     H_    0.157979 0.976556 0.324651 0.130132
H29   H     H_    0.856769 0.732595 0.781804 0.126323
H30   H     H_    0.826292 0.716309 0.662303 0.115934
H31   H     H_    0.757547 0.451801 0.821056 0.131090
H32   H     H_    0.571760 0.571326 0.827061 0.119481
H33   H     H_    0.552244 0.540563 0.707698 0.128133
H34   H     H_    0.496710 0.128864 0.682275 0.128775
H35   H     H_    0.590500 0.899540 0.792325 0.145578
H36   H     H_    0.159578 0.378837 0.818008 0.131326
H37   H     H_    0.325784 0.368156 0.121405 0.268288
H38   H     H_    0.345958 0.560351 0.178679 0.153883
H39   H     H_    0.513668 0.413408 0.157879 0.128936
H40   H     H_    0.448097 0.442430 0.248203 0.148872
H41   H     H_    0.491968 0.136073 0.807555 0.136957
H42   H     H_    0.972006 0.984169 0.807121 0.174630
H43   H     H_    0.983851 0.149896 0.811765 0.127588
H44   H     H_    0.976874 0.161442 0.684454 0.132352
H45   H     H_    0.966568 0.995372 0.678997 0.146077
N1    N     N_2   0.350476 0.366129 0.174616 -0.510903
O1    O     O_R   0.507380 0.255700 0.581440 -0.535381
O2    O     O_R   0.837170 0.593410 0.915250 -0.527235
O3    O     O_R   0.065200 0.635530 0.931570 -0.495822
O4    O     O_R   0.280320 0.527350 0.578930 -0.502361
O5    O     O_R   0.068260 0.828890 0.091840 -0.525287
O6    O     O_R   0.798870 0.057410 0.079340 -0.525966
O7    O     O_R   0.584930 0.080350 0.076780 -0.518428
O8    O     O_R   0.626960 0.809650 0.067060 -0.507529
O9    O     O_R   0.816040 0.596610 0.076510 -0.525396
O10   O     O_R   0.045610 0.638500 0.081060 -0.507254
O11   O     O_3   0.833640 0.833710 0.001100 -0.266587
O12   O     O_R   0.524480 0.695810 0.424040 -0.509643
O13   O     O_R   0.260510 0.739590 0.584590 -0.532396
O14   O     O_R   0.532300 0.695080 0.573820 -0.510011
O15   O     O_R   0.744840 0.503500 0.576370 -0.528475
O16   O     O_R   0.699120 0.276560 0.571960 -0.499572
O17   O     O_R   0.498940 0.256500 0.419860 -0.527248
O18   O     O_R   0.272500 0.528080 0.429150 -0.512563
O19   O     O_R   0.252060 0.740380 0.423010 -0.520060
O20   O     O_R   0.736390 0.504290 0.414790 -0.521299
O21   O     O_R   0.691300 0.277290 0.422170 -0.512462
O22   O     O_3   0.499990 0.499990 0.499980 -0.245471
O23   O     O_R   0.089400 0.825690 0.930570 -0.528154
O24   O     O_R   0.818460 0.054440 0.929850 -0.499438
O25   O     O_R   0.606060 0.077150 0.915510 -0.534714
O26   O     O_R   0.646550 0.806680 0.917570 -0.508798

loop_
_geom_bond_atom_site_label_1
_geom_bond_atom_site_label_2
_ccdc_geom_bond_type
C21   C26   A    
C34   C56   S    
C8    C13   A    
C27   C29   A    
C25   H13   S    
C52   O21   A    
C6    H44   S    
C57   H12   S    
C2    C7    A    
C22   H9    S    
C43   C44   S    
Cr6   O11   S    
C12   C23   S    
C45   C57   S    
C37   C38   A    
C20   C26   A    
C30   C35   S    
C50   O7    A    
C6    C61   S    
Cr1   O1    S    
C10   C15   S    
C31   C36   A    
C38   C39   A    
C35   H19   S    
C20   C25   S    
C10   C17   A    
C29   C33   S    
C31   H16   S    
C18   C19   A    
C41   C42   A    
Cr4   O11   S    
C37   C42   A    
C15   H7    S    
Cr1   O17   S    
C7    C61   A    
Cr1   O4    S    
Cr6   O2    S    
C43   H26   S    
Cr3   O20   S    
C35   H20   S    
Cr5   O26   S    
C19   C20   A    
C8    C9    A    
Cr3   O15   S    
C57   H29   S    
Cr5   O25   S    
C58   N1    S    
C41   C46   A    
C55   H14   S    
C9    C10   A    
C12   H31   S    
C36   C52   S    
C27   C50   S    
Cr4   O24   S    
Cr3   O22   S    
C34   C55   S    
Cr5   O7    S    
C21   C22   A    
C14   H5    S    
Cr3   O16   S    
C18   C51   S    
C4    C34   S    
C32   H17   S    
Cr3   O21   S    
C4    O15   A    
C50   O6    A    
Cr4   O23   S    
C1    O13   A    
C53   O10   A    
C9    C14   S    
C53   O5    A    
C13   H4    S    
C2    H34   S    
C56   H1    S    
C43   H24   S    
C16   O1    A    
C60   C61   A    
C58   H39   S    
Cr2   O22   S    
Cr1   O22   S    
C12   C56   S    
Cr6   O3    S    
C29   C30   A    
C45   H23   S    
C42   H22   S    
C31   C32   A    
C54   H3    S    
Cr4   O5    S    
C28   C46   S    
C47   O24   A    
C11   H2    S    
Cr4   O6    S    
Cr5   O8    S    
C34   C45   S    
C1    O4    A    
Cr2   O19   S    
C24   C25   S    
C16   O16   A    
Cr2   O12   S    
C48   O2    A    
C24   H11   S    
C7    C16   S    
C15   H6    S    
C55   H25   S    
C39   C46   A    
C25   H15   S    
C51   O8    A    
Cr5   O11   S    
C56   H33   S    
Cr6   O9    S    
C58   H40   S    
C23   C54   S    
C23   C57   S    
C41   H21   S    
C54   C55   S    
C11   C17   A    
C33   H18   S    
C23   C48   S    
C4    O14   A    
C27   C32   A    
C18   C22   A    
C6    H45   S    
Cr1   O18   S    
C54   H35   S    
Cr6   O10   S    
C49   O23   A    
C12   H32   S    
C39   C44   S    
C3    H41   S    
C40   O20   A    
C21   H8    S    
C33   N1    S    
C30   C36   A    
C58   H38   S    
C52   O17   A    
C28   O18   A    
C2    C3    A    
C37   C53   S    
C38   C43   S    
C48   O26   A    
C44   H28   S    
C45   H30   S    
C11   C13   A    
C26   C40   S    
C14   H36   S    
C5    C6    S    
C5    H42   S    
C40   O12   A    
C47   O25   A    
C33   C35   S    
C19   C24   S    
C5    C60   S    
Cr2   O13   S    
C44   H27   S    
C47   C59   S    
H37   N1    S    
C24   H10   S    
C59   C60   A    
C49   O3    A    
C1    C17   S    
C5    H43   S    
C51   O9    A    
C14   C15   S    
C28   O19   A    
C8    C49   S    
Cr2   O14   S    
C3    C59   A    
