data_mof_unit_50909.cif
_audit_creation_date              2012-12-10T20:42:42-0500
_audit_creation_method            fapswitch 2.2
_symmetry_space_group_name_H-M    P1
_symmetry_Int_Tables_number       1
_space_group_crystal_system       triclinic
_cell_length_a                    8.910219
_cell_length_b                    10.687309
_cell_length_c                    9.877223
_cell_angle_alpha                 89.927708
_cell_angle_beta                  90.033324
_cell_angle_gamma                 90.116389
_cell_volume                      940.568195143

loop_
_atom_site_label
_atom_site_type_symbol
_atom_type_description
_atom_site_fract_x
_atom_site_fract_y
_atom_site_fract_z
_atom_type_partial_charge
C1    C     C_R   0.503932 0.260060 0.500154 0.870722
C2    C     C_R   0.426881 0.408013 0.928822 0.213997
C3    C     C_3   0.263046 0.379708 0.923428 -0.508353
C4    C     C_R   0.218742 0.500020 0.499967 0.945138
C5    C     C_3   0.263421 0.379171 0.077134 -0.501753
C6    C     C_R   0.503621 0.739923 0.499949 0.882217
C7    C     C_R   0.781281 0.500126 0.500046 0.931311
C8    C     C_1   0.065423 0.500096 0.499987 -0.198843
C9    C     C_1   0.934624 0.500139 0.500067 -0.192016
C10   C     C_R   0.515924 0.063764 0.623217 0.117891
C11   C     C_R   0.525273 0.128659 0.501320 -0.087672
C12   C     C_R   0.560379 0.935491 0.381377 -0.216961
C13   C     C_R   0.560790 0.064958 0.381479 -0.223575
C14   C     C_1   0.254306 0.878081 0.694860 0.229406
C15   C     C_R   0.523597 0.871478 0.500913 -0.096483
C16   C     C_R   0.513082 0.936286 0.622820 0.079127
C17   C     C_3   0.400753 0.930157 0.735855 -0.205215
C18   C     C_3   0.403773 0.072530 0.735545 -0.527168
C19   C     C_R   0.427035 0.407918 0.071280 0.213116
C20   C     C_R   0.582683 0.584409 0.071856 -0.125890
C21   C     C_R   0.582658 0.584446 0.927955 -0.129354
H1    H     H_    0.579673 0.114171 0.287030 0.169704
H2    H     H_    0.647060 0.654218 0.873687 0.148475
H3    H     H_    0.196402 0.457641 0.879375 0.228388
H4    H     H_    0.239700 0.286219 0.879101 0.198356
H5    H     H_    0.196657 0.456591 0.121796 0.226296
H6    H     H_    0.241163 0.285227 0.121272 0.201957
H7    H     H_    0.579553 0.886553 0.286980 0.164955
H8    H     H_    0.447120 0.887517 0.829647 0.152296
H9    H     H_    0.297477 0.118053 0.702718 0.198602
H10   H     H_    0.454121 0.112471 0.829038 0.195955
H11   H     H_    0.647151 0.654130 0.126008 0.144089
N1    N     N_R   0.499010 0.499140 0.142800 -0.106051
N2    N     N_R   0.499010 0.499180 0.857150 -0.105643
N3    N     N_1   0.139458 0.837004 0.662632 -0.222591
O1    O     O_R   0.500020 0.316790 0.614690 -0.616123
O2    O     O_R   0.500000 0.316760 0.385350 -0.625975
O3    O     O_R   0.285350 0.500020 0.614650 -0.614610
O4    O     O_R   0.285340 0.499980 0.385310 -0.617115
O5    O     O_R   0.500000 0.683240 0.614650 -0.623808
O6    O     O_R   0.499980 0.683210 0.385310 -0.626851
O7    O     O_R   0.714660 0.500020 0.614690 -0.614898
O8    O     O_R   0.714650 0.499980 0.385350 -0.618138
Zn1   Zn    Zn3+2 0.500010 0.500020 0.653130 0.949391
Zn2   Zn    Zn3+2 0.499990 0.499980 0.346870 0.943697

loop_
_geom_bond_atom_site_label_1
_geom_bond_atom_site_label_2
_ccdc_geom_bond_type
C4    O4    A    
O3    Zn1   S    
N1    Zn2   S    
C18   H9    S    
C7    O8    A    
C11   C13   A    
C1    C11   S    
C12   C15   A    
C4    C8    S    
O4    Zn2   S    
C2    N2    A    
C2    C3    S    
C2    C19   A    
N2    Zn1   S    
C10   C16   A    
C20   C21   A    
O8    Zn2   S    
C14   C17   S    
C3    H3    S    
C16   C17   S    
O7    Zn1   S    
C12   H7    S    
C5    C19   S    
C20   N1    A    
C18   H10   S    
C4    O3    A    
C13   H1    S    
C17   C18   S    
C21   H2    S    
C19   N1    A    
C10   C18   S    
C6    O5    A    
O1    Zn1   S    
C10   C11   A    
O2    Zn2   S    
C5    H5    S    
O5    Zn1   S    
C3    H4    S    
C17   H8    S    
C12   C13   A    
C20   H11   S    
C7    O7    A    
C14   N3    T    
C7    C9    S    
O6    Zn2   S    
C8    C9    T    
C21   N2    A    
C6    C15   S    
C5    H6    S    
C15   C16   A    
C1    O1    A    
C1    O2    A    
C3    C5    S    
C6    O6    A    
