data_mof_unit_64636.cif
_audit_creation_date              2012-12-10T18:35:44-0500
_audit_creation_method            fapswitch 2.2
_symmetry_space_group_name_H-M    P1
_symmetry_Int_Tables_number       1
_space_group_crystal_system       triclinic
_cell_length_a                    25.686184
_cell_length_b                    36.237719
_cell_length_c                    22.222219
_cell_angle_alpha                 90.007561
_cell_angle_beta                  125.493033
_cell_angle_gamma                 89.998241
_cell_volume                      16841.1427711

loop_
_atom_site_label
_atom_site_type_symbol
_atom_type_description
_atom_site_fract_x
_atom_site_fract_y
_atom_site_fract_z
_atom_type_partial_charge
C1    C     C_R   0.608188 0.250031 0.999884 0.802622
C2    C     C_3   0.759630 0.478763 0.066954 -0.255037
C3    C     C_1   0.078748 0.249641 0.655632 -0.072735
C4    C     C_1   0.611268 0.250206 0.722088 -0.100585
C5    C     C_1   0.611265 0.749779 0.722088 -0.098748
C6    C     C_1   0.111633 0.750361 0.722108 -0.078947
C7    C     C_1   0.111271 0.249771 0.722087 -0.098506
C8    C     C_3   0.796270 0.022524 0.081787 -0.178044
C9    C     C_3   0.787645 0.978352 0.082786 -0.193664
C10   C     C_3   0.297299 0.522526 0.081575 -0.177724
C11   C     C_3   0.288819 0.478355 0.082832 -0.193079
C12   C     C_3   0.773089 0.022263 0.948933 -0.244803
C13   C     C_3   0.273180 0.021498 0.073277 -0.244207
C14   C     C_3   0.784406 0.977719 0.961336 -0.166116
C15   C     C_3   0.271643 0.522265 0.947518 -0.245684
C16   C     C_3   0.283055 0.477720 0.959772 -0.166123
C17   C     C_1   0.749875 0.888787 0.999912 0.037013
C18   C     C_1   0.749527 0.111213 0.999496 -0.021596
C19   C     C_1   0.249855 0.388788 0.999892 0.036845
C20   C     C_1   0.249502 0.611213 0.999474 -0.020804
C21   C     C_3   0.748601 0.037041 0.997454 0.036904
C22   C     C_3   0.749243 0.962948 0.998586 0.074299
C23   C     C_3   0.248533 0.537042 0.997408 0.036903
C24   C     C_3   0.262318 0.978763 0.068316 -0.255083
C25   C     C_3   0.249190 0.462949 0.998541 0.074385
C26   C     C_3   0.675544 0.977531 0.950635 -0.237949
C27   C     C_3   0.676393 0.022111 0.961843 -0.157363
C28   C     C_3   0.175536 0.477532 0.952001 -0.238060
C29   C     C_3   0.176611 0.522113 0.963339 -0.157557
C30   C     C_1   0.749719 0.921974 0.999580 0.199072
C31   C     C_1   0.748992 0.078053 0.998574 0.067286
C32   C     C_1   0.249683 0.421975 0.999543 0.199090
C33   C     C_1   0.248944 0.578054 0.998537 0.067096
C34   C     C_R   0.650443 0.249986 0.801053 0.835534
C35   C     C_1   0.750194 0.577936 0.997517 0.003116
C36   C     C_R   0.650438 0.750013 0.801053 0.829462
C37   C     C_R   0.150447 0.749978 0.801056 0.832982
C38   C     C_R   0.150438 0.250013 0.801053 0.829452
C39   C     C_R   0.749988 0.150555 0.000022 0.835422
C40   C     C_R   0.749991 0.849444 0.000042 0.820073
C41   C     C_R   0.249986 0.650555 0.000019 0.834189
C42   C     C_R   0.249989 0.349445 0.000039 0.819720
C43   C     C_R   0.749932 0.349438 0.000019 0.831809
C44   C     C_R   0.749923 0.650561 0.000029 0.832234
C45   C     C_R   0.249931 0.849438 0.000019 0.832663
C46   C     C_1   0.750321 0.422065 0.997115 0.038047
C47   C     C_R   0.249922 0.150561 0.000027 0.832523
C48   C     C_3   0.682420 0.478013 0.926776 -0.133523
C49   C     C_3   0.679533 0.522091 0.934274 -0.123548
C50   C     C_3   0.181342 0.978004 0.928638 -0.133850
C51   C     C_3   0.178847 0.022082 0.936506 -0.123864
C52   C     C_3   0.807187 0.478205 0.990479 -0.143160
C53   C     C_3   0.799168 0.522342 0.977536 -0.160942
C54   C     C_3   0.305125 0.978211 0.986908 -0.143231
C55   C     C_3   0.296783 0.022353 0.974083 -0.160974
C56   C     C_1   0.750078 0.611120 0.999006 -0.081859
C57   C     C_1   0.250116 0.077937 0.997452 0.003063
C58   C     C_1   0.750143 0.388875 0.998799 -0.073971
C59   C     C_1   0.250058 0.111120 0.998989 -0.081924
C60   C     C_1   0.250134 0.888875 0.998788 -0.073821
C61   C     C_1   0.649192 0.541344 0.862173 0.204751
C62   C     C_1   0.670405 0.467206 0.855345 0.223074
C63   C     C_1   0.146284 0.041328 0.864118 0.205276
C64   C     C_1   0.166630 0.967192 0.855905 0.223510
C65   C     C_1   0.482135 0.697739 0.896693 0.235522
C66   C     C_1   0.482201 0.302317 0.896831 0.241669
C67   C     C_1   0.982159 0.197715 0.896739 0.234824
C68   C     C_1   0.250260 0.922065 0.997056 0.038157
C69   C     C_1   0.982221 0.802337 0.896870 0.241025
C70   C     C_1   0.892117 0.268636 0.859353 0.185097
C71   C     C_1   0.892104 0.731423 0.859317 0.189251
C72   C     C_1   0.392123 0.768673 0.859376 0.184824
C73   C     C_1   0.392113 0.231395 0.859329 0.189989
C74   C     C_2   0.362858 0.250168 0.424571 0.456165
C75   C     C_2   0.363036 0.753803 0.424562 0.452934
C76   C     C_2   0.860226 0.745543 0.418800 0.452736
C77   C     C_2   0.863260 0.255912 0.424560 0.455482
C78   C     C_1   0.501156 0.186428 0.575992 0.225295
C79   C     C_3   0.007732 0.275081 0.049515 -0.150336
C80   C     C_1   0.506316 0.814942 0.576059 0.226255
C81   C     C_1   0.050389 0.680659 0.584420 0.208954
C82   C     C_1   0.009130 0.315590 0.576077 0.226463
C83   C     C_1   0.429171 0.184477 0.424154 0.205074
C84   C     C_1   0.434490 0.816742 0.424221 0.207591
C85   C     C_1   0.944902 0.683602 0.438048 0.219329
C86   C     C_1   0.937365 0.317299 0.424239 0.207373
C87   C     C_1   0.523477 0.191330 0.433380 0.220172
C88   C     C_1   0.528110 0.806322 0.433449 0.221671
C89   C     C_1   0.025107 0.695198 0.421316 0.177874
C90   C     C_3   0.007711 0.724902 0.049467 -0.149810
C91   C     C_1   0.030498 0.304987 0.433457 0.221960
C92   C     C_1   0.584597 0.311904 0.577137 0.102445
C93   C     C_1   0.579615 0.686361 0.577070 0.103185
C94   C     C_1   0.046265 0.819142 0.567466 0.132534
C95   C     C_1   0.076907 0.185511 0.577051 0.103296
C96   C     C_1   0.869488 0.468535 0.060709 0.190830
C97   C     C_1   0.862344 0.541364 0.024929 0.259553
C98   C     C_1   0.368615 0.968535 0.055492 0.191488
C99   C     C_1   0.360125 0.041373 0.019182 0.259471
C100  C     C_2   0.639838 0.258977 0.576784 0.380414
C101  C     C_3   0.507744 0.775071 0.049539 -0.149442
C102  C     C_2   0.638994 0.736997 0.576781 0.382003
C103  C     C_2   0.132666 0.786709 0.580822 0.398032
C104  C     C_2   0.138421 0.234852 0.576779 0.382288
C105  C     C_1   0.504444 0.313747 0.427112 0.154718
C106  C     C_1   0.499329 0.684733 0.427041 0.154157
C107  C     C_1   0.992229 0.816971 0.418681 0.166561
C108  C     C_1   0.996560 0.183999 0.427022 0.154291
C109  C     C_1   0.559766 0.265215 0.421590 0.256734
C110  C     C_1   0.558436 0.730874 0.421577 0.255530
C111  C     C_1   0.062322 0.771669 0.431611 0.165268
C112  C     C_R   0.608185 0.749972 0.999881 0.798467
C113  C     C_3   0.507719 0.224910 0.049483 -0.150069
C114  C     C_1   0.057602 0.228801 0.421574 0.255349
C115  C     C_2   0.851670 0.959479 0.139983 0.379443
C116  C     C_2   0.865428 0.034739 0.115344 0.311487
C117  C     C_2   0.353133 0.459483 0.139025 0.378602
C118  C     C_2   0.366172 0.534741 0.113651 0.311371
C119  C     C_2   0.726028 0.036176 0.869019 0.550242
C120  C     C_2   0.765650 0.958394 0.889746 0.603432
C121  C     C_2   0.223571 0.536180 0.867815 0.551016
C122  C     C_2   0.263049 0.458394 0.887707 0.603329
C123  C     C_2   0.833291 0.042218 0.967080 0.247815
C124  C     C_3   0.507964 0.783820 0.981153 -0.219550
C125  C     C_2   0.855562 0.966817 0.011499 0.412322
C126  C     C_2   0.331364 0.542218 0.964220 0.248184
C127  C     C_2   0.354248 0.466817 0.008624 0.412774
C128  C     C_2   0.656730 0.033260 0.013027 0.304611
C129  C     C_2   0.632166 0.958994 0.968576 0.280891
C130  C     C_2   0.158312 0.533264 0.015792 0.304502
C131  C     C_2   0.133164 0.458996 0.971421 0.281052
C132  C     C_2   0.622411 0.040985 0.890176 0.588158
C133  C     C_2   0.641409 0.963166 0.870947 0.437224
C134  C     C_2   0.121892 0.540987 0.892192 0.588360
C135  C     C_3   0.507933 0.216193 0.981078 -0.214346
C136  C     C_2   0.140207 0.463166 0.872163 0.437288
C137  C     C_2   0.813797 0.459066 0.933789 0.353959
C138  C     C_2   0.775377 0.533612 0.898902 0.363712
C139  C     C_2   0.309033 0.959080 0.928190 0.353875
C140  C     C_2   0.270300 0.033641 0.894613 0.363597
C141  C     C_1   0.784502 0.041281 0.132873 0.286637
C142  C     C_1   0.752323 0.968463 0.114915 0.222360
C143  C     C_1   0.286779 0.541283 0.133707 0.286450
C144  C     C_1   0.254684 0.468466 0.116409 0.221810
C145  C     C_1   0.806900 0.458534 0.136067 0.219562
C146  C     C_3   0.007949 0.283815 0.981123 -0.219548
C147  C     C_1   0.835468 0.533121 0.135042 0.227195
C148  C     C_1   0.311188 0.958543 0.136648 0.219506
C149  C     C_1   0.338805 0.033134 0.133937 0.227254
C150  C     C_1   0.629933 0.458987 0.924643 0.172734
C151  C     C_1   0.636845 0.532633 0.956536 0.169982
C152  C     C_1   0.130325 0.958971 0.929459 0.173556
C153  C     C_1   0.138387 0.032615 0.961853 0.170220
C154  C     C_1   0.606935 0.731432 0.140326 0.183055
C155  C     C_1   0.606952 0.268516 0.140372 0.186308
C156  C     C_1   0.106940 0.231458 0.140340 0.183292
C157  C     C_3   0.007921 0.716197 0.981055 -0.214864
C158  C     C_1   0.106962 0.768492 0.140384 0.186360
C159  C     C_3   0.550814 0.749737 0.999409 -0.051700
C160  C     C_3   0.550818 0.250269 0.999415 -0.055265
C161  C     C_3   0.050814 0.249736 0.999410 -0.052254
C162  C     C_3   0.050818 0.750270 0.999416 -0.055163
C163  C     C_3   0.550411 0.741095 0.066617 0.018102
C164  C     C_R   0.108189 0.750031 0.999884 0.801959
C165  C     C_3   0.550421 0.258881 0.066641 0.014893
C166  C     C_3   0.050413 0.241108 0.066623 0.018604
C167  C     C_3   0.050425 0.758870 0.066648 0.015014
C168  C     C_3   0.991414 0.215980 0.018676 -0.253750
C169  C     C_3   0.991448 0.784016 0.018756 -0.246712
C170  C     C_3   0.491401 0.715977 0.018649 -0.253346
C171  C     C_3   0.491435 0.284018 0.018730 -0.247015
C172  C     C_3   0.491680 0.725151 0.950932 -0.014913
C173  C     C_3   0.491710 0.274876 0.950994 -0.018589
C174  C     C_3   0.991692 0.225139 0.950953 -0.016058
C175  C     C_R   0.108185 0.249971 0.999882 0.798918
C176  C     C_3   0.991719 0.774886 0.951013 -0.018703
C177  C     C_3   0.948809 0.258807 0.932920 -0.013241
C178  C     C_3   0.948804 0.741224 0.932906 -0.016099
C179  C     C_3   0.448812 0.758822 0.932930 -0.019892
C180  C     C_3   0.448807 0.241210 0.932911 -0.016405
C181  C     C_R   0.891661 0.250002 0.000089 0.814310
C182  C     C_R   0.891660 0.749998 0.000090 0.816792
C183  C     C_R   0.391661 0.750002 0.000090 0.814465
C184  C     C_R   0.391659 0.249997 0.000090 0.816493
C185  C     C_3   0.948792 0.250136 0.000324 -0.024058
C186  C     C_3   0.750387 0.463096 0.994667 0.101489
C187  C     C_3   0.948794 0.749866 0.000328 -0.026194
C188  C     C_3   0.448793 0.750136 0.000326 -0.023019
C189  C     C_3   0.448793 0.249864 0.000327 -0.026271
C190  C     C_3   0.472568 0.267347 0.543639 -0.372578
C191  C     C_3   0.471291 0.734647 0.543614 -0.373796
C192  C     C_3   0.969126 0.754474 0.543667 -0.399983
C193  C     C_3   0.970684 0.235733 0.543611 -0.373219
C194  C     C_3   0.527817 0.209517 0.544533 -0.219332
C195  C     C_3   0.531071 0.790201 0.544578 -0.218161
C196  C     C_3   0.048509 0.713463 0.543075 -0.244615
C197  C     C_3   0.750323 0.536964 0.994998 0.077766
C198  C     C_3   0.032805 0.289993 0.544586 -0.218441
C199  C     C_3   0.486086 0.208850 0.457016 -0.069759
C200  C     C_3   0.489394 0.790791 0.457061 -0.071587
C201  C     C_3   0.995843 0.710603 0.456919 -0.078225
C202  C     C_3   0.991147 0.290539 0.457070 -0.071665
C203  C     C_1   0.389315 0.250097 0.277900 -0.104713
C204  C     C_1   0.389334 0.749898 0.277899 -0.104144
C205  C     C_1   0.889391 0.750206 0.277890 -0.108031
C206  C     C_1   0.889342 0.249890 0.277899 -0.104063
C207  C     C_3   0.539199 0.250303 0.573738 0.111923
C208  C     C_3   0.250219 0.963096 0.994524 0.101205
C209  C     C_3   0.539201 0.749607 0.573737 0.111862
C210  C     C_3   0.041004 0.750698 0.573829 0.128147
C211  C     C_3   0.039208 0.249556 0.573737 0.111561
C212  C     C_3   0.428364 0.267055 0.457386 -0.204089
C213  C     C_3   0.427117 0.734986 0.457362 -0.202047
C214  C     C_3   0.927018 0.761889 0.458866 -0.210360
C215  C     C_3   0.926526 0.236091 0.457360 -0.203018
C216  C     C_3   0.465280 0.249946 0.426459 0.057240
C217  C     C_3   0.465318 0.749981 0.426458 0.057364
C218  C     C_3   0.965708 0.750582 0.426419 0.075073
C219  C     C_3   0.250145 0.036964 0.994856 0.077732
C220  C     C_3   0.965339 0.249936 0.426458 0.057070
C221  C     C_3   0.526356 0.275512 0.455643 -0.080728
C222  C     C_3   0.524280 0.722602 0.455616 -0.080725
C223  C     C_3   0.020674 0.780919 0.455637 -0.116775
C224  C     C_3   0.023116 0.221623 0.455608 -0.080541
C225  C     C_3   0.572623 0.274062 0.544885 -0.081189
C226  C     C_3   0.570656 0.723980 0.544860 -0.082386
C227  C     C_3   0.060627 0.784186 0.544421 -0.099469
C228  C     C_3   0.069550 0.222961 0.544853 -0.082721
C229  C     C_R   0.849469 0.249970 0.198942 0.831437
C230  C     C_3   0.770608 0.521496 0.072406 -0.244349
C231  C     C_R   0.849452 0.750028 0.198940 0.833451
C232  C     C_R   0.349469 0.749970 0.198942 0.831328
C233  C     C_R   0.349467 0.250033 0.198943 0.833773
C234  C     C_1   0.423125 0.250084 0.344359 -0.116754
C235  C     C_1   0.423154 0.749891 0.344357 -0.117013
C236  C     C_1   0.923292 0.750389 0.344347 -0.093529
C237  C     C_1   0.923169 0.249870 0.344357 -0.116971
C238  C     C_1   0.578741 0.250297 0.655633 -0.072570
C239  C     C_1   0.578740 0.749663 0.655632 -0.072766
C240  C     C_1   0.079711 0.750558 0.655669 0.027038
H1    H     H_    0.984160 0.188340 0.034271 0.163651
H2    H     H_    0.579340 0.801616 0.567870 0.192701
H3    H     H_    0.096365 0.713783 0.553545 0.199135
H4    H     H_    0.081544 0.300619 0.567878 0.192718
H5    H     H_    0.478115 0.296237 0.563454 0.181795
H6    H     H_    0.474538 0.705976 0.563396 0.181561
H7    H     H_    0.962074 0.777234 0.571918 0.191778
H8    H     H_    0.972712 0.207217 0.563391 0.182163
H9    H     H_    0.416765 0.296328 0.439601 0.143062
H10   H     H_    0.413188 0.705867 0.439545 0.142716
H11   H     H_    0.917989 0.792094 0.451400 0.151457
H12   H     H_    0.984220 0.811649 0.034410 0.171878
H13   H     H_    0.911365 0.207092 0.439542 0.143372
H14   H     H_    0.714284 0.474289 0.061578 0.154267
H15   H     H_    0.739252 0.533885 0.086379 0.152039
H16   H     H_    0.218099 0.974280 0.065416 0.154090
H17   H     H_    0.243354 0.033878 0.089448 0.151991
H18   H     H_    0.515163 0.811427 0.965408 0.169319
H19   H     H_    0.515104 0.188593 0.965270 0.173847
H20   H     H_    0.015137 0.311418 0.965354 0.169301
H21   H     H_    0.015082 0.688600 0.965227 0.173665
H22   H     H_    0.013902 0.295416 0.090578 0.172434
H23   H     H_    0.484136 0.688333 0.034220 0.163525
H24   H     H_    0.013862 0.704550 0.090484 0.174026
H25   H     H_    0.513923 0.795397 0.090620 0.172438
H26   H     H_    0.513877 0.204565 0.090515 0.173929
H27   H     H_    0.326600 0.252191 0.365461 0.082179
H28   H     H_    0.326622 0.752043 0.365452 0.082384
H29   H     H_    0.826372 0.749792 0.359747 0.081488
H30   H     H_    0.826772 0.254293 0.365451 0.082090
H31   H     H_    0.681923 0.273324 0.621773 0.103093
H32   H     H_    0.679902 0.721894 0.621763 0.103073
H33   H     H_    0.150713 0.809398 0.565857 0.096428
H34   H     H_    0.484197 0.311654 0.034365 0.171806
H35   H     H_    0.178675 0.219360 0.621755 0.103058
H36   H     H_    0.886545 0.973774 0.191090 0.075546
H37   H     H_    0.902853 0.015558 0.129038 0.070653
H38   H     H_    0.388568 0.473772 0.189880 0.075772
H39   H     H_    0.403355 0.515559 0.126505 0.070798
H40   H     H_    0.717934 0.065711 0.860212 0.105002
H41   H     H_    0.782346 0.970013 0.858719 0.139429
H42   H     H_    0.215416 0.565715 0.859114 0.105890
H43   H     H_    0.278842 0.470015 0.855767 0.139326
H44   H     H_    0.850210 0.067248 0.999649 0.152289
H45   H     H_    0.451025 0.252463 0.567861 0.235300
H46   H     H_    0.893673 0.986733 0.039487 0.105340
H47   H     H_    0.348724 0.567250 0.996759 0.152507
H48   H     H_    0.392401 0.486732 0.035956 0.105165
H49   H     H_    0.653856 0.013637 0.047534 0.102012
H50   H     H_    0.587329 0.972208 0.950537 0.087409
H51   H     H_    0.156212 0.513641 0.050868 0.101986
H52   H     H_    0.088592 0.472211 0.954402 0.087279
H53   H     H_    0.574982 0.028774 0.859349 0.088303
H54   H     H_    0.639102 0.933508 0.862517 0.133346
H55   H     H_    0.074493 0.528777 0.862274 0.088346
H56   H     H_    0.450986 0.750848 0.567850 0.234596
H57   H     H_    0.137756 0.433507 0.863684 0.133289
H58   H     H_    0.844735 0.471311 0.920727 0.080788
H59   H     H_    0.751823 0.514113 0.853628 0.091066
H60   H     H_    0.338218 0.971409 0.912681 0.080746
H61   H     H_    0.245447 0.014157 0.849400 0.090566
H62   H     H_    0.954276 0.728741 0.557119 0.232651
H63   H     H_    0.951083 0.252621 0.567846 0.234531
H64   H     H_    0.575116 0.196659 0.567808 0.191885
N1    N     N_1   0.625304 0.556377 0.806037 -0.133501
N2    N     N_1   0.847380 0.723722 0.801339 -0.171000
N3    N     N_1   0.347407 0.776413 0.801427 -0.131504
N4    N     N_1   0.347393 0.223682 0.801356 -0.169221
N5    N     N_1   0.480496 0.168490 0.600580 -0.129484
N6    N     N_1   0.487138 0.834165 0.600664 -0.135779
N7    N     N_1   0.051925 0.655130 0.616703 -0.135855
N8    N     N_1   0.990791 0.335478 0.600689 -0.134445
N9    N     N_1   0.384987 0.165370 0.398420 -0.145675
N10   N     N_1   0.391883 0.837070 0.398503 -0.143437
N11   N     N_1   0.905461 0.662362 0.423287 -0.136436
N12   N     N_1   0.660036 0.458788 0.799066 -0.133066
N13   N     N_1   0.895636 0.338251 0.398529 -0.142463
N14   N     N_1   0.552499 0.177232 0.414903 -0.121157
N15   N     N_1   0.558199 0.818874 0.414991 -0.120021
N16   N     N_1   0.047805 0.682901 0.393470 -0.142543
N17   N     N_1   0.061101 0.316695 0.415000 -0.120547
N18   N     N_1   0.593956 0.341190 0.602291 -0.144432
N19   N     N_1   0.586641 0.657249 0.602192 -0.142088
N20   N     N_1   0.035163 0.846269 0.585470 -0.150957
N21   N     N_1   0.082693 0.156530 0.602162 -0.141248
N22   N     N_1   0.918186 0.460990 0.114925 -0.150804
N23   N     N_1   0.120672 0.056354 0.807772 -0.132551
N24   N     N_1   0.911265 0.556176 0.061210 -0.152850
N25   N     N_1   0.418212 0.960985 0.108402 -0.150709
N26   N     N_1   0.409156 0.056182 0.053673 -0.153109
N27   N     N_1   0.487377 0.343405 0.404812 -0.150864
N28   N     N_1   0.479905 0.655360 0.404707 -0.150294
N29   N     N_1   0.970051 0.844961 0.389848 -0.150764
N30   N     N_1   0.975892 0.154815 0.404681 -0.149669
N31   N     N_1   0.585710 0.257553 0.394688 -0.132328
N32   N     N_1   0.584931 0.736957 0.394687 -0.131037
N33   N     N_1   0.094938 0.764863 0.412884 -0.143811
N34   N     N_1   0.154177 0.958765 0.798661 -0.133339
N35   N     N_1   0.084340 0.234029 0.394688 -0.131656
N36   N     N_1   0.776038 0.055838 0.172903 -0.133035
N37   N     N_1   0.726311 0.960662 0.141696 -0.135971
N38   N     N_1   0.279282 0.555841 0.174535 -0.133869
N39   N     N_1   0.229613 0.460665 0.144299 -0.136965
N40   N     N_1   0.843529 0.442715 0.189957 -0.152789
N41   N     N_1   0.885940 0.542204 0.184339 -0.149653
N42   N     N_1   0.349072 0.942732 0.189944 -0.152856
N43   N     N_1   0.389895 0.042224 0.181714 -0.149793
N44   N     N_1   0.589220 0.444146 0.923019 -0.151444
N45   N     N_1   0.474626 0.676143 0.853955 -0.150743
N46   N     N_1   0.603680 0.540869 0.973778 -0.158769
N47   N     N_1   0.090751 0.944127 0.930124 -0.151483
N48   N     N_1   0.106949 0.040844 0.981487 -0.159032
N49   N     N_1   0.651559 0.723829 0.198444 -0.172283
N50   N     N_1   0.651580 0.276100 0.198506 -0.174372
N51   N     N_1   0.151564 0.223863 0.198464 -0.173457
N52   N     N_1   0.151595 0.776066 0.198521 -0.174493
N53   N     N_1   0.474723 0.323937 0.854155 -0.147850
N54   N     N_1   0.974661 0.176110 0.854021 -0.150257
N55   N     N_1   0.974752 0.823965 0.854212 -0.147658
N56   N     N_1   0.847398 0.276359 0.801392 -0.174659
O1    O     O_3   0.749950 0.249950 0.000000 -0.502704
O2    O     O_R   0.637220 0.728540 0.836030 -0.629475
O3    O     O_R   0.137220 0.771460 0.836030 -0.633845
O4    O     O_R   0.137220 0.228540 0.836030 -0.629312
O5    O     O_R   0.654190 0.228460 0.043020 -0.628765
O6    O     O_R   0.654190 0.771540 0.043020 -0.630495
O7    O     O_R   0.154190 0.728460 0.043020 -0.628850
O8    O     O_R   0.154190 0.271540 0.043020 -0.630518
O9    O     O_R   0.845720 0.228460 0.956990 -0.636330
O10   O     O_R   0.845720 0.771540 0.956990 -0.630181
O11   O     O_R   0.345720 0.728460 0.956990 -0.634141
O12   O     O_3   0.749950 0.750050 0.000000 -0.505491
O13   O     O_R   0.345720 0.271540 0.956990 -0.630137
O14   O     O_R   0.611190 0.271450 0.957030 -0.643371
O15   O     O_R   0.611190 0.728550 0.957030 -0.643526
O16   O     O_R   0.111190 0.771450 0.957030 -0.643799
O17   O     O_R   0.111190 0.228550 0.957030 -0.643373
O18   O     O_R   0.888700 0.271440 0.042960 -0.640593
O19   O     O_R   0.888700 0.728560 0.042960 -0.640947
O20   O     O_R   0.388700 0.771440 0.042960 -0.641062
O21   O     O_R   0.388700 0.228560 0.042960 -0.641334
O22   O     O_R   0.801200 0.228440 0.163980 -0.631712
O23   O     O_3   0.249950 0.749950 0.000000 -0.503658
O24   O     O_R   0.801200 0.771560 0.163980 -0.630299
O25   O     O_R   0.301200 0.728440 0.163980 -0.632025
O26   O     O_R   0.301200 0.271560 0.163980 -0.630375
O27   O     O_R   0.698710 0.228470 0.836030 -0.628115
O28   O     O_R   0.698710 0.771530 0.836030 -0.626994
O29   O     O_R   0.198710 0.728470 0.836030 -0.617781
O30   O     O_R   0.198710 0.271530 0.836030 -0.626914
O31   O     O_R   0.740720 0.167960 0.043020 -0.613273
O32   O     O_R   0.740720 0.832040 0.043020 -0.621988
O33   O     O_R   0.240720 0.667960 0.043020 -0.613516
O34   O     O_3   0.249950 0.250050 0.000000 -0.505276
O35   O     O_R   0.240720 0.332040 0.043020 -0.622551
O36   O     O_R   0.697700 0.331940 0.957000 -0.629923
O37   O     O_R   0.697700 0.668060 0.957000 -0.628966
O38   O     O_R   0.197700 0.831940 0.957000 -0.628691
O39   O     O_R   0.197700 0.168060 0.957000 -0.628329
O40   O     O_R   0.759220 0.167970 0.957030 -0.643810
O41   O     O_R   0.759220 0.832030 0.957030 -0.615572
O42   O     O_R   0.259220 0.667970 0.957030 -0.644219
O43   O     O_R   0.259220 0.332030 0.957030 -0.615187
O44   O     O_R   0.802170 0.331930 0.042960 -0.629502
O45   O     O_R   0.862680 0.271430 0.163960 -0.632700
O46   O     O_R   0.802170 0.668070 0.042960 -0.630715
O47   O     O_R   0.302170 0.831930 0.042960 -0.630017
O48   O     O_R   0.302170 0.168070 0.042960 -0.631273
O49   O     O_2   0.349320 0.234616 0.462545 -0.531167
O50   O     O_2   0.350793 0.770635 0.462548 -0.534665
O51   O     O_2   0.842674 0.728551 0.451520 -0.527834
O52   O     O_2   0.851745 0.273401 0.462547 -0.533407
O53   O     O_2   0.648343 0.230196 0.555087 -0.555379
O54   O     O_2   0.649766 0.764961 0.555112 -0.553789
O55   O     O_2   0.170883 0.764303 0.626253 -0.554224
O56   O     O_R   0.862680 0.728570 0.163960 -0.631307
O57   O     O_2   0.150377 0.262341 0.555120 -0.553358
O58   O     O_2   0.862469 0.927206 0.135233 -0.517629
O59   O     O_2   0.880898 0.067269 0.128716 -0.561031
O60   O     O_2   0.363700 0.427219 0.133876 -0.518403
O61   O     O_2   0.381699 0.567272 0.126757 -0.561208
O62   O     O_2   0.700412 0.016862 0.813999 -0.515121
O63   O     O_2   0.738767 0.928533 0.869804 -0.588904
O64   O     O_2   0.197150 0.516866 0.812748 -0.514387
O65   O     O_2   0.236140 0.428532 0.868255 -0.589047
O66   O     O_2   0.860062 0.032429 0.938781 -0.546858
O67   O     O_R   0.362680 0.771430 0.163960 -0.632753
O68   O     O_2   0.871818 0.934422 0.019621 -0.509951
O69   O     O_2   0.357156 0.532425 0.934776 -0.546849
O70   O     O_2   0.370442 0.434423 0.016371 -0.509771
O71   O     O_2   0.645789 0.065508 0.018475 -0.521366
O72   O     O_2   0.642687 0.928363 0.996276 -0.558231
O73   O     O_2   0.147640 0.565512 0.021621 -0.521361
O74   O     O_2   0.144116 0.428364 0.999206 -0.558024
O75   O     O_2   0.628057 0.071204 0.870341 -0.580994
O76   O     O_2   0.613474 0.982367 0.815717 -0.525033
O77   O     O_2   0.127040 0.571205 0.871919 -0.580374
O78   O     O_R   0.362680 0.228570 0.163960 -0.632818
O79   O     O_2   0.111504 0.482366 0.816949 -0.524432
O80   O     O_2   0.788527 0.429542 0.905272 -0.546699
O81   O     O_2   0.779099 0.565596 0.884112 -0.534479
O82   O     O_2   0.283579 0.929458 0.900650 -0.546362
O83   O     O_2   0.273308 0.065625 0.879221 -0.534397
O84   O     O_R   0.637220 0.271460 0.836030 -0.628502
Zn1   Zn    Zn3+2 0.824580 0.280660 0.061400 1.001186
Zn2   Zn    Zn3+2 0.763170 0.780750 0.938580 1.025340
Zn3   Zn    Zn3+2 0.263170 0.719250 0.938580 1.014276
Zn4   Zn    Zn3+2 0.263170 0.280750 0.938580 1.025333
Zn5   Zn    Zn3+2 0.675310 0.280670 0.938580 1.006662
Zn6   Zn    Zn3+2 0.675310 0.719330 0.938580 1.002321
Zn7   Zn    Zn3+2 0.175310 0.780670 0.938580 1.006861
Zn8   Zn    Zn3+2 0.175310 0.219330 0.938580 1.003041
Zn9   Zn    Zn3+2 0.824580 0.719340 0.061400 1.003031
Zn10  Zn    Zn3+2 0.324580 0.780660 0.061400 1.001719
Zn11  Zn    Zn3+2 0.324580 0.219340 0.061400 1.001577
Zn12  Zn    Zn3+2 0.736740 0.219240 0.061440 1.016689
Zn13  Zn    Zn3+2 0.736740 0.780760 0.061440 1.013583
Zn14  Zn    Zn3+2 0.236740 0.719240 0.061440 1.015590
Zn15  Zn    Zn3+2 0.236740 0.280760 0.061440 1.012866
Zn16  Zn    Zn3+2 0.763170 0.219250 0.938580 1.006223

loop_
_geom_bond_atom_site_label_1
_geom_bond_atom_site_label_2
_ccdc_geom_bond_type
C157  H21   S    
C47   O39   A    
C90   C167  S    
C151  N46   T    
O3    Zn7   S    
C197  C230  S    
O1    Zn5   S    
C171  C173  S    
O29   Zn3   S    
C192  H7    S    
C182  O10   A    
C195  C209  S    
C108  C224  S    
C193  C211  S    
C192  H62   S    
C5    C36   S    
C221  C225  S    
O7    Zn14  S    
O9    Zn16  S    
O30   Zn4   S    
C16   C122  S    
C43   C58   S    
O1    Zn12  S    
C88   N15   T    
C182  O19   A    
C111  N33   T    
C101  C188  S    
C122  H43   S    
C86   C202  S    
C84   N10   T    
C232  O25   A    
C196  C210  S    
C96   N22   T    
C17   C30   T    
C141  N36   T    
C19   C32   T    
C2    H14   S    
C158  C167  S    
C104  C228  S    
C162  C164  S    
C181  O18   A    
C205  C236  T    
C146  C161  S    
C123  O66   D    
C175  O17   A    
C159  C172  S    
C49   C151  S    
C158  N52   T    
C101  C163  S    
C39   O40   A    
C169  C187  S    
C230  H15   S    
C109  N31   T    
C86   N13   T    
C179  C188  S    
C65   C172  S    
C199  C216  S    
C120  O63   D    
C25   C28   S    
C204  C232  S    
C80   N6    T    
O34   Zn15  S    
C116  O59   D    
C156  C166  S    
C78   N5    T    
C76   H29   S    
C52   C137  S    
C190  H45   S    
C39   O31   A    
C46   C186  S    
C61   N1    T    
C40   O32   A    
C174  C177  S    
C192  C210  S    
C102  H32   S    
C94   C227  S    
O25   Zn14  S    
C172  C179  S    
C120  H41   S    
C195  H2    S    
C92   C225  S    
C37   O3    A    
C79   C185  S    
C209  C226  S    
C109  C221  S    
C16   C25   S    
C125  O68   D    
O12   Zn2   S    
C213  C217  S    
O34   Zn4   S    
C114  N35   T    
C201  C218  S    
C82   C198  S    
C41   O33   A    
C53   C197  S    
C139  H60   S    
O35   Zn15  S    
C215  C220  S    
C161  C174  S    
C45   O38   A    
C155  C165  S    
C87   N14   T    
C94   N20   T    
C156  N51   T    
C169  C176  S    
C57   C59   T    
C8    C116  S    
C47   C59   S    
C146  C177  S    
C113  C135  S    
C104  O57   D    
C79   H22   S    
O5    Zn12  S    
C18   C31   T    
C134  O77   D    
C183  C188  S    
C103  C227  S    
C157  C162  S    
C100  H31   S    
C50   C208  S    
C165  C171  S    
O10   Zn2   S    
C233  O78   A    
C160  C173  S    
C146  H20   S    
C102  C226  S    
C122  O65   D    
C217  C235  S    
C218  C223  S    
C167  C169  S    
C49   C197  S    
C34   O84   A    
C194  C207  S    
C21   C31   S    
C119  O62   D    
O16   Zn7   S    
O6    Zn13  S    
C23   C29   S    
C89   N16   T    
C180  C189  S    
C223  C227  S    
O33   Zn14  S    
C11   C25   S    
C67   C174  S    
C202  C220  S    
C24   H16   S    
C163  C170  S    
C13   H17   S    
C110  N32   T    
C207  C238  S    
C42   O35   A    
O40   Zn16  S    
C194  C199  S    
C124  C179  S    
C130  H51   S    
C198  C202  S    
C112  O15   A    
C8    C141  S    
C90   H24   S    
C184  O13   A    
C19   C42   S    
C95   N21   T    
O11   Zn3   S    
C176  C178  S    
C46   C58   T    
C206  C229  S    
C166  C168  S    
C27   C132  S    
C73   C180  S    
C75   O50   D    
C103  O55   D    
C52   C186  S    
C232  O67   A    
C71   N2    T    
C193  C215  S    
C79   C146  S    
C1    O14   A    
C3    C211  S    
C105  N27   T    
C101  C124  S    
C132  O75   D    
O1    Zn1   S    
C203  C234  T    
C214  C218  S    
O1    Zn16  S    
C55   C219  S    
C38   O4    A    
C51   C219  S    
C75   C213  S    
C67   N54   T    
C144  N39   T    
C117  H38   S    
C50   C152  S    
C12   C119  S    
C74   H27   S    
C48   C62   S    
C54   C139  S    
C97   N24   T    
O43   Zn4   S    
C133  H54   S    
C93   N19   T    
C191  C209  S    
C229  O45   A    
C129  H50   S    
C54   C208  S    
C211  C228  S    
C77   O52   D    
C205  C231  S    
C214  H11   S    
C52   C53   S    
C35   C197  S    
O18   Zn1   S    
O44   Zn1   S    
C54   C55   S    
C83   N9    T    
O46   Zn9   S    
C35   C56   T    
C209  C239  S    
C181  O9    A    
C9    C142  S    
C70   C177  S    
C7    C38   S    
O56   Zn9   S    
C135  H19   S    
O15   Zn6   S    
C14   C22   S    
C90   C157  S    
O12   Zn9   S    
C12   C123  S    
C105  C221  S    
C42   O43   A    
C193  H8    S    
C70   N56   T    
C157  C178  S    
C16   C127  S    
C91   C202  S    
C10   C11   S    
C2    C230  S    
C36   O2    A    
C76   C214  S    
C190  C207  S    
C138  O81   D    
O21   Zn11  S    
C149  N43   T    
C55   C99   S    
C4    C238  T    
C183  O20   A    
C114  C224  S    
C196  C201  S    
C44   O46   A    
C74   O49   D    
C45   O47   A    
C130  O73   D    
C48   C150  S    
O41   Zn2   S    
C216  C234  S    
C87   C199  S    
O2    Zn6   S    
C136  H57   S    
C2    C145  S    
C64   N34   T    
C26   C27   S    
C183  O11   A    
C71   C178  S    
C28   C29   S    
C135  C180  S    
C3    C7    T    
C123  H44   S    
C113  C165  S    
C118  H39   S    
C164  O16   A    
C37   O29   A    
C90   C187  S    
C154  N49   T    
C106  N28   T    
C224  C228  S    
C215  H13   S    
C177  C185  S    
C132  H53   S    
C108  N30   T    
C78   C194  S    
C150  N44   T    
C113  H26   S    
C128  O71   D    
C140  O83   D    
C115  H36   S    
C51   C153  S    
C182  C187  S    
C68   C208  S    
C155  N50   T    
C43   O44   A    
C22   C30   S    
C76   O51   D    
C85   C201  S    
O12   Zn6   S    
C115  O58   D    
C29   C134  S    
C21   C27   S    
C124  H18   S    
C200  C217  S    
O32   Zn13  S    
O12   Zn13  S    
C92   N18   T    
C75   H28   S    
C99   N26   T    
C128  H49   S    
C49   C61   S    
C53   C138  S    
C9    C115  S    
C51   C63   S    
C103  H33   S    
C119  H40   S    
C173  C180  S    
C24   C208  S    
C55   C140  S    
C74   C212  S    
C17   C40   S    
C168  C174  S    
C18   C39   S    
C233  O26   A    
O48   Zn11  S    
O13   Zn4   S    
O23   Zn7   S    
C44   C56   S    
C168  H1    S    
C102  O54   D    
C50   C51   S    
C129  O72   D    
C137  O80   D    
C111  C223  S    
C160  C165  S    
O27   Zn16  S    
C26   C129  S    
C40   O41   A    
C178  C187  S    
C48   C49   S    
C170  C188  S    
C14   C120  S    
C36   O28   A    
C220  C237  S    
C107  N29   T    
C110  C222  S    
O23   Zn10  S    
O28   Zn2   S    
C77   C215  S    
C152  N47   T    
O22   Zn12  S    
C217  C222  S    
C80   C195  S    
C101  H25   S    
C125  H46   S    
C135  C160  S    
C5    C239  T    
C28   C136  S    
C148  N42   T    
C127  H48   S    
O19   Zn9   S    
C1    C160  S    
O78   Zn11  S    
C44   O37   A    
C85   N11   T    
C147  N41   T    
C204  C235  T    
C113  C189  S    
O45   Zn1   S    
C88   C200  S    
C127  O70   D    
C218  C236  S    
C184  O21   A    
C191  C213  S    
C231  O24   A    
C170  C172  S    
C143  N38   T    
C198  H4    S    
C206  C237  T    
C69   N55   T    
C91   N17   T    
C81   N7    T    
C82   N8    T    
C60   C68   T    
C22   C26   S    
C171  H34   S    
C191  H6    S    
C222  C226  S    
C138  H59   S    
C140  H61   S    
C89   C201  S    
C45   C60   S    
C112  C159  S    
C50   C64   S    
C210  C227  S    
C20   C41   S    
C43   O36   A    
C84   C200  S    
C14   C125  S    
C131  H52   S    
C169  H12   S    
C116  H37   S    
C63   N23   T    
C34   O27   A    
C203  C233  S    
O67   Zn10  S    
C161  C175  S    
C147  C230  S    
C9    C22   S    
C162  C176  S    
O39   Zn8   S    
C15   C16   S    
C124  C159  S    
O20   Zn10  S    
C171  C189  S    
C153  N48   T    
C27   C128  S    
O14   Zn5   S    
C121  O64   D    
C134  H55   S    
C72   N3    T    
C95   C228  S    
C93   C226  S    
C207  C225  S    
C212  C216  S    
C8    C9    S    
C23   C33   S    
C15   C126  S    
O38   Zn7   S    
C66   C173  S    
C69   C176  S    
O4    Zn8   S    
C145  N40   T    
O36   Zn5   S    
C118  O61   D    
C161  C166  S    
O24   Zn13  S    
O34   Zn11  S    
C25   C32   S    
C15   C23   S    
C100  O53   D    
C117  O60   D    
C126  H47   S    
O47   Zn10  S    
C137  H58   S    
C136  O79   D    
C192  C214  S    
C107  C223  S    
C38   O30   A    
O17   Zn8   S    
C4    C34   S    
C175  O8    A    
C154  C163  S    
C47   O48   A    
C24   C148  S    
O31   Zn12  S    
C181  C185  S    
C57   C219  S    
C53   C97   S    
C6    C240  T    
C12   C21   S    
O23   Zn3   S    
C13   C24   S    
C170  H23   S    
C210  C240  S    
C2    C186  S    
C48   C186  S    
C10   C118  S    
C29   C130  S    
C8    C21   S    
C6    C37   S    
C213  H10   S    
C133  O76   D    
C13   C219  S    
C198  C211  S    
C104  H35   S    
C196  H3    S    
C191  H56   S    
C12   C14   S    
O84   Zn5   S    
C159  C163  S    
C121  H42   S    
C20   C33   T    
C83   C199  S    
C11   C117  S    
C220  C224  S    
C195  C200  S    
C11   C144  S    
C126  O69   D    
C190  H5    S    
C168  C185  S    
C15   C121  S    
C1    O5    A    
C77   H30   S    
C41   O42   A    
C190  C212  S    
O34   Zn8   S    
C10   C23   S    
C139  O82   D    
C98   N25   T    
O8    Zn15  S    
C28   C131  S    
C164  O7    A    
C65   N45   T    
C229  O22   A    
C13   C149  S    
C26   C133  S    
C193  H63   S    
C81   C196  S    
C66   N53   T    
C194  H64   S    
C106  C222  S    
C131  O74   D    
C216  C221  S    
C52   C96   S    
C112  O6    A    
C10   C143  S    
C79   C166  S    
C100  C225  S    
O42   Zn3   S    
O23   Zn14  S    
C231  O56   A    
C162  C167  S    
O37   Zn6   S    
C62   N12   T    
C184  C189  S    
C54   C98   S    
C72   C179  S    
C212  H9    S    
C73   N4    T    
O26   Zn15  S    
C142  N37   T    
