data_mof_unit_58510.cif
_audit_creation_date              2012-12-11T16:50:55-0500
_audit_creation_method            fapswitch 2.2
_symmetry_space_group_name_H-M    P1
_symmetry_Int_Tables_number       1
_space_group_crystal_system       triclinic
_cell_length_a                    6.936541
_cell_length_b                    28.7977
_cell_length_c                    32.153291
_cell_angle_alpha                 100.861445
_cell_angle_beta                  89.796809
_cell_angle_gamma                 90.361126
_cell_volume                      6307.62281909

loop_
_atom_site_label
_atom_site_type_symbol
_atom_type_description
_atom_site_fract_x
_atom_site_fract_y
_atom_site_fract_z
_atom_type_partial_charge
O1    O     O_R   0.494350 0.453170 0.452520 -0.547539
O2    O     O_R   0.820980 0.455850 0.538220 -0.522101
O3    O     O_R   0.994300 0.546830 0.547480 -0.556762
C1    C     C_R   0.651766 0.445943 0.551803 0.814634
O4    O     O_R   0.823860 0.447590 0.452270 -0.541397
O5    O     O_R   0.997200 0.538510 0.460920 -0.548629
C2    C     C_R   0.655036 0.435134 0.436588 0.697295
O6    O     O_R   0.491440 0.461490 0.539080 -0.517012
O7    O     O_3   0.661790 0.529840 0.502940 -0.375770
V1    V     V_3+5 0.935470 0.494460 0.499450 1.473517
O8    O     O_R   0.327090 0.544150 0.461780 -0.523474
C3    C     C_R   0.158690 0.553796 0.448131 0.763985
O9    O     O_R   0.324210 0.552410 0.547730 -0.515206
C4    C     C_R   0.155632 0.565144 0.563192 0.795583
V2    V     V_3+5 0.435840 0.505540 0.500550 1.518436
O10   O     O_3   0.159650 0.470160 0.497060 -0.365200
C5    C     C_R   0.190652 0.897334 0.868877 -0.217997
H1    H     H_    0.292430 0.926496 0.872634 0.135536
C6    C     C_R   0.202863 0.861945 0.832719 -0.131127
H2    H     H_    0.312262 0.865540 0.809456 0.119570
C7    C     C_R   0.073714 0.823332 0.826290 0.056865
C8    C     C_R   0.930123 0.821684 0.857140 -0.216407
H3    H     H_    0.829875 0.792288 0.853808 0.131684
C9    C     C_R   0.915917 0.857422 0.893431 0.456074
C10   C     C_R   0.046219 0.895982 0.899291 -0.144723
C11   C     C_R   0.924761 0.760428 0.769708 -0.177092
H4    H     H_    0.783289 0.768478 0.783314 0.136185
C12   C     C_R   0.939816 0.725010 0.733582 -0.168133
H5    H     H_    0.810286 0.706652 0.721079 0.223486
C13   C     C_R   0.117700 0.713840 0.713203 0.011908
C14   C     C_R   0.282604 0.740099 0.729766 0.480630
C15   C     C_R   0.267635 0.773908 0.767588 -0.232425
H6    H     H_    0.397900 0.790706 0.781617 0.119393
C16   C     C_R   0.088679 0.785322 0.787505 0.048272
C17   C     C_R   0.241103 0.680891 0.639568 -0.235149
H7    H     H_    0.313119 0.714077 0.638989 0.167102
C18   C     C_R   0.261705 0.644184 0.604218 0.412090
C19   C     C_R   0.147310 0.603158 0.601120 -0.201689
C20   C     C_R   0.028474 0.597686 0.635220 -0.320872
H8    H     H_    0.943603 0.565674 0.633642 0.161410
C21   C     C_R   0.025291 0.632009 0.672561 0.467671
C22   C     C_R   0.128034 0.675119 0.674720 -0.031618
C23   C     C_R   0.239138 0.666131 0.289716 0.702759
N1    N     N_R   0.118758 0.674479 0.324223 -0.526843
C24   C     C_R   0.990733 0.711170 0.329672 0.568657
C25   C     C_R   0.980013 0.741154 0.299851 0.019040
C26   C     C_R   0.101807 0.733003 0.263976 -0.077189
C27   C     C_R   0.231956 0.694842 0.258381 -0.207634
C28   C     C_R   0.849628 0.778958 0.305105 -0.140355
C29   C     C_R   0.841349 0.808719 0.275588 -0.156074
C30   C     C_R   0.962418 0.801341 0.239858 -0.009088
C31   C     C_R   0.092285 0.763101 0.233737 -0.086097
C32   C     C_R   0.212064 0.755120 0.197566 -0.194744
C33   C     C_R   0.346241 0.717548 0.192590 0.384706
C34   C     C_R   0.350405 0.686527 0.221756 0.368451
C35   C     C_R   0.956215 0.831416 0.210049 0.564007
N2    N     N_R   0.071377 0.823128 0.174739 -0.572048
C36   C     C_R   0.194369 0.785272 0.167589 0.614387
O11   O     O_2   0.366328 0.630386 0.286084 -0.507456
O12   O     O_2   0.872843 0.718438 0.363724 -0.531204
H9    H     H_    0.753724 0.785841 0.332196 0.168257
H10   H     H_    0.739242 0.837545 0.280876 0.172638
O13   O     O_2   0.836173 0.868788 0.216432 -0.506417
O14   O     O_2   0.298182 0.776853 0.131437 -0.487895
C37   C     C_R   0.223930 0.883129 0.137490 0.408080
C38   C     C_R   0.212317 0.911593 0.106649 -0.175338
H11   H     H_    0.336776 0.932801 0.101611 0.146930
C39   C     C_R   0.042107 0.914088 0.083475 -0.138890
C40   C     C_R   0.882392 0.886696 0.091375 -0.190877
H12   H     H_    0.749189 0.887674 0.074097 0.147838
C41   C     C_R   0.893550 0.857124 0.121260 -0.091293
H13   H     H_    0.769605 0.835745 0.126235 0.168575
C42   C     C_R   0.063157 0.854749 0.144582 0.256199
C43   C     C_R   0.198264 0.661029 0.395782 -0.241334
H14   H     H_    0.247330 0.697377 0.403964 0.180099
C44   C     C_R   0.205412 0.631987 0.426292 0.391984
C45   C     C_R   0.149108 0.584065 0.415619 -0.299692
C46   C     C_R   0.076670 0.566261 0.374259 0.187394
C47   C     C_R   0.060651 0.596687 0.344832 0.476590
C48   C     C_R   0.126119 0.643860 0.355141 0.147777
C49   C     C_R   0.619684 0.222622 0.837008 0.612346
N3    N     N_R   0.589605 0.175092 0.824139 -0.551454
C50   C     C_R   0.563821 0.155776 0.782200 0.599298
C51   C     C_R   0.559936 0.184910 0.751175 -0.196635
C52   C     C_R   0.601113 0.233661 0.763923 -0.058454
C53   C     C_R   0.630865 0.252543 0.807150 -0.035996
C54   C     C_R   0.523987 0.166711 0.707718 0.371776
C55   C     C_R   0.546995 0.195522 0.677484 0.376771
C56   C     C_R   0.581436 0.244837 0.690208 -0.196616
C57   C     C_R   0.611627 0.263680 0.733607 -0.126932
C58   C     C_R   0.652834 0.312526 0.746764 -0.054975
C59   C     C_R   0.683278 0.331040 0.790326 0.399766
C60   C     C_R   0.671053 0.300858 0.819883 -0.238839
C61   C     C_R   0.578219 0.276309 0.661245 0.598517
N4    N     N_R   0.621911 0.323215 0.674230 -0.537077
C62   C     C_R   0.662100 0.341460 0.715767 0.684863
O15   O     O_2   0.639755 0.240850 0.878626 -0.509328
O16   O     O_2   0.547904 0.108403 0.770683 -0.512307
O17   O     O_2   0.525259 0.260771 0.620664 -0.510771
O18   O     O_2   0.710836 0.387543 0.726857 -0.466119
H15   H     H_    0.694063 0.315430 0.853100 0.167024
C63   C     C_R   0.492155 0.391113 0.645724 0.426046
C64   C     C_R   0.502344 0.422064 0.616168 0.194612
C65   C     C_R   0.640600 0.414037 0.583157 -0.231646
C66   C     C_R   0.768575 0.375599 0.580347 0.360249
C67   C     C_R   0.761295 0.346464 0.610643 -0.291549
H16   H     H_    0.863565 0.317871 0.608804 0.171338
C68   C     C_R   0.625294 0.353938 0.643397 0.188072
C69   C     C_R   0.404000 0.123822 0.862586 -0.191101
H17   H     H_    0.278497 0.130828 0.844909 0.173508
C70   C     C_R   0.387314 0.093862 0.892223 0.449252
C71   C     C_R   0.549538 0.085810 0.916407 -0.257020
C72   C     C_R   0.726376 0.107173 0.909107 -0.262253
H18   H     H_    0.852634 0.101426 0.927140 0.213933
C73   C     C_R   0.744719 0.135894 0.878620 0.430277
C74   C     C_R   0.580535 0.144788 0.855253 0.198044
C75   C     C_R   0.666798 0.098966 0.136719 0.317361
C76   C     C_R   0.679792 0.136643 0.171287 -0.114982
H19   H     H_    0.770793 0.132561 0.197647 0.156715
C77   C     C_R   0.570931 0.177983 0.173220 -0.027219
C78   C     C_R   0.449229 0.181334 0.139072 -0.224917
H20   H     H_    0.364655 0.212888 0.139444 0.137541
C79   C     C_R   0.438430 0.144725 0.103412 0.438742
C80   C     C_R   0.546065 0.102891 0.101870 -0.238222
C81   C     C_R   0.417324 0.242749 0.226843 -0.223368
H21   H     H_    0.279431 0.233234 0.211930 0.122316
C82   C     C_R   0.426648 0.279621 0.262747 0.472491
C83   C     C_R   0.602632 0.289147 0.285011 0.015773
C84   C     C_R   0.766917 0.263363 0.269029 -0.165447
H22   H     H_    0.904269 0.270576 0.284753 0.213681
C85   C     C_R   0.757669 0.228284 0.232544 -0.176014
H23   H     H_    0.888788 0.209962 0.221058 0.131759
C86   C     C_R   0.582378 0.217053 0.211160 0.076908
C87   C     C_R   0.716647 0.317620 0.360759 0.393589
C88   C     C_R   0.732456 0.353944 0.396955 -0.249541
H24   H     H_    0.808928 0.347569 0.424606 0.100688
C89   C     C_R   0.644379 0.397832 0.398193 -0.069697
C90   C     C_R   0.544902 0.406030 0.362492 -0.160013
H25   H     H_    0.477971 0.439960 0.362649 0.129255
C91   C     C_R   0.535651 0.371157 0.325835 -0.145739
H26   H     H_    0.465217 0.379612 0.298292 0.149765
C92   C     C_R   0.617974 0.326308 0.324484 0.085098
O19   O     O_R   0.699170 0.038480 0.960880 -0.547821
O20   O     O_R   0.366800 0.052460 0.047690 -0.511355
O21   O     O_R   0.193520 0.961530 0.039110 -0.547044
C93   C     C_R   0.535526 0.064730 0.063647 0.716010
O22   O     O_R   0.369630 0.044100 0.961740 -0.506119
O23   O     O_R   0.196370 0.953120 0.952550 -0.542573
C94   C     C_R   0.538659 0.054161 0.948137 0.751158
O24   O     O_R   0.696320 0.046890 0.047450 -0.540861
O25   O     O_3   0.528890 0.970170 0.997080 -0.374135
V3    V     V_3+5 0.255190 0.005530 0.000540 1.519060
O26   O     O_R   0.866460 0.947530 0.952310 -0.518576
C95   C     C_R   0.035328 0.934631 0.936879 0.715300
O27   O     O_R   0.863630 0.955880 0.038270 -0.544800
C96   C     C_R   0.032140 0.945747 0.051793 0.718519
V4    V     V_3+5 0.754830 0.994440 0.999470 1.471007
O28   O     O_3   0.031000 0.029830 0.002920 -0.353047
O29   O     O_3   0.380364 0.650023 0.570870 -0.553006
C97   C     C_3   0.574458 0.649422 0.583805 -0.142059
H27   H     H_    0.607391 0.617041 0.596680 0.135927
H28   H     H_    0.611502 0.681650 0.607413 0.122728
H29   H     H_    0.668489 0.649055 0.555759 0.149356
O30   O     O_3   0.916998 0.623329 0.706437 -0.556616
C98   C     C_3   0.034271 0.599737 0.731430 -0.178688
H30   H     H_    0.161348 0.621720 0.744005 0.141471
H31   H     H_    0.081853 0.564806 0.713404 0.146313
H32   H     H_    0.948541 0.593176 0.758953 0.174828
O31   O     O_3   0.470548 0.709415 0.158279 -0.519771
C99   C     C_3   0.647353 0.732253 0.170622 -0.100185
H33   H     H_    0.627694 0.771023 0.181161 0.127037
H34   H     H_    0.745821 0.727006 0.142896 0.157229
H35   H     H_    0.718101 0.716955 0.195937 0.140521
O32   O     O_3   0.479675 0.649465 0.215078 -0.529503
C100  C     C_3   0.393960 0.610946 0.187618 -0.110693
H36   H     H_    0.256582 0.599746 0.200934 0.139708
H37   H     H_    0.494055 0.580538 0.183746 0.151493
H38   H     H_    0.368656 0.619284 0.155685 0.146885
O33   O     O_3   0.393487 0.884713 0.160111 -0.624218
H39   H     H_    0.374401 0.868861 0.184573 0.313837
O34   O     O_3   0.271479 0.650519 0.466537 -0.531515
C101  C     C_3   0.116878 0.673911 0.490160 -0.159245
H40   H     H_    0.002319 0.648321 0.495293 0.111582
H41   H     H_    0.055289 0.702133 0.474889 0.136827
H42   H     H_    0.171007 0.691402 0.521642 0.187570
O35   O     O_3   0.020988 0.519630 0.360918 -0.621273
H43   H     H_    0.059622 0.500486 0.381957 0.282132
O36   O     O_3   0.991881 0.579149 0.304616 -0.534423
C102  C     C_3   0.790828 0.586018 0.304699 -0.095919
H44   H     H_    0.753981 0.624216 0.312733 0.159962
H45   H     H_    0.716702 0.566280 0.326823 0.145445
H46   H     H_    0.735177 0.572203 0.272406 0.180650
O37   O     O_3   0.467861 0.120552 0.693261 -0.575044
H47   H     H_    0.357906 0.114145 0.711174 0.325704
O38   O     O_3   0.532704 0.173963 0.635563 -0.575203
H48   H     H_    0.646026 0.184402 0.620772 0.329900
O39   O     O_3   0.723093 0.378616 0.803691 -0.592727
H49   H     H_    0.740187 0.385516 0.834860 0.298777
O40   O     O_3   0.358551 0.398509 0.678275 -0.534613
C103  C     C_3   0.189590 0.373074 0.664109 -0.213482
H50   H     H_    0.216767 0.334360 0.656238 0.150957
H51   H     H_    0.126955 0.385523 0.636379 0.153565
H52   H     H_    0.081191 0.379254 0.689952 0.201602
O41   O     O_3   0.383004 0.460906 0.619302 -0.635160
H53   H     H_    0.302582 0.463956 0.645145 0.326445
O42   O     O_3   0.908363 0.367712 0.549115 -0.537500
C104  C     C_3   0.842420 0.331717 0.516228 -0.184232
H54   H     H_    0.706469 0.342120 0.502183 0.107089
H55   H     H_    0.821986 0.297680 0.527353 0.158453
H56   H     H_    0.953159 0.325903 0.490840 0.151429
O43   O     O_3   0.209660 0.074571 0.899136 -0.537736
C105  C     C_3   0.167246 0.037552 0.864948 -0.194744
H57   H     H_    0.285509 0.011106 0.859216 0.105116
H58   H     H_    0.136662 0.051471 0.835675 0.156086
H59   H     H_    0.035558 0.018931 0.872903 0.143898
O44   O     O_3   0.924979 0.154156 0.872699 -0.624034
H60   H     H_    0.924524 0.168274 0.846936 0.296211
O45   O     O_3   0.770720 0.058801 0.139127 -0.624663
H61   H     H_    0.714066 0.031384 0.119766 0.290168
O46   O     O_3   0.770223 0.854962 0.922379 -0.549604
C106  C     C_3   0.838830 0.829744 0.952823 -0.214332
H62   H     H_    0.722826 0.828197 0.976372 0.164244
H63   H     H_    0.965084 0.847821 0.970261 0.110178
H64   H     H_    0.876061 0.792736 0.938085 0.138166
O47   O     O_3   0.316474 0.149520 0.070591 -0.543529
C107  C     C_3   0.418622 0.172213 0.042034 -0.196885
H65   H     H_    0.322097 0.175281 0.015259 0.177042
H66   H     H_    0.546308 0.151298 0.028580 0.112977
H67   H     H_    0.463420 0.208603 0.057314 0.134119
O48   O     O_3   0.261250 0.303275 0.278889 -0.553670
C108  C     C_3   0.178000 0.326131 0.248151 -0.310538
H68   H     H_    0.097387 0.300637 0.224127 0.146381
H69   H     H_    0.287073 0.345615 0.232420 0.134353
H70   H     H_    0.072745 0.352449 0.264212 0.183060
O49   O     O_3   0.791771 0.273295 0.360680 -0.636905
H71   H     H_    0.855067 0.273180 0.388268 0.295300
O50   O     O_3   0.460593 0.730031 0.710704 -0.561009
C109  C     C_3   0.534939 0.770818 0.697562 -0.328677
H72   H     H_    0.597545 0.795923 0.724666 0.155178
H73   H     H_    0.424528 0.789014 0.681374 0.141070
H74   H     H_    0.652716 0.759893 0.674423 0.169668

loop_
_geom_bond_atom_site_label_1
_geom_bond_atom_site_label_2
_ccdc_geom_bond_type
C27   C34   A    
C38   C39   A    
C54   C55   A    
C24   O12   S    
O27   C96   A    
V4    O28   S    
O24   V4    S    
O27   V4    S    
N4    C62   A    
C21   C22   A    
C77   C78   A    
C70   C71   A    
C55   O38   S    
C51   C54   A    
C1    O6    A    
C83   C84   A    
C76   C77   A    
C49   N3    A    
C57   C58   A    
C90   H25   S    
O45   H61   S    
C88   H24   S    
C20   C21   A    
C85   C86   A    
O34   C101  S    
C31   C32   A    
C25   C28   A    
C59   O39   S    
C11   H4    S    
C98   H30   S    
C43   C44   A    
C66   C67   A    
O25   V4    S    
C12   H5    S    
C17   C18   A    
C75   C80   A    
C91   C92   A    
C30   C35   A    
C106  H64   S    
C69   C70   A    
O29   C97   S    
O5    C3    A    
C19   C20   A    
C87   C92   A    
C99   H33   S    
O39   H49   S    
V2    O10   S    
C1    C65   S    
C37   C42   A    
C35   N2    A    
C100  H37   S    
C102  H45   S    
C77   C86   S    
O31   C99   S    
N2    C42   S    
C56   C61   A    
C40   C41   A    
C17   C22   A    
C76   H19   S    
C65   C66   A    
C64   C65   A    
C69   C74   A    
C63   C64   A    
C58   C62   A    
O32   C100  S    
O21   C96   A    
O8    V2    S    
C51   C52   A    
C11   C16   A    
O26   C95   A    
C50   C51   A    
C32   C33   A    
C103  H50   S    
C50   O16   S    
C5    H1    S    
C104  H56   S    
O49   H71   S    
C82   C83   A    
C63   C68   A    
C46   O35   S    
C23   C27   A    
C69   H17   S    
C49   C53   A    
C23   O11   S    
C55   C56   A    
C67   C68   A    
C38   H11   S    
C14   O50   S    
C34   O32   S    
O40   C103  S    
C98   H31   S    
C43   C48   A    
C7    C8    A    
C33   O31   S    
C61   N4    A    
O23   C95   A    
O46   C106  S    
O19   V4    S    
C100  H38   S    
V3    O28   S    
C44   C45   A    
C8    H3    S    
C36   O14   S    
C52   C57   A    
C109  H73   S    
O22   C94   A    
C28   H9    S    
C47   O36   S    
C30   C31   A    
C26   C27   A    
C79   C80   A    
C9    C10   A    
C54   O37   S    
O20   C93   A    
C109  H72   S    
C60   H15   S    
C58   C59   A    
C41   C42   A    
O42   C104  S    
C39   C40   A    
O38   H48   S    
C2    C89   S    
C7    C16   S    
C37   O33   S    
C29   C30   A    
C45   C46   A    
C80   C93   S    
N3    C50   A    
C82   O48   S    
C47   C48   A    
O36   C102  S    
C17   H7    S    
C15   C16   A    
C102  H46   S    
O2    C1    A    
C23   N1    A    
C97   H29   S    
O43   C105  S    
C18   C19   A    
C53   C60   A    
C4    C19   S    
C106  H62   S    
C66   O42   S    
C100  H36   S    
C109  H74   S    
C105  H59   S    
N1    C48   S    
O25   V3    S    
O44   H60   S    
C3    C45   S    
O47   C107  S    
C78   H20   S    
C35   O13   S    
C75   O45   S    
C108  H69   S    
C25   C26   A    
O41   H53   S    
C101  H40   S    
C52   C53   A    
C72   H18   S    
O3    C4    A    
C90   C91   A    
O1    V2    S    
C9    O46   S    
C105  H58   S    
C107  H65   S    
C98   H32   S    
C107  H66   S    
O9    V2    S    
C81   H21   S    
C29   H10   S    
C28   C29   A    
C8    C9    A    
C44   O34   S    
O2    V1    S    
C43   H14   S    
C20   H8    S    
N1    C24   A    
O4    C2    A    
C84   H22   S    
O7    V1    S    
C81   C86   A    
C102  H44   S    
C88   C89   A    
C33   C34   A    
O30   C98   S    
C101  H41   S    
C6    C7    A    
C10   C95   S    
O1    C2    A    
C87   O49   S    
C14   C15   A    
O20   V3    S    
O23   V3    S    
C104  H55   S    
C39   C96   S    
C85   H23   S    
O5    V1    S    
O8    C3    A    
C93   O24   A    
C87   C88   A    
C79   O47   S    
O6    V2    S    
C107  H67   S    
C89   C90   A    
C11   C12   A    
C106  H63   S    
C5    C10   A    
C15   H6    S    
C18   O29   S    
C6    H2    S    
C12   C13   A    
O22   V3    S    
C56   C57   A    
C63   O40   S    
N3    C74   S    
O48   C108  S    
C64   O41   S    
O3    V1    S    
V1    O10   S    
C75   C76   A    
C97   H27   S    
C46   C47   A    
N2    C36   A    
C13   C14   A    
C49   O15   S    
C61   O17   S    
C103  H52   S    
C91   H26   S    
O50   C109  S    
C62   O18   S    
C59   C60   A    
C5    C6    A    
C73   O44   S    
C108  H70   S    
C71   C72   A    
C37   C38   A    
O26   V4    S    
C40   H12   S    
C70   O43   S    
C78   C79   A    
O21   V3    S    
N4    C68   S    
O19   C94   A    
O33   H39   S    
C24   C25   A    
O4    V1    S    
C41   H13   S    
C105  H57   S    
C103  H51   S    
O37   H47   S    
C67   H16   S    
C21   O30   S    
C26   C31   A    
C108  H68   S    
C81   C82   A    
C104  H54   S    
C71   C94   S    
C13   C22   S    
C99   H34   S    
C72   C73   A    
O35   H43   S    
O9    C4    A    
C83   C92   S    
C101  H42   S    
C32   C36   A    
C73   C74   A    
O7    V2    S    
C97   H28   S    
C84   C85   A    
C99   H35   S    
