data_mof_unit_23449.cif
_audit_creation_date              2012-12-10T18:58:40-0500
_audit_creation_method            fapswitch 2.2
_symmetry_space_group_name_H-M    P1
_symmetry_Int_Tables_number       1
_space_group_crystal_system       triclinic
_cell_length_a                    10.725497
_cell_length_b                    10.035623
_cell_length_c                    17.575593
_cell_angle_alpha                 90.003135
_cell_angle_beta                  99.620124
_cell_angle_gamma                 89.995673
_cell_volume                      1865.18146651

loop_
_atom_site_label
_atom_site_type_symbol
_atom_type_description
_atom_site_fract_x
_atom_site_fract_y
_atom_site_fract_z
_atom_type_partial_charge
C1    C     C_R   0.260650 0.499825 0.501119 0.915124
C2    C     C_R   0.739351 0.499818 0.498887 0.915067
C3    C     C_1   0.500226 0.498753 0.966274 -0.037804
C4    C     C_1   0.502311 0.498778 0.033990 -0.037894
C5    C     C_R   0.064129 0.377424 0.500683 -0.134459
C6    C     C_R   0.935737 0.620094 0.497928 -0.138356
C7    C     C_R   0.935996 0.377420 0.499731 -0.135641
C8    C     C_R   0.064144 0.620110 0.501704 -0.138790
C9    C     C_R   0.501642 0.500040 0.354047 0.901822
C10   C     C_R   0.498438 0.500048 0.645964 0.903454
C11   C     C_R   0.871973 0.499034 0.498410 -0.076476
C12   C     C_R   0.128029 0.499049 0.501608 -0.075865
C13   C     C_R   0.525106 0.617170 0.850036 -0.149132
C14   C     C_R   0.533366 0.382573 0.156252 -0.134811
C15   C     C_R   0.476482 0.617170 0.150072 -0.149014
C16   C     C_R   0.468615 0.382468 0.844029 -0.135137
C17   C     C_R   0.524265 0.617827 0.771119 -0.151044
C18   C     C_R   0.533509 0.382884 0.235124 -0.142157
C19   C     C_R   0.476544 0.617778 0.228912 -0.150881
C20   C     C_R   0.467696 0.382827 0.765081 -0.141231
C21   C     C_R   0.496732 0.500243 0.728389 -0.081184
C22   C     C_R   0.503883 0.500221 0.271683 -0.082379
C23   C     C_R   0.585544 0.072980 0.554062 0.268914
C24   C     C_R   0.413003 0.927291 0.446944 0.270942
C25   C     C_R   0.414467 0.072980 0.445928 0.268718
C26   C     C_R   0.587014 0.927288 0.553051 0.270869
C27   C     C_R   0.497874 0.499431 0.885964 0.138158
C28   C     C_R   0.504303 0.499510 0.114267 0.138201
H1    H     H_    0.547345 0.707876 0.883000 0.156346
H2    H     H_    0.555658 0.291640 0.128068 0.152094
H3    H     H_    0.454326 0.707838 0.117063 0.156293
H4    H     H_    0.446712 0.291492 0.872305 0.152066
H5    H     H_    0.546129 0.709676 0.743876 0.214565
H6    H     H_    0.557543 0.291967 0.267392 0.193645
H7    H     H_    0.454246 0.709566 0.256062 0.214642
H8    H     H_    0.443547 0.291878 0.732861 0.193403
H9    H     H_    0.112565 0.282645 0.500848 0.198493
H10   H     H_    0.887004 0.714605 0.494781 0.218095
H11   H     H_    0.887657 0.282643 0.499884 0.198970
H12   H     H_    0.112779 0.714645 0.504538 0.218338
N1    N     N_R   0.500000 0.857200 0.500000 -0.234356
N2    N     N_R   0.500000 0.142800 0.500000 -0.236734
O1    O     O_R   0.316770 0.614620 0.500000 -0.568308
O2    O     O_R   0.683230 0.385380 0.500000 -0.573478
O3    O     O_R   0.683230 0.614620 0.500000 -0.568075
O4    O     O_R   0.316770 0.385380 0.500000 -0.573534
O5    O     O_R   0.500010 0.614710 0.389120 -0.566230
O6    O     O_R   0.499990 0.385290 0.610880 -0.561217
O7    O     O_R   0.499990 0.614710 0.610880 -0.566849
O8    O     O_R   0.500010 0.385290 0.389120 -0.562037
Zn1   Zn    Zn3+2 0.500000 0.653120 0.500000 1.091085
Zn2   Zn    Zn3+2 0.500000 0.346880 0.500000 1.090148
S1    S     S_3+6 0.688565 0.159485 0.633181 0.107449
O9    O     O_2   0.631887 0.135055 0.704592 -0.296039
O10   O     O_2   0.819722 0.102937 0.645123 -0.208343
O11   O     O_3   0.718064 0.322737 0.632364 -0.528287
H13   H     H_    0.764357 0.343977 0.684619 0.363777
S2    S     S_3+6 0.288140 0.841900 0.380532 0.093474
O12   O     O_2   0.165826 0.874891 0.407276 -0.295501
O13   O     O_2   0.284757 0.895096 0.300400 -0.231664
O14   O     O_3   0.283002 0.677336 0.366562 -0.538054
H14   H     H_    0.200966 0.659615 0.332877 0.363629
S3    S     S_3+6 0.311710 0.159487 0.366685 0.108021
O15   O     O_2   0.368972 0.135280 0.295461 -0.297701
O16   O     O_2   0.180597 0.102865 0.354296 -0.205551
O17   O     O_3   0.281888 0.322669 0.367632 -0.527942
H15   H     H_    0.239939 0.344987 0.314597 0.363850
S4    S     S_3+6 0.712036 0.841876 0.619359 0.093612
O18   O     O_2   0.834211 0.874585 0.592372 -0.295350
O19   O     O_2   0.715915 0.895227 0.699501 -0.231379
O20   O     O_3   0.716985 0.677342 0.633440 -0.537874
H16   H     H_    0.799168 0.659527 0.666955 0.363497

loop_
_geom_bond_atom_site_label_1
_geom_bond_atom_site_label_2
_ccdc_geom_bond_type
C25   N2    A    
C2    O2    A    
O8    Zn2   S    
S3    O16   D    
C15   H3    S    
C5    H9    S    
C16   H4    S    
C18   C22   A    
C14   C18   A    
C13   C17   A    
C23   N2    A    
C16   C20   A    
C8    C12   A    
C26   S4    S    
O2    Zn2   S    
S2    O14   S    
C6    H10   S    
O17   H15   S    
S3    O17   S    
O20   H16   S    
C10   C21   S    
C19   H7    S    
S1    O9    D    
C24   C25   A    
C7    C11   A    
C24   N1    A    
C18   H6    S    
O1    Zn1   S    
C15   C28   A    
C20   C21   A    
C1    C12   S    
C17   H5    S    
C16   C27   A    
S4    O20   S    
C2    C11   S    
C3    C27   S    
C4    C28   S    
N1    Zn1   S    
C14   H2    S    
C23   S1    S    
S1    O10   D    
C2    O3    A    
C10   O6    A    
O14   H14   S    
C1    O4    A    
C17   C21   A    
C9    C22   S    
S1    O11   S    
C9    O5    A    
O3    Zn1   S    
S2    O13   D    
S3    O15   D    
C20   H8    S    
O4    Zn2   S    
O6    Zn2   S    
C19   C22   A    
O11   H13   S    
C5    C12   A    
C24   S2    S    
C25   S3    S    
C23   C26   A    
C13   H1    S    
C6    C11   A    
C5    C7    A    
S4    O19   D    
C7    H11   S    
C13   C27   A    
C6    C8    A    
C8    H12   S    
C14   C28   A    
S2    O12   D    
C15   C19   A    
C10   O7    A    
C1    O1    A    
O5    Zn1   S    
C9    O8    A    
C3    C4    T    
C26   N1    A    
N2    Zn2   S    
S4    O18   D    
O7    Zn1   S    
