data_mof_unit_40425.cif
_audit_creation_date              2012-12-10T16:56:29-0500
_audit_creation_method            fapswitch 2.2
_symmetry_space_group_name_H-M    P1
_symmetry_Int_Tables_number       1
_space_group_crystal_system       triclinic
_cell_length_a                    7.764689
_cell_length_b                    8.736121
_cell_length_c                    15.698571
_cell_angle_alpha                 91.108117
_cell_angle_beta                  85.806907
_cell_angle_gamma                 93.880925
_cell_volume                      1059.48870954

loop_
_atom_site_label
_atom_site_type_symbol
_atom_type_description
_atom_site_fract_x
_atom_site_fract_y
_atom_site_fract_z
_atom_type_partial_charge
Br1   Br    Br    0.833512 0.332483 0.060150 -0.471440
Br2   Br    Br    0.166491 0.667517 0.939848 -0.471265
C1    C     C_R   0.545329 0.793959 0.497351 0.884418
C2    C     C_3   0.353262 0.423106 0.031404 -0.198865
C3    C     C_1   0.506071 0.499472 0.750709 -0.122363
C4    C     C_1   0.493930 0.500528 0.249290 -0.122615
C5    C     C_3   0.363433 0.568113 0.976286 0.354397
C6    C     C_3   0.636570 0.431887 0.023713 0.354376
C7    C     C_3   0.503900 0.499540 0.916989 0.044430
C8    C     C_3   0.496103 0.500460 0.083010 0.044450
C9    C     C_1   0.506614 0.499295 0.826026 0.046834
C10   C     C_1   0.493387 0.500705 0.173973 0.046774
C11   C     C_2   0.753414 0.013617 0.474864 1.097538
C12   C     C_R   0.454691 0.206049 0.502838 0.884178
C13   C     C_2   0.246791 0.986445 0.526063 1.097288
C14   C     C_R   0.502044 0.500023 0.661948 0.896563
C15   C     C_R   0.497956 0.499978 0.338052 0.896918
C16   C     C_2   0.569597 0.955694 0.493677 -0.421300
C17   C     C_2   0.430515 0.044345 0.506947 -0.421443
C18   C     C_3   0.504869 0.646171 0.029426 -0.228466
C19   C     C_3   0.495134 0.353829 0.970573 -0.228420
C20   C     C_3   0.646741 0.576894 0.968595 -0.198831
H1    H     H_    0.766467 0.639023 0.940837 0.219620
H2    H     H_    0.233536 0.360977 0.059162 0.219604
H3    H     H_    0.507418 0.765381 0.055347 0.192436
H4    H     H_    0.492585 0.234619 0.944652 0.192460
H5    H     H_    0.013548 0.382072 0.437196 0.219341
H6    H     H_    0.986451 0.617925 0.562805 0.219427
H7    H     H_    0.786009 0.069893 0.598104 0.312910
H8    H     H_    0.213137 0.930824 0.402849 0.313106
N1    N     N_2   0.950320 0.457950 0.477300 -0.144618
N2    N     N_2   0.049680 0.542050 0.522700 -0.144591
O1    O     O_R   0.389250 0.738570 0.505570 -0.608184
O2    O     O_R   0.852472 0.073413 0.540076 -0.718477
O3    O     O_2   0.182680 0.991328 0.599338 -0.554466
O4    O     O_R   0.147142 0.927036 0.460988 -0.718364
O5    O     O_R   0.610750 0.261430 0.494430 -0.608082
O6    O     O_R   0.678390 0.711630 0.491020 -0.609191
O7    O     O_R   0.321610 0.288370 0.508980 -0.609286
O8    O     O_R   0.355460 0.513480 0.630490 -0.592462
O9    O     O_R   0.644540 0.486520 0.369510 -0.592463
O10   O     O_R   0.644600 0.486540 0.615950 -0.625068
O11   O     O_R   0.355400 0.513460 0.384050 -0.625003
O12   O     O_2   0.818104 0.008456 0.401702 -0.554416
Zn1   Zn    Zn3+2 0.306940 0.517990 0.509710 1.026301
Zn2   Zn    Zn3+2 0.693060 0.482010 0.490290 1.026310

loop_
_geom_bond_atom_site_label_1
_geom_bond_atom_site_label_2
_ccdc_geom_bond_type
C6    C20   S    
O9    Zn2   S    
C15   O11   A    
Br1   C6    S    
O11   Zn1   S    
N2    Zn1   S    
N1    N2    D    
H8    O4    S    
O7    Zn1   S    
C6    C19   S    
C12   O7    A    
C11   O2    S    
C12   O5    A    
C13   C17   S    
C2    C19   S    
C7    C9    S    
C7    C19   S    
C8    C10   S    
C11   C16   S    
C14   O8    A    
C2    C5    S    
C12   C17   S    
C13   O3    D    
C19   H4    S    
C18   C20   S    
C3    C9    T    
C4    C10   T    
O8    Zn1   S    
C2    H2    S    
C15   O9    A    
C7    C20   S    
O6    Zn2   S    
C18   H3    S    
C1    O1    A    
C2    C8    S    
C14   O10   A    
C13   O4    S    
H6    N2    S    
O1    Zn1   S    
C1    C16   S    
C6    C8    S    
C16   C17   D    
O10   Zn2   S    
C5    C7    S    
C4    C15   S    
C20   H1    S    
C3    C14   S    
O5    Zn2   S    
H5    N1    S    
H7    O2    S    
C5    C18   S    
C11   O12   D    
Br2   C5    S    
C1    O6    A    
C8    C18   S    
N1    Zn2   S    
