data_mof_unit_27690.cif
_audit_creation_date              2012-10-26T20:17:05-0400
_audit_creation_method            fapswitch 2.2
_symmetry_space_group_name_H-M    P1
_symmetry_Int_Tables_number       1
_space_group_crystal_system       triclinic
_cell_length_a                    10.626359
_cell_length_b                    11.051613
_cell_length_c                    9.89229
_cell_angle_alpha                 111.549973
_cell_angle_beta                  98.76443
_cell_angle_gamma                 90.428049
_cell_volume                      1065.3634166

loop_
_atom_site_label
_atom_site_type_symbol
_atom_type_description
_atom_site_fract_x
_atom_site_fract_y
_atom_site_fract_z
_atom_type_partial_charge
C1    C     C_R   0.490748 0.254039 0.440395 0.546574
C2    C     C_3   0.122642 0.500198 0.501862 0.034431
C3    C     C_3   0.971943 0.615618 0.594095 -0.115948
C4    C     C_3   0.028057 0.384383 0.405905 -0.115948
C5    C     C_2   0.485748 0.114324 0.406890 -0.107037
C6    C     C_2   0.514252 0.885675 0.593110 -0.107037
C7    C     C_2   0.502190 0.069657 0.516235 -0.145668
C8    C     C_2   0.497810 0.930343 0.483765 -0.145668
C9    C     C_2   0.509718 0.509315 0.081043 0.081604
C10   C     C_2   0.490282 0.490684 0.918956 0.081604
C11   C     C_R   0.509252 0.745961 0.559605 0.546574
C12   C     C_R   0.259423 0.499991 0.500700 0.545918
C13   C     C_R   0.740577 0.500009 0.499300 0.545918
C14   C     C_3   0.059561 0.520010 0.637219 -0.094950
C15   C     C_3   0.940439 0.479990 0.362781 -0.094950
C16   C     C_3   0.962691 0.404183 0.541176 -0.115867
C17   C     C_3   0.037309 0.595817 0.458824 -0.115867
C18   C     C_3   0.877358 0.499802 0.498138 0.034431
Cu1   Cu    Cu3+1 0.522260 0.521810 0.644920 1.092386
Cu2   Cu    Cu3+1 0.477740 0.478190 0.355080 1.092386
H1    H     H_    0.928969 0.325732 0.574678 0.141404
H2    H     H_    0.468730 0.047590 0.292323 0.147912
H3    H     H_    0.417501 0.419541 0.842192 0.175069
H4    H     H_    0.582499 0.580459 0.157807 0.175069
H5    H     H_    0.812650 0.801076 0.943661 0.347410
H6    H     H_    0.187353 0.198922 0.056338 0.347414
H7    H     H_    0.071031 0.674268 0.425322 0.141404
H8    H     H_    0.110908 0.536343 0.749614 0.172098
H9    H     H_    0.889092 0.463657 0.250386 0.172098
H10   H     H_    0.945771 0.710212 0.670881 0.144727
H11   H     H_    0.054229 0.289788 0.329119 0.144728
H12   H     H_    0.480880 0.863866 0.369019 0.184330
H13   H     H_    0.519120 0.136134 0.630981 0.184330
H14   H     H_    0.531270 0.952410 0.707677 0.147912
N1    N     N_2   0.444270 0.445410 0.137360 -0.069407
N2    N     N_2   0.555730 0.554590 0.862640 -0.069407
O1    O     O_R   0.511880 0.332340 0.577400 -0.533602
O2    O     O_2   0.775597 0.610815 0.046586 -0.314352
O3    O     O_3   0.742837 0.739935 0.873287 -0.474806
O4    O     O_2   0.224403 0.389185 0.953413 -0.314350
O5    O     O_2   0.381181 0.222634 0.910127 -0.318469
O6    O     O_3   0.257162 0.260065 0.126712 -0.474811
O7    O     O_R   0.488120 0.667660 0.422600 -0.533602
O8    O     O_R   0.474280 0.295500 0.332650 -0.437833
O9    O     O_R   0.525720 0.704500 0.667350 -0.437832
O10   O     O_R   0.335640 0.518390 0.622350 -0.534234
O11   O     O_R   0.664360 0.481610 0.377650 -0.534234
O12   O     O_R   0.298050 0.481550 0.377590 -0.443851
O13   O     O_R   0.701950 0.518450 0.622410 -0.443852
O14   O     O_2   0.618819 0.777366 0.089873 -0.318467
S1    S     S_3+6 0.674872 0.672294 0.973755 0.092160
S2    S     S_3+6 0.325128 0.327706 0.026245 0.092159

loop_
_geom_bond_atom_site_label_1
_geom_bond_atom_site_label_2
_ccdc_geom_bond_type
C4    C16   S    
C3    H10   S    
C2    C4    S    
Cu1   O9    S    
C9    H4    S    
C11   O7    A    
C16   H1    S    
C10   H3    S    
C15   C18   S    
C5    C7    D    
C9    C10   S    
Cu1   O13   S    
O5    S2    D    
O3    S1    S    
Cu1   Cu2   S    
C1    O1    A    
C12   O12   A    
C2    C12   S    
C4    C15   S    
O14   S1    D    
Cu1   O10   S    
C7    C8    S    
H5    O3    S    
C2    C17   S    
C7    H13   S    
Cu2   O12   S    
C3    C14   S    
C13   C18   S    
C13   O13   A    
C15   C17   S    
C6    C8    D    
C12   O10   A    
Cu2   O8    S    
C15   H9    S    
C14   C16   S    
Cu1   N2    S    
C6    C11   S    
C2    C14   S    
C1    C5    S    
C11   O9    A    
C4    H11   S    
Cu1   O1    S    
C8    H12   S    
N2    S1    S    
Cu2   O7    S    
H6    O6    S    
C3    C18   S    
C16   C18   S    
N1    S2    S    
C9    N1    D    
C10   N2    D    
O2    S1    D    
C1    O8    A    
C14   H8    S    
O4    S2    D    
Cu2   N1    S    
C13   O11   A    
C3    C17   S    
C5    H2    S    
C6    H14   S    
O6    S2    S    
Cu2   O11   S    
C17   H7    S    
