data_mof_unit_51788.cif
_audit_creation_date              2012-12-11T18:13:33-0500
_audit_creation_method            fapswitch 2.2
_symmetry_space_group_name_H-M    P1
_symmetry_Int_Tables_number       1
_space_group_crystal_system       triclinic
_cell_length_a                    8.170365
_cell_length_b                    12.650651
_cell_length_c                    18.705197
_cell_angle_alpha                 99.458592
_cell_angle_beta                  91.157277
_cell_angle_gamma                 98.565767
_cell_volume                      1883.84081268

loop_
_atom_site_label
_atom_site_type_symbol
_atom_type_description
_atom_site_fract_x
_atom_site_fract_y
_atom_site_fract_z
_atom_type_partial_charge
Ba1   Ba    Ba6+2 0.852780 0.548340 0.465070 1.647039
Ba2   Ba    Ba6+2 0.337060 0.451750 0.534940 1.637754
C1    C     C_3   0.578612 0.899599 0.251136 -0.395985
C2    C     C_R   0.891447 0.395618 0.095546 0.034779
C3    C     C_R   0.727646 0.350275 0.072861 -0.098092
C4    C     C_3   0.128995 0.761817 0.264898 0.370320
C5    C     C_R   0.666089 0.355411 0.003439 -0.098262
C6    C     C_R   0.767812 0.405099 0.954952 0.037191
C7    C     C_R   0.931790 0.452413 0.977283 0.013789
C8    C     C_R   0.708260 0.406651 0.884372 -0.109738
C9    C     C_R   0.811408 0.452267 0.834099 -0.044036
C10   C     C_R   0.974863 0.503371 0.856984 -0.005522
C11   C     C_R   0.034039 0.503382 0.928940 -0.009299
C12   C     C_3   0.631319 0.820766 0.297097 0.329557
C13   C     C_R   0.757502 0.446263 0.761101 -0.005426
C14   C     C_R   0.866540 0.487074 0.711923 -0.298090
C15   C     C_R   0.024190 0.543838 0.733997 0.045515
C16   C     C_3   0.109453 0.786836 0.188655 -0.369381
C17   C     C_R   0.079465 0.553840 0.808111 -0.044364
C18   C     C_R   0.156360 0.496505 0.071164 -0.009938
C19   C     C_R   0.215893 0.495812 0.142977 -0.001563
C20   C     C_R   0.111063 0.445621 0.191891 -0.050655
C21   C     C_R   0.952996 0.390448 0.165382 -0.045591
C22   C     C_R   0.236813 0.610148 0.834842 -0.043289
C23   C     C_3   0.456318 0.271063 0.312977 0.396621
C24   C     C_R   0.298178 0.605630 0.904866 0.033933
C25   C     C_R   0.196859 0.551967 0.952131 0.006992
C26   C     C_R   0.258403 0.547833 0.022908 0.012960
C27   C     C_R   0.461226 0.652529 0.927998 -0.087176
C28   C     C_3   0.235565 0.787498 0.619533 0.279009
C29   C     C_R   0.523105 0.646594 0.997235 -0.091628
C30   C     C_R   0.422194 0.595395 0.045318 0.032552
C31   C     C_R   0.379760 0.546134 0.165718 -0.042325
C32   C     C_R   0.482349 0.592693 0.115624 -0.111620
C33   C     C_R   0.434632 0.550477 0.238419 -0.001633
C34   C     C_3   0.397466 0.224048 0.234833 0.310971
C35   C     C_R   0.326541 0.508198 0.287413 -0.300724
C36   C     C_R   0.166952 0.454514 0.265809 0.033084
C37   C     C_R   0.764778 0.182686 0.529228 -0.278572
C38   C     C_R   0.428519 0.807141 0.469435 -0.286399
C39   C     C_R   0.402007 0.984471 0.444475 -0.105927
C40   C     C_3   0.252656 0.910225 0.635750 -0.350913
C41   C     C_R   0.337593 0.875834 0.440257 -0.013670
C42   C     C_R   0.577910 0.848024 0.508966 0.069415
C43   C     C_R   0.642543 0.960234 0.516840 -0.059542
C44   C     C_R   0.553832 0.028451 0.482759 -0.061727
C45   C     C_3   0.061890 0.238811 0.735568 0.370554
C46   C     C_R   0.617447 0.139567 0.489266 0.042814
C47   C     C_R   0.856781 0.116311 0.559887 -0.013227
C48   C     C_R   0.793734 0.006424 0.556226 -0.094315
C49   C     C_3   0.960214 0.212117 0.380737 0.285233
C50   C     C_3   0.944534 0.089455 0.364090 -0.351622
C51   C     C_3   0.729460 0.707793 0.682970 0.316155
C52   C     C_3   0.751940 0.746535 0.764468 -0.408116
C53   C     C_3   0.456203 0.109393 0.132837 0.154715
C54   C     C_3   0.081572 0.215080 0.812142 -0.368538
C55   C     C_3   0.558634 0.178359 0.702334 0.348074
C56   C     C_3   0.613025 0.100661 0.748749 -0.419846
C57   C     C_R   0.993252 0.448459 0.048091 0.007777
H1    H     H_    0.721740 0.865762 0.340699 0.076382
H2    H     H_    0.846257 0.683482 0.662220 0.012427
H3    H     H_    0.628412 0.637340 0.672454 0.065970
H4    H     H_    0.522475 0.963603 0.285633 0.117110
H5    H     H_    0.859078 0.812938 0.776616 0.126738
H6    H     H_    0.774541 0.679117 0.792555 0.057946
H7    H     H_    0.638469 0.777057 0.785397 0.117257
H8    H     H_    0.519943 0.785997 0.323303 -0.049717
H9    H     H_    0.486233 0.855534 0.208085 0.106458
H10   H     H_    0.352957 0.305886 0.340855 -0.089590
H11   H     H_    0.563644 0.336274 0.313218 0.025051
H12   H     H_    0.342579 0.941931 0.682110 0.113324
H13   H     H_    0.280524 0.166394 0.236224 0.019515
H14   H     H_    0.371320 0.291049 0.206694 -0.078511
H15   H     H_    0.687165 0.937942 0.224821 0.138542
H16   H     H_    0.149349 0.721858 0.148600 0.070504
H17   H     H_    0.142023 0.316563 0.732081 0.093707
H18   H     H_    0.930765 0.247206 0.725382 -0.076571
H19   H     H_    0.213567 0.212021 0.825545 0.149276
H20   H     H_    0.039077 0.279588 0.851679 0.070294
H21   H     H_    0.006517 0.135961 0.816744 0.109910
H22   H     H_    0.669346 0.213198 0.675656 -0.053645
H23   H     H_    0.297252 0.945396 0.588041 0.082755
H24   H     H_    0.468399 0.132396 0.658996 0.078396
H25   H     H_    0.705957 0.145614 0.791292 0.113303
H26   H     H_    0.668894 0.036320 0.714425 0.095756
H27   H     H_    0.047024 0.684688 0.268147 0.094606
H28   H     H_    0.505285 0.062685 0.775731 0.128742
H29   H     H_    0.646405 0.311935 0.109227 0.102772
H30   H     H_    0.539030 0.319669 0.987479 0.068209
H31   H     H_    0.824900 0.478946 0.655744 0.069764
H32   H     H_    0.581726 0.370022 0.869035 0.107301
H33   H     H_    0.873673 0.345481 0.199090 0.120840
H34   H     H_    0.130831 0.934902 0.649661 0.142775
H35   H     H_    0.315875 0.655218 0.801097 0.096322
H36   H     H_    0.541697 0.693047 0.892278 0.061409
H37   H     H_    0.649725 0.683104 0.013447 0.069791
H38   H     H_    0.609106 0.628890 0.130825 0.108247
H39   H     H_    0.259498 0.751564 0.274509 -0.076854
H40   H     H_    0.369296 0.514394 0.343282 0.076056
H41   H     H_    0.328597 0.033648 0.419384 0.100688
H42   H     H_    0.866259 0.958687 0.582992 0.103815
H43   H     H_    0.813444 0.267851 0.532694 0.063551
H44   H     H_    0.377482 0.722254 0.465210 0.071410
H45   H     H_    0.840552 0.235462 0.397449 0.004390
H46   H     H_    0.977923 0.791958 0.175827 0.149533
H47   H     H_    0.186695 0.865307 0.184278 0.105398
H48   H     H_    0.356462 0.763773 0.604896 0.007470
H49   H     H_    0.143529 0.757755 0.573538 0.076315
H50   H     H_    0.399718 0.159272 0.098196 0.015172
H51   H     H_    0.363950 0.039433 0.142009 0.033978
H52   H     H_    0.558462 0.076415 0.102958 0.064964
H53   H     H_    0.055104 0.242202 0.425452 0.079308
H54   H     H_    0.850211 0.057309 0.319464 0.124558
H55   H     H_    0.906424 0.053929 0.412494 0.085559
H56   H     H_    0.065434 0.065644 0.347514 0.136851
O1    O     O_2   0.873090 0.425890 0.325140 -0.461799
O2    O     O_2   0.197535 0.121275 0.552499 -0.482807
O3    O     O_3   0.108766 0.153698 0.686050 -0.598106
O4    O     O_3   0.122420 0.434370 0.414380 -0.492222
O5    O     O_3   0.578370 0.633800 0.536380 -0.489011
O6    O     O_2   0.341510 0.231850 0.465510 -0.467672
O7    O     O_3   0.503332 0.187825 0.346155 -0.646509
O8    O     O_2   0.416024 0.453101 0.756795 -0.497140
O9    O     O_3   0.480845 0.255839 0.746326 -0.596051
O10   O     O_3   0.659500 0.627100 0.368810 -0.471427
O11   O     O_2   0.776713 0.547228 0.243782 -0.496327
O12   O     O_3   0.690100 0.793241 0.650500 -0.643365
O13   O     O_3   0.003353 0.253037 0.317687 -0.639929
O14   O     O_3   0.707984 0.743082 0.252782 -0.598045
O15   O     O_2   0.848200 0.768190 0.534530 -0.473278
O16   O     O_3   0.081160 0.685950 0.404810 -0.487470
O17   O     O_2   0.999613 0.879433 0.449655 -0.484712
O18   O     O_3   0.522088 0.171861 0.199402 -0.630220
O19   O     O_3   0.085074 0.847229 0.315112 -0.599595
O20   O     O_2   0.316610 0.574140 0.674900 -0.469195
O21   O     O_3   0.067290 0.565720 0.585630 -0.496625
O22   O     O_3   0.530210 0.372990 0.631200 -0.466073
O23   O     O_3   0.186013 0.747075 0.682094 -0.639836
O24   O     O_3   0.611340 0.366290 0.463630 -0.475885
O25   O     O_3   0.108550 0.314140 0.595200 -0.484617
P1    P     P_3+3 0.041040 0.394770 0.336330 0.978819
P2    P     P_3+3 0.672880 0.754030 0.556100 0.969357
P3    P     P_3+3 0.126467 0.823886 0.402908 0.949245
P4    P     P_3+3 0.148670 0.605320 0.663680 0.970745
P5    P     P_3+3 0.066862 0.175104 0.597844 0.951393
P6    P     P_3+3 0.644140 0.614590 0.274878 0.952395
P7    P     P_3+3 0.522414 0.230119 0.440130 0.939826
P8    P     P_3+3 0.546676 0.384516 0.725016 0.950559

loop_
_geom_bond_atom_site_label_1
_geom_bond_atom_site_label_2
_ccdc_geom_bond_type
C14   H31   S    
C49   H53   S    
C28   O23   S    
C28   H48   S    
C40   H34   S    
Ba2   P4    S    
O22   P8    S    
C41   P3    S    
C1    H9    S    
C40   H23   S    
C34   O18   S    
O11   P6    D    
C5    C6    A    
C52   H6    S    
C51   C52   S    
C10   C11   A    
O9    P8    S    
O24   P7    S    
C24   C25   A    
C16   H16   S    
C54   H20   S    
C15   P4    S    
C49   O13   S    
C4    H39   S    
C33   C35   A    
Ba1   O10   S    
C45   H17   S    
C22   H35   S    
O10   P6    S    
C13   P8    S    
O21   P4    S    
C50   H56   S    
C19   C31   A    
C34   H13   S    
C29   H37   S    
C20   C36   A    
C46   P7    S    
C32   H38   S    
C54   H19   S    
C10   C17   A    
O2    P5    D    
Ba1   Ba2   S    
Ba1   O4    S    
C1    H15   S    
C7    C11   A    
Ba1   P2    S    
C51   O12   S    
C31   C33   A    
O19   P3    S    
C3    H29   S    
C51   H2    S    
C38   C41   A    
Ba2   O4    S    
C6    C7    A    
C39   C44   A    
O6    P7    D    
Ba1   O1    S    
Ba1   O21   S    
O13   P1    S    
Ba1   O24   S    
C53   H52   S    
O17   P3    D    
C19   C20   A    
C56   H28   S    
C39   C41   A    
C9    C13   A    
C45   O3    S    
C4    C16   S    
C44   C46   A    
C49   C50   S    
C26   C30   A    
O5    P2    S    
Ba1   O15   S    
C8    C9    A    
C27   H36   S    
C2    C21   A    
Ba2   O5    S    
C14   C15   A    
C18   C26   A    
C49   H45   S    
C53   O18   S    
Ba2   O21   S    
C7    C57   A    
C33   P6    S    
C30   C32   A    
C16   H47   S    
C35   C36   A    
C56   H25   S    
C51   H3    S    
C29   C30   A    
C38   C42   A    
C12   H8    S    
C55   H24   S    
C31   C32   A    
C39   H41   S    
C47   P5    S    
O7    P7    S    
O8    P8    D    
C18   C57   A    
C45   C54   S    
O14   P6    S    
C1    C12   S    
C48   H42   S    
C42   P2    S    
O20   P4    D    
C37   C47   A    
C8    H32   S    
C50   H55   S    
C53   H51   S    
O4    P1    S    
C36   P1    S    
C55   H22   S    
C23   H10   S    
Ba2   O24   S    
C56   H26   S    
C35   H40   S    
O16   P3    S    
C42   C43   A    
C37   H43   S    
C3    C5    A    
C23   O7    S    
Ba2   O6    S    
C28   H49   S    
C21   H33   S    
Ba2   O22   S    
O3    P5    S    
C28   C40   S    
C22   C24   A    
C2    C3    A    
Ba1   O16   S    
C54   H21   S    
O25   P5    S    
C9    C10   A    
C52   H7    S    
C1    H4    S    
C12   H1    S    
Ba2   O20   S    
C4    H27   S    
Ba2   O25   S    
C17   C22   A    
C16   H46   S    
C27   C29   A    
O23   P4    S    
C38   H44   S    
C55   C56   S    
C52   H5    S    
C43   C48   A    
C50   H54   S    
C2    C57   A    
C40   H12   S    
C15   C17   A    
O12   P2    S    
O15   P2    D    
Ba1   P1    S    
C34   H14   S    
C23   C34   S    
O1    P1    D    
C43   C44   A    
C4    O19   S    
C18   C19   A    
C24   C27   A    
C6    C8    A    
C47   C48   A    
C25   C26   A    
C45   H18   S    
C20   C21   A    
C11   C25   A    
C23   H11   S    
Ba1   O5    S    
C53   H50   S    
C13   C14   A    
C37   C46   A    
C55   O9    S    
C12   O14   S    
C5    H30   S    
