data_mof_unit_36034.cif
_audit_creation_date              2012-12-10T20:27:57-0500
_audit_creation_method            fapswitch 2.2
_symmetry_space_group_name_H-M    P1
_symmetry_Int_Tables_number       1
_space_group_crystal_system       triclinic
_cell_length_a                    12.841745
_cell_length_b                    10.815444
_cell_length_c                    9.884704
_cell_angle_alpha                 88.683947
_cell_angle_beta                  97.86505
_cell_angle_gamma                 91.585364
_cell_volume                      1359.18821223

loop_
_atom_site_label
_atom_site_type_symbol
_atom_type_description
_atom_site_fract_x
_atom_site_fract_y
_atom_site_fract_z
_atom_type_partial_charge
C1    C     C_R   0.499650 0.259970 0.500920 0.930591
C2    C     C_R   0.478201 0.940125 0.370384 0.401199
C3    C     C_R   0.502788 0.871544 0.493485 -0.214479
C4    C     C_R   0.298762 0.513781 0.472173 0.945531
C5    C     C_R   0.536269 0.933000 0.614788 0.098747
C6    C     C_3   0.498018 0.919984 0.751258 -0.047469
C7    C     C_3   0.497915 0.059574 0.753024 -0.539699
C8    C     C_R   0.422346 0.438221 0.059298 0.035349
C9    C     C_R   0.568987 0.573263 0.082307 0.426375
C10   C     C_R   0.570235 0.571398 0.938677 0.337830
C11   C     C_R   0.420749 0.441452 0.916056 0.151595
C12   C     C_R   0.029291 0.546965 0.559796 -0.032761
C13   C     C_3   0.395333 0.307562 0.906111 -0.198349
C14   C     C_3   0.401594 0.301784 0.061048 0.164374
C15   C     C_R   0.498338 0.739685 0.497731 0.940799
C16   C     C_R   0.702026 0.495027 0.527488 0.941579
C17   C     C_R   0.815295 0.496366 0.544730 -0.174158
C18   C     C_R   0.186739 0.539762 0.453094 -0.259720
C19   C     C_R   0.017358 0.521657 0.313151 0.489352
C20   C     C_R   0.125866 0.537035 0.322389 -0.022145
C21   C     C_R   0.137535 0.566364 0.567797 0.338163
C22   C     C_R   0.970807 0.510563 0.434038 -0.125306
C23   C     C_R   0.866902 0.469483 0.433235 0.433114
C24   C     C_R   0.871520 0.538450 0.666469 -0.199260
C25   C     C_R   0.978586 0.559123 0.675740 -0.066008
C26   C     C_R   0.537341 0.059917 0.618028 0.097556
C27   C     C_R   0.503808 0.127926 0.499958 -0.162736
C28   C     C_R   0.479835 0.067569 0.375285 -0.199937
Cl1   Cl    Cl    0.808656 0.362153 0.309759 -0.501569
Cl2   Cl    Cl    0.657715 0.672556 0.182029 -0.417809
Cl3   Cl    Cl    0.665334 0.660911 0.866308 -0.530135
Cl4   Cl    Cl    0.283467 0.257209 0.128461 -0.593334
Cl5   Cl    Cl    0.942222 0.533682 0.149158 -0.437543
Cl6   Cl    Cl    0.209142 0.630338 0.718309 -0.604814
Cl7   Cl    Cl    0.432866 0.875086 0.209853 -0.560184
H1    H     H_    0.555925 0.878704 0.832059 0.244362
H2    H     H_    0.235191 0.339541 0.861406 0.271372
H3    H     H_    0.211599 0.481324 0.177062 0.275797
H4    H     H_    0.221412 0.636310 0.209474 0.237765
H5    H     H_    0.365747 0.876801 0.838366 0.254505
H6    H     H_    0.340403 0.906167 0.669014 0.215620
H7    H     H_    0.417636 0.097025 0.744541 0.211713
H8    H     H_    0.557661 0.098016 0.834248 0.218975
H9    H     H_    0.459279 0.259910 0.867668 0.162410
H10   H     H_    0.471590 0.251355 0.109333 0.127358
H11   H     H_    0.833018 0.555740 0.754577 0.248714
H12   H     H_    0.019842 0.586996 0.773460 0.230197
H13   H     H_    0.455957 0.118582 0.281907 0.219773
H14   H     H_    0.269665 0.191163 0.846049 0.235671
N1    N     N_R   0.499290 0.499140 0.142710 -0.182405
N2    N     N_R   0.499290 0.499180 0.857070 -0.170396
N3    N     N_3   0.291432 0.283352 0.828371 -0.382139
N4    N     N_3   0.170799 0.558663 0.198485 -0.351710
N5    N     N_3   0.392638 0.862793 0.744859 -0.361352
O1    O     O_R   0.500010 0.316790 0.614690 -0.627608
O2    O     O_R   0.500000 0.316760 0.385350 -0.610018
O3    O     O_R   0.346360 0.499990 0.595720 -0.550894
O4    O     O_R   0.346350 0.499960 0.366370 -0.626402
O5    O     O_R   0.500000 0.683240 0.614650 -0.570657
O6    O     O_R   0.499990 0.683210 0.385310 -0.552272
O7    O     O_R   0.653650 0.500040 0.633630 -0.593396
O8    O     O_R   0.653640 0.500010 0.404280 -0.540971
Zn1   Zn    Zn3+2 0.500010 0.500020 0.653130 1.051004
Zn2   Zn    Zn3+2 0.499990 0.499980 0.346870 1.070249

loop_
_geom_bond_atom_site_label_1
_geom_bond_atom_site_label_2
_ccdc_geom_bond_type
C4    O3    A    
C2    Cl7   S    
C8    C14   S    
O2    Zn2   S    
C6    C7    S    
C7    H8    S    
C18   C21   A    
N1    Zn2   S    
C15   O6    A    
C25   H12   S    
O5    Zn1   S    
C19   C20   A    
C8    N1    A    
C12   C25   A    
O6    Zn2   S    
H14   N3    S    
C4    C18   S    
C2    C3    A    
C1    O1    A    
C24   H11   S    
C17   C23   A    
C13   C14   S    
C11   C13   S    
C26   C27   A    
H4    N4    S    
H3    N4    S    
C7    C26   S    
C9    Cl2   S    
C6    N5    S    
C8    C11   A    
C10   N2    A    
C23   Cl1   S    
O1    Zn1   S    
C1    O2    A    
C6    H1    S    
O3    Zn1   S    
C14   H10   S    
C18   C20   A    
C14   Cl4   S    
O4    Zn2   S    
C5    C6    S    
H6    N5    S    
C17   C24   A    
C11   N2    A    
C16   O7    A    
C5    C26   A    
C13   N3    S    
C16   C17   S    
C12   C22   A    
C19   C22   A    
N2    Zn1   S    
C24   C25   A    
O7    Zn1   S    
C9    C10   A    
C7    H7    S    
C4    O4    A    
C27   C28   A    
C1    C27   S    
H2    N3    S    
C2    C28   A    
C22   C23   A    
C28   H13   S    
C3    C15   S    
O8    Zn2   S    
C21   Cl6   S    
C15   O5    A    
C12   C21   A    
C16   O8    A    
C13   H9    S    
C9    N1    A    
H5    N5    S    
C19   Cl5   S    
C20   N4    S    
C3    C5    A    
C10   Cl3   S    
