data_mof_unit_60689.cif
_audit_creation_date              2012-12-10T17:17:50-0500
_audit_creation_method            fapswitch 2.2
_symmetry_space_group_name_H-M    P1
_symmetry_Int_Tables_number       1
_space_group_crystal_system       triclinic
_cell_length_a                    21.814786
_cell_length_b                    30.37963
_cell_length_c                    31.060527
_cell_angle_alpha                 90.002766
_cell_angle_beta                  89.999721
_cell_angle_gamma                 89.998115
_cell_volume                      20584.5916719

loop_
_atom_site_label
_atom_site_type_symbol
_atom_type_description
_atom_site_fract_x
_atom_site_fract_y
_atom_site_fract_z
_atom_type_partial_charge
C1    C     C_R   0.250144 0.559721 0.059154 0.792511
C2    C     C_R   0.752105 0.439920 0.059082 0.786024
C3    C     C_R   0.249534 0.439900 0.940815 0.788697
C4    C     C_R   0.749915 0.559721 0.940851 0.793080
C5    C     C_R   0.749539 0.060100 0.059183 0.788541
C6    C     C_R   0.249916 0.940279 0.059150 0.793229
C7    C     C_R   0.750144 0.940280 0.940847 0.792363
C8    C     C_R   0.252109 0.060079 0.940916 0.786125
C9    C     C_R   0.749557 0.559719 0.559110 0.795319
C10   C     C_R   0.250524 0.439920 0.559173 0.781848
C11   C     C_R   0.749550 0.440281 0.440889 0.795275
C12   C     C_R   0.250521 0.560081 0.440829 0.781942
C13   C     C_R   0.249476 0.060080 0.559172 0.781832
C14   C     C_R   0.750454 0.940279 0.559112 0.795367
C15   C     C_R   0.249479 0.939920 0.440830 0.781905
C16   C     C_R   0.750449 0.059720 0.440888 0.795275
C17   C     C_R   0.250363 0.656903 0.157277 -0.065239
C18   C     C_R   0.750034 0.342382 0.157470 -0.040051
C19   C     C_R   0.250000 0.342303 0.842404 -0.029323
C20   C     C_R   0.749681 0.656948 0.842785 -0.065605
C21   C     C_R   0.750014 0.157705 0.157583 -0.031756
C22   C     C_R   0.249682 0.843060 0.157227 -0.065219
C23   C     C_R   0.750362 0.843089 0.842735 -0.065615
C24   C     C_R   0.250045 0.157616 0.842520 -0.037826
C25   C     C_R   0.749939 0.657258 0.656802 -0.065009
C26   C     C_R   0.250072 0.342268 0.657471 -0.029644
C27   C     C_R   0.749933 0.342746 0.343190 -0.064619
C28   C     C_R   0.250067 0.657742 0.342544 -0.032229
C29   C     C_R   0.249930 0.157737 0.657465 -0.030256
C30   C     C_R   0.750060 0.842734 0.656800 -0.064876
C31   C     C_R   0.249933 0.842258 0.342544 -0.032247
C32   C     C_R   0.750068 0.157250 0.343185 -0.064443
C33   C     C_R   0.200798 0.654423 0.129003 -0.161736
C34   C     C_R   0.779117 0.332500 0.118870 -0.181145
C35   C     C_R   0.234429 0.329647 0.884009 -0.169254
C36   C     C_R   0.799248 0.654479 0.871080 -0.162598
C37   C     C_R   0.734286 0.170336 0.115999 -0.170087
C38   C     C_R   0.299194 0.845471 0.128882 -0.161794
C39   C     C_R   0.700741 0.845631 0.870956 -0.162550
C40   C     C_R   0.278907 0.167566 0.881185 -0.180026
C41   C     C_R   0.701067 0.655615 0.627698 -0.162999
C42   C     C_R   0.268869 0.330198 0.616326 -0.172584
C43   C     C_R   0.701130 0.344323 0.372354 -0.162418
C44   C     C_R   0.268966 0.669789 0.383672 -0.173623
C45   C     C_R   0.231085 0.169796 0.616329 -0.172687
C46   C     C_R   0.798825 0.844271 0.627601 -0.163016
C47   C     C_R   0.231011 0.830215 0.383667 -0.173642
C48   C     C_R   0.798853 0.155690 0.372365 -0.161851
C49   C     C_R   0.200276 0.623267 0.096172 0.173928
C50   C     C_R   0.780114 0.362845 0.085224 0.202550
C51   C     C_R   0.234809 0.360309 0.917474 0.181443
C52   C     C_R   0.799793 0.623303 0.903908 0.174575
C53   C     C_R   0.734693 0.139678 0.082531 0.181730
C54   C     C_R   0.299739 0.876644 0.096052 0.174135
C55   C     C_R   0.700218 0.876790 0.903785 0.174361
C56   C     C_R   0.279948 0.137206 0.914819 0.202152
C57   C     C_R   0.700335 0.624311 0.594846 0.180216
C58   C     C_R   0.268449 0.360871 0.582856 0.176558
C59   C     C_R   0.700398 0.375627 0.405207 0.179813
C60   C     C_R   0.268522 0.639118 0.417145 0.177240
C61   C     C_R   0.231512 0.139123 0.582857 0.176591
C62   C     C_R   0.799561 0.875577 0.594752 0.180324
C63   C     C_R   0.231455 0.860887 0.417141 0.177226
C64   C     C_R   0.799585 0.124389 0.405218 0.179735
C65   C     C_R   0.249837 0.593763 0.092138 -0.009065
C66   C     C_R   0.752627 0.405028 0.091747 -0.031547
C67   C     C_R   0.249564 0.405024 0.907957 -0.046022
C68   C     C_R   0.750253 0.593769 0.907886 -0.009531
C69   C     C_R   0.749590 0.094981 0.092032 -0.046213
C70   C     C_R   0.250251 0.906231 0.092119 -0.009519
C71   C     C_R   0.749834 0.906236 0.907867 -0.009067
C72   C     C_R   0.252662 0.094965 0.908240 -0.031412
C73   C     C_R   0.748964 0.593817 0.591944 -0.011686
C74   C     C_R   0.250635 0.405067 0.591993 -0.043124
C75   C     C_R   0.748957 0.406183 0.408051 -0.011725
C76   C     C_R   0.250619 0.594939 0.408018 -0.043486
C77   C     C_R   0.249368 0.094935 0.591988 -0.043140
C78   C     C_R   0.751045 0.906178 0.591948 -0.011950
C79   C     C_R   0.249380 0.905061 0.408019 -0.043453
C80   C     C_R   0.751042 0.093817 0.408048 -0.011659
C81   C     C_R   0.468045 0.460066 0.000399 -0.171752
C82   C     C_R   0.531953 0.539946 0.000392 -0.176332
C83   C     C_R   0.468043 0.539947 0.999618 -0.175948
C84   C     C_R   0.531954 0.460066 0.999607 -0.171035
C85   C     C_R   0.968046 0.960053 0.000380 -0.175891
C86   C     C_R   0.031950 0.039934 0.000401 -0.171111
C87   C     C_R   0.968041 0.039933 0.999609 -0.171648
C88   C     C_R   0.031957 0.960054 0.999607 -0.176397
C89   C     C_R   0.968023 0.460059 0.499933 -0.174276
C90   C     C_R   0.031928 0.539934 0.500853 -0.172819
C91   C     C_R   0.968019 0.539942 0.500070 -0.174571
C92   C     C_R   0.031932 0.460067 0.499151 -0.172551
C93   C     C_R   0.468070 0.960067 0.500843 -0.172805
C94   C     C_R   0.531976 0.039942 0.499943 -0.174293
C95   C     C_R   0.468066 0.039933 0.499160 -0.172536
C96   C     C_R   0.531980 0.960059 0.500060 -0.174574
C97   C     C_R   0.564102 0.500005 0.999997 -0.012811
C98   C     C_R   0.435896 0.500007 0.000010 -0.011786
C99   C     C_R   0.064102 0.999995 0.000007 -0.012921
C100  C     C_R   0.935896 0.999993 0.999992 -0.011689
C101  C     C_R   0.064086 0.500000 0.500002 -0.013057
C102  C     C_R   0.935880 0.500000 0.500001 -0.011140
C103  C     C_R   0.564119 0.000000 0.500002 -0.011195
C104  C     C_R   0.435913 0.000000 0.500001 -0.013035
C105  C     C_R   0.249985 0.309679 0.691088 0.779109
C106  C     C_R   0.750041 0.690445 0.690583 0.794473
C107  C     C_R   0.249985 0.690330 0.308923 0.784369
C108  C     C_R   0.750039 0.309558 0.309412 0.789739
C109  C     C_R   0.749959 0.809553 0.690583 0.794361
C110  C     C_R   0.250015 0.190325 0.691083 0.779720
C111  C     C_R   0.749961 0.190439 0.309409 0.788827
C112  C     C_R   0.250015 0.809670 0.308922 0.784457
C113  C     C_R   0.749944 0.309870 0.191235 0.786101
C114  C     C_R   0.250130 0.690236 0.190833 0.790766
C115  C     C_R   0.749880 0.690263 0.809201 0.795962
C116  C     C_R   0.250023 0.309749 0.808812 0.780640
C117  C     C_R   0.249879 0.809743 0.190806 0.790749
C118  C     C_R   0.750026 0.190258 0.191180 0.785513
C119  C     C_R   0.249947 0.190127 0.808760 0.780846
C120  C     C_R   0.750129 0.809758 0.809175 0.795956
C121  C     C_R   0.131351 0.500692 0.000003 0.794956
C122  C     C_R   0.868785 0.500374 0.000192 0.792067
C123  C     C_R   0.631349 0.999312 0.999999 0.794746
C124  C     C_R   0.368783 0.999621 0.999810 0.792261
C125  C     C_R   0.630830 0.499999 0.499999 0.790371
C126  C     C_R   0.368166 0.499998 0.500000 0.794196
C127  C     C_R   0.131835 0.000001 0.500000 0.794140
C128  C     C_R   0.869171 0.000000 0.499999 0.790470
C129  C     C_R   0.368970 0.500005 0.000006 0.778006
C130  C     C_R   0.631029 0.500002 0.999999 0.779086
C131  C     C_R   0.868969 0.999995 0.999995 0.777717
C132  C     C_R   0.131029 0.999998 0.000002 0.779412
C133  C     C_R   0.868964 0.500000 0.500000 0.773610
C134  C     C_R   0.131024 0.500000 0.500000 0.782916
C135  C     C_R   0.368975 1.000000 0.500000 0.782864
C136  C     C_R   0.631035 0.000000 0.500000 0.773718
C137  C     C_R   0.063353 0.420372 0.989449 -0.137221
C138  C     C_R   0.937815 0.583248 0.007628 -0.163831
C139  C     C_R   0.062201 0.583432 0.992979 -0.165229
C140  C     C_R   0.938377 0.419571 0.005438 -0.137400
C141  C     C_R   0.562206 0.916569 0.007038 -0.164981
C142  C     C_R   0.438347 0.080412 0.994440 -0.137387
C143  C     C_R   0.563315 0.079640 0.010463 -0.137108
C144  C     C_R   0.437820 0.916747 0.992386 -0.164098
C145  C     C_R   0.558817 0.419393 0.518687 -0.145376
C146  C     C_R   0.433452 0.574265 0.468763 -0.142727
C147  C     C_R   0.558806 0.580599 0.481310 -0.145461
C148  C     C_R   0.433454 0.425713 0.531205 -0.142807
C149  C     C_R   0.066547 0.925742 0.468737 -0.142683
C150  C     C_R   0.941184 0.080605 0.518697 -0.145373
C151  C     C_R   0.066542 0.074275 0.531235 -0.142834
C152  C     C_R   0.941195 0.919401 0.481295 -0.145539
C153  C     C_R   0.032154 0.380477 0.991381 -0.140890
C154  C     C_R   0.969028 0.622919 0.004738 -0.145879
C155  C     C_R   0.030870 0.623017 0.996244 -0.145271
C156  C     C_R   0.969920 0.380030 0.000428 -0.141285
C157  C     C_R   0.530880 0.876982 0.003780 -0.145101
C158  C     C_R   0.469879 0.119962 0.999400 -0.141185
C159  C     C_R   0.532108 0.119532 0.008469 -0.140925
C160  C     C_R   0.469039 0.877077 0.995285 -0.146056
C161  C     C_R   0.525913 0.383177 0.533615 -0.143984
C162  C     C_R   0.463518 0.613294 0.458982 -0.138970
C163  C     C_R   0.525900 0.616809 0.466368 -0.144660
C164  C     C_R   0.463525 0.386684 0.540983 -0.138518
C165  C     C_R   0.036482 0.886714 0.458949 -0.138954
C166  C     C_R   0.974087 0.116816 0.533640 -0.144035
C167  C     C_R   0.036471 0.113303 0.541020 -0.138632
C168  C     C_R   0.974101 0.883194 0.466340 -0.144640
C169  C     C_R   0.968406 0.460611 0.000937 0.072661
C170  C     C_R   0.032257 0.542050 0.997742 0.079054
C171  C     C_R   0.967907 0.541924 0.002557 0.080997
C172  C     C_R   0.032583 0.460857 0.996420 0.074599
C173  C     C_R   0.467907 0.958072 0.997448 0.080999
C174  C     C_R   0.532563 0.039145 0.003529 0.074640
C175  C     C_R   0.468387 0.039383 0.999003 0.072562
C176  C     C_R   0.532257 0.957950 0.002264 0.079058
C177  C     C_R   0.465703 0.462328 0.514244 0.071532
C178  C     C_R   0.530127 0.539274 0.489000 0.078463
C179  C     C_R   0.465701 0.537659 0.485743 0.071537
C180  C     C_R   0.530131 0.460717 0.510995 0.078437
C181  C     C_R   0.969873 0.960726 0.488990 0.078447
C182  C     C_R   0.034296 0.037666 0.514256 0.071554
C183  C     C_R   0.969869 0.039280 0.511002 0.078424
C184  C     C_R   0.034299 0.962343 0.485732 0.071554
C185  C     C_R   0.935909 0.500984 0.001904 -0.194376
C186  C     C_R   0.064486 0.501259 0.997718 -0.193372
C187  C     C_R   0.435902 0.999009 0.998083 -0.194437
C188  C     C_R   0.564479 0.998743 0.002274 -0.193311
C189  C     C_R   0.434351 0.499995 0.499997 -0.176493
C190  C     C_R   0.563066 0.499997 0.499999 -0.207727
C191  C     C_R   0.936934 0.000002 0.499998 -0.207741
C192  C     C_R   0.065648 0.000003 0.499997 -0.176471
C193  C     C_R   0.299098 0.595915 0.120918 -0.225449
C194  C     C_R   0.723542 0.414241 0.131153 -0.214499
C195  C     C_R   0.265002 0.416900 0.865537 -0.207657
C196  C     C_R   0.701002 0.595920 0.879099 -0.224842
C197  C     C_R   0.765204 0.083132 0.134425 -0.207775
C198  C     C_R   0.201057 0.904140 0.120961 -0.225407
C199  C     C_R   0.799155 0.904022 0.879143 -0.224899
C200  C     C_R   0.223802 0.085686 0.868764 -0.214521
C201  C     C_R   0.797372 0.595217 0.621475 -0.224484
C202  C     C_R   0.232156 0.416424 0.633930 -0.207623
C203  C     C_R   0.797291 0.404850 0.378454 -0.224965
C204  C     C_R   0.232022 0.583607 0.366104 -0.207729
C205  C     C_R   0.267901 0.083590 0.633914 -0.207760
C206  C     C_R   0.702746 0.904881 0.621576 -0.224384
C207  C     C_R   0.268001 0.916389 0.366109 -0.207715
C208  C     C_R   0.702730 0.095130 0.378433 -0.225042
C209  C     C_R   0.299776 0.627744 0.153091 -0.176793
C210  C     C_R   0.721470 0.382872 0.163582 -0.187052
C211  C     C_R   0.265807 0.385613 0.833054 -0.191987
C212  C     C_R   0.700299 0.627767 0.846951 -0.173786
C213  C     C_R   0.766023 0.114424 0.166902 -0.190010
C214  C     C_R   0.200355 0.872298 0.153113 -0.176766
C215  C     C_R   0.799834 0.872188 0.846975 -0.173833
C216  C     C_R   0.221737 0.117050 0.836330 -0.190396
C217  C     C_R   0.798312 0.627178 0.653457 -0.174947
C218  C     C_R   0.231174 0.385059 0.666343 -0.191302
C219  C     C_R   0.798232 0.372892 0.346469 -0.176936
C220  C     C_R   0.231028 0.614978 0.333698 -0.189096
C221  C     C_R   0.268889 0.114958 0.666324 -0.191227
C222  C     C_R   0.701798 0.872918 0.653555 -0.175003
C223  C     C_R   0.268995 0.885016 0.333703 -0.189092
C224  C     C_R   0.701789 0.127086 0.346446 -0.178249
Cu1   Cu    Cu3+1 0.250020 0.530890 0.969080 0.936570
Cu2   Cu    Cu3+1 0.749980 0.469110 0.969080 0.951001
Cu3   Cu    Cu3+1 0.250020 0.469110 0.030920 0.947791
Cu4   Cu    Cu3+1 0.749980 0.530890 0.030920 0.938561
Cu5   Cu    Cu3+1 0.750020 0.030890 0.969080 0.949022
Cu6   Cu    Cu3+1 0.249980 0.969110 0.969080 0.937625
Cu7   Cu    Cu3+1 0.750020 0.969110 0.030920 0.937401
Cu8   Cu    Cu3+1 0.249980 0.030890 0.030920 0.949809
Cu9   Cu    Cu3+1 0.750020 0.530890 0.469080 0.944547
Cu10  Cu    Cu3+1 0.249980 0.469110 0.469080 0.945438
Cu11  Cu    Cu3+1 0.750020 0.469110 0.530920 0.946157
Cu12  Cu    Cu3+1 0.249980 0.530890 0.530920 0.944095
Cu13  Cu    Cu3+1 0.250020 0.030890 0.469080 0.945524
Cu14  Cu    Cu3+1 0.749980 0.969110 0.469080 0.944313
Cu15  Cu    Cu3+1 0.250020 0.969110 0.530920 0.944226
Cu16  Cu    Cu3+1 0.749980 0.030890 0.530920 0.946064
Cu17  Cu    Cu3+1 0.311820 0.250000 0.750000 0.958089
Cu18  Cu    Cu3+1 0.688180 0.750000 0.750000 0.945202
Cu19  Cu    Cu3+1 0.311820 0.750000 0.250000 0.950370
Cu20  Cu    Cu3+1 0.688180 0.250000 0.250000 0.952210
Cu21  Cu    Cu3+1 0.811820 0.750000 0.750000 0.945125
Cu22  Cu    Cu3+1 0.188180 0.250000 0.750000 0.958022
Cu23  Cu    Cu3+1 0.811820 0.250000 0.250000 0.952319
Cu24  Cu    Cu3+1 0.188180 0.750000 0.250000 0.950458
H1    H     H_    0.055079 0.653950 0.992906 0.135410
H2    H     H_    0.945930 0.348985 0.003101 0.134368
H3    H     H_    0.056491 0.349854 0.986314 0.134775
H4    H     H_    0.944687 0.653780 0.008250 0.135337
H5    H     H_    0.556436 0.150163 0.013503 0.134765
H6    H     H_    0.444702 0.846214 0.991777 0.135297
H7    H     H_    0.555094 0.846051 0.007124 0.135444
H8    H     H_    0.445884 0.151001 0.996672 0.134260
H9    H     H_    0.549127 0.647685 0.460275 0.134516
H10   H     H_    0.438146 0.358844 0.553457 0.140123
H11   H     H_    0.549144 0.352303 0.539708 0.134903
H12   H     H_    0.438139 0.641128 0.446493 0.139951
H13   H     H_    0.061849 0.141140 0.553508 0.140097
H14   H     H_    0.950876 0.852319 0.460242 0.134527
H15   H     H_    0.061861 0.858883 0.446449 0.139966
H16   H     H_    0.950856 0.147691 0.539737 0.134876
H17   H     H_    0.111425 0.419159 0.981478 0.136118
H18   H     H_    0.889905 0.587093 0.013494 0.174033
H19   H     H_    0.110065 0.587267 0.986835 0.173496
H20   H     H_    0.890641 0.417683 0.013693 0.142836
H21   H     H_    0.610070 0.912734 0.013183 0.173511
H22   H     H_    0.390611 0.082283 0.986170 0.142654
H23   H     H_    0.611378 0.080862 0.018451 0.136059
H24   H     H_    0.389910 0.912903 0.986517 0.174018
H25   H     H_    0.606376 0.413279 0.512719 0.165028
H26   H     H_    0.384705 0.573011 0.462856 0.123913
H27   H     H_    0.606361 0.586716 0.487290 0.164997
H28   H     H_    0.384702 0.426956 0.537095 0.123906
H29   H     H_    0.115293 0.927000 0.462827 0.123886
H30   H     H_    0.893627 0.086722 0.512719 0.165012
H31   H     H_    0.115292 0.073026 0.537134 0.123856
H32   H     H_    0.893641 0.913281 0.487279 0.165006
H33   H     H_    0.337195 0.573189 0.118188 0.142266
H34   H     H_    0.701479 0.445684 0.136734 0.161891
H35   H     H_    0.277106 0.450458 0.857393 0.165361
H36   H     H_    0.662923 0.573178 0.881807 0.142446
H37   H     H_    0.777446 0.049592 0.142549 0.166061
H38   H     H_    0.163021 0.926925 0.118291 0.142464
H39   H     H_    0.837297 0.926701 0.881915 0.142241
H40   H     H_    0.201911 0.054195 0.863127 0.161524
H41   H     H_    0.834720 0.571782 0.619445 0.143947
H42   H     H_    0.217670 0.449597 0.641678 0.164298
H43   H     H_    0.834582 0.428335 0.380435 0.144046
H44   H     H_    0.217443 0.550452 0.358372 0.165146
H45   H     H_    0.282429 0.050425 0.641653 0.164583
H46   H     H_    0.665486 0.928396 0.619625 0.144102
H47   H     H_    0.282597 0.949540 0.358382 0.165152
H48   H     H_    0.665452 0.071633 0.380400 0.143969
H49   H     H_    0.338349 0.629191 0.175006 0.156452
H50   H     H_    0.698636 0.390427 0.193671 0.142204
H51   H     H_    0.278071 0.395220 0.800574 0.131684
H52   H     H_    0.661729 0.629203 0.825032 0.156695
H53   H     H_    0.778444 0.104838 0.199359 0.136044
H54   H     H_    0.161833 0.870908 0.175077 0.156461
H55   H     H_    0.838457 0.870693 0.825107 0.156682
H56   H     H_    0.199099 0.109437 0.806180 0.139607
H57   H     H_    0.836234 0.627962 0.675960 0.156225
H58   H     H_    0.216454 0.394240 0.698437 0.132696
H59   H     H_    0.836094 0.372159 0.323914 0.156305
H60   H     H_    0.216195 0.605819 0.301626 0.137095
H61   H     H_    0.283657 0.105788 0.698409 0.134621
H62   H     H_    0.663964 0.872215 0.676136 0.156141
H63   H     H_    0.283846 0.894171 0.301634 0.137117
H64   H     H_    0.663944 0.127802 0.323876 0.155973
H65   H     H_    0.162863 0.677256 0.132172 0.150807
H66   H     H_    0.800462 0.300482 0.114768 0.138225
H67   H     H_    0.222923 0.295501 0.890290 0.122911
H68   H     H_    0.837161 0.677329 0.867928 0.150364
H69   H     H_    0.722654 0.204464 0.109733 0.122989
H70   H     H_    0.337067 0.822580 0.132000 0.150671
H71   H     H_    0.662764 0.822843 0.867752 0.150500
H72   H     H_    0.300070 0.199638 0.885337 0.138022
H73   H     H_    0.663920 0.679173 0.630271 0.149643
H74   H     H_    0.282692 0.296442 0.610336 0.123243
H75   H     H_    0.664039 0.320716 0.369824 0.149981
H76   H     H_    0.282871 0.703528 0.389650 0.123275
H77   H     H_    0.217225 0.203545 0.610347 0.123285
H78   H     H_    0.835886 0.820633 0.630105 0.149513
H79   H     H_    0.217090 0.796479 0.389640 0.123288
H80   H     H_    0.835932 0.179309 0.369847 0.149967
H81   H     H_    0.443679 0.428992 0.000544 0.138483
H82   H     H_    0.556320 0.571020 0.000530 0.138004
H83   H     H_    0.443675 0.571021 0.999482 0.137968
H84   H     H_    0.556320 0.428991 0.999461 0.139988
H85   H     H_    0.943681 0.928979 0.000513 0.137958
H86   H     H_    0.056313 0.071009 0.000550 0.139983
H87   H     H_    0.943672 0.071008 0.999468 0.138506
H88   H     H_    0.056327 0.928980 0.999465 0.138012
H89   H     H_    0.943649 0.428988 0.499717 0.138421
H90   H     H_    0.056286 0.571007 0.501352 0.138555
H91   H     H_    0.943642 0.571013 0.500286 0.138213
H92   H     H_    0.056293 0.428993 0.498652 0.138733
H93   H     H_    0.443713 0.928993 0.501334 0.138556
H94   H     H_    0.556349 0.071013 0.499735 0.138435
H95   H     H_    0.443706 0.071007 0.498669 0.138737
H96   H     H_    0.556356 0.928988 0.500268 0.138231
O1    O     O_R   0.250030 0.571170 0.018980 -0.591350
O2    O     O_R   0.749970 0.428830 0.018980 -0.593070
O3    O     O_R   0.250030 0.428830 0.981020 -0.589968
O4    O     O_R   0.749970 0.571170 0.981020 -0.591441
O5    O     O_R   0.750030 0.071170 0.018980 -0.590023
O6    O     O_R   0.249970 0.928830 0.018980 -0.591280
O7    O     O_R   0.750030 0.928830 0.981020 -0.591506
O8    O     O_R   0.249970 0.071170 0.981020 -0.592899
O9    O     O_R   0.750030 0.571170 0.518980 -0.590408
O10   O     O_R   0.249970 0.428830 0.518980 -0.588192
O11   O     O_R   0.750030 0.428830 0.481020 -0.590092
O12   O     O_R   0.249970 0.571170 0.481020 -0.588334
O13   O     O_R   0.250030 0.071170 0.518980 -0.588184
O14   O     O_R   0.749970 0.928830 0.518980 -0.590420
O15   O     O_R   0.250030 0.928830 0.481020 -0.588328
O16   O     O_R   0.749970 0.071170 0.481020 -0.590063
O17   O     O_R   0.250030 0.519000 0.071200 -0.579275
O18   O     O_R   0.749970 0.481000 0.071200 -0.584546
O19   O     O_R   0.250030 0.481000 0.928800 -0.587275
O20   O     O_R   0.749970 0.519000 0.928800 -0.578463
O21   O     O_R   0.750030 0.019000 0.071200 -0.586973
O22   O     O_R   0.249970 0.981000 0.071200 -0.579111
O23   O     O_R   0.750030 0.981000 0.928800 -0.578633
O24   O     O_R   0.249970 0.019000 0.928800 -0.584985
O25   O     O_R   0.750030 0.519000 0.571200 -0.579005
O26   O     O_R   0.249970 0.481000 0.571200 -0.588127
O27   O     O_R   0.750030 0.481000 0.428800 -0.579745
O28   O     O_R   0.249970 0.519000 0.428800 -0.587654
O29   O     O_R   0.250030 0.019000 0.571200 -0.588074
O30   O     O_R   0.749970 0.981000 0.571200 -0.579077
O31   O     O_R   0.250030 0.981000 0.428800 -0.587631
O32   O     O_R   0.749970 0.019000 0.428800 -0.579888
O33   O     O_R   0.159850 0.526090 0.973890 -0.599691
O34   O     O_R   0.840150 0.473910 0.973890 -0.584352
O35   O     O_R   0.159850 0.473910 0.026110 -0.580529
O36   O     O_R   0.840150 0.526090 0.026110 -0.599241
O37   O     O_R   0.659850 0.026090 0.973890 -0.580365
O38   O     O_R   0.340150 0.973910 0.973890 -0.599345
O39   O     O_R   0.659850 0.973910 0.026110 -0.599609
O40   O     O_R   0.340150 0.026090 0.026110 -0.584474
O41   O     O_R   0.659850 0.526090 0.473890 -0.591628
O42   O     O_R   0.340150 0.473910 0.473890 -0.582201
O43   O     O_R   0.659850 0.473910 0.526110 -0.591342
O44   O     O_R   0.340150 0.526090 0.526110 -0.582457
O45   O     O_R   0.159850 0.026090 0.473890 -0.582135
O46   O     O_R   0.840150 0.973910 0.473890 -0.591633
O47   O     O_R   0.159850 0.973910 0.526110 -0.582476
O48   O     O_R   0.840150 0.026090 0.526110 -0.591375
O49   O     O_R   0.340200 0.526080 0.973890 -0.583860
O50   O     O_R   0.659800 0.473920 0.973890 -0.583153
O51   O     O_R   0.340200 0.473920 0.026110 -0.585404
O52   O     O_R   0.659800 0.526080 0.026110 -0.584215
O53   O     O_R   0.840200 0.026080 0.973890 -0.585274
O54   O     O_R   0.159800 0.973920 0.973890 -0.584246
O55   O     O_R   0.840200 0.973920 0.026110 -0.583830
O56   O     O_R   0.159800 0.026080 0.026110 -0.583274
O57   O     O_R   0.840200 0.526080 0.473890 -0.584712
O58   O     O_R   0.159800 0.473920 0.473890 -0.584304
O59   O     O_R   0.840200 0.473920 0.526110 -0.584416
O60   O     O_R   0.159800 0.526080 0.526110 -0.584575
O61   O     O_R   0.340200 0.026080 0.473890 -0.584322
O62   O     O_R   0.659800 0.973920 0.473890 -0.584764
O63   O     O_R   0.340200 0.973920 0.526110 -0.584522
O64   O     O_R   0.659800 0.026080 0.526110 -0.584399
O65   O     O_R   0.302180 0.295120 0.704840 -0.583411
O66   O     O_R   0.697820 0.704880 0.704840 -0.589609
O67   O     O_R   0.302180 0.704880 0.295160 -0.583707
O68   O     O_R   0.697820 0.295120 0.295160 -0.590121
O69   O     O_R   0.802180 0.795120 0.704840 -0.589603
O70   O     O_R   0.197820 0.204880 0.704840 -0.584162
O71   O     O_R   0.802180 0.204880 0.295160 -0.589441
O72   O     O_R   0.197820 0.795120 0.295160 -0.583668
O73   O     O_R   0.802180 0.295120 0.204840 -0.584464
O74   O     O_R   0.197820 0.704880 0.204840 -0.590378
O75   O     O_R   0.802180 0.704880 0.795160 -0.590274
O76   O     O_R   0.197820 0.295120 0.795160 -0.582212
O77   O     O_R   0.302180 0.795120 0.204840 -0.590313
O78   O     O_R   0.697820 0.204880 0.204840 -0.582274
O79   O     O_R   0.302180 0.204880 0.795160 -0.584466
O80   O     O_R   0.697820 0.795120 0.795160 -0.590359
O81   O     O_R   0.197800 0.295110 0.704850 -0.582536
O82   O     O_R   0.802200 0.704890 0.704850 -0.588048
O83   O     O_R   0.197800 0.704890 0.295150 -0.581956
O84   O     O_R   0.802200 0.295110 0.295150 -0.588199
O85   O     O_R   0.697800 0.795110 0.704850 -0.587989
O86   O     O_R   0.302200 0.204890 0.704850 -0.582156
O87   O     O_R   0.697800 0.204890 0.295150 -0.588502
O88   O     O_R   0.302200 0.795110 0.295150 -0.581973
O89   O     O_R   0.697800 0.295110 0.204850 -0.582621
O90   O     O_R   0.302200 0.704890 0.204850 -0.588957
O91   O     O_R   0.697800 0.704890 0.795150 -0.588320
O92   O     O_R   0.302200 0.295110 0.795150 -0.582497
O93   O     O_R   0.197800 0.795110 0.204850 -0.588863
O94   O     O_R   0.802200 0.204890 0.204850 -0.581824
O95   O     O_R   0.197800 0.204890 0.795150 -0.583129
O96   O     O_R   0.802200 0.795110 0.795150 -0.588414
C225  C     C_3   0.146388 0.621518 0.066538 -0.885064
H97   H     H_    0.126898 0.587779 0.066981 0.232745
H98   H     H_    0.109639 0.644826 0.076216 0.233118
H99   H     H_    0.161837 0.630663 0.033741 0.234805
C226  C     C_3   0.811904 0.347188 0.044813 -0.899427
H100  H     H_    0.813746 0.370677 0.018100 0.253446
H101  H     H_    0.859898 0.338164 0.052770 0.221773
H102  H     H_    0.788254 0.317322 0.032577 0.233527
C227  C     C_3   0.219650 0.343811 0.962078 -0.844318
H103  H     H_    0.179981 0.361985 0.975369 0.229016
H104  H     H_    0.207179 0.308354 0.962062 0.213735
H105  H     H_    0.260067 0.347510 0.983476 0.248002
C228  C     C_3   0.853663 0.621564 0.933600 -0.884386
H106  H     H_    0.873239 0.587847 0.933165 0.232944
H107  H     H_    0.890377 0.644919 0.923975 0.232841
H108  H     H_    0.838182 0.630644 0.966409 0.234717
C229  C     C_3   0.719432 0.156162 0.037939 -0.843994
H109  H     H_    0.679801 0.137935 0.024669 0.228916
H110  H     H_    0.706859 0.191603 0.037967 0.213743
H111  H     H_    0.759836 0.152520 0.016516 0.248037
C230  C     C_3   0.353572 0.878339 0.066324 -0.884513
H112  H     H_    0.373221 0.912031 0.066779 0.232901
H113  H     H_    0.390246 0.854932 0.075910 0.232938
H114  H     H_    0.338038 0.869305 0.033515 0.234831
C231  C     C_3   0.646291 0.878587 0.933382 -0.884935
H115  H     H_    0.626879 0.912351 0.932961 0.232786
H116  H     H_    0.609500 0.855334 0.923661 0.233022
H117  H     H_    0.661683 0.869391 0.966178 0.234690
C232  C     C_3   0.311554 0.152915 0.955283 -0.899154
H118  H     H_    0.313732 0.129329 0.981902 0.253318
H119  H     H_    0.359441 0.162260 0.947361 0.221690
H120  H     H_    0.287548 0.182591 0.967621 0.233544
C233  C     C_3   0.647284 0.623422 0.564029 -0.888114
H121  H     H_    0.663951 0.631780 0.531306 0.237317
H122  H     H_    0.626078 0.590199 0.564144 0.225267
H123  H     H_    0.611317 0.647675 0.572866 0.232327
C234  C     C_3   0.286534 0.344939 0.538578 -0.848011
H124  H     H_    0.324946 0.364763 0.525710 0.233363
H125  H     H_    0.301957 0.310087 0.538980 0.214654
H126  H     H_    0.246587 0.346850 0.516529 0.249317
C235  C     C_3   0.647400 0.376462 0.436071 -0.887894
H127  H     H_    0.626090 0.409653 0.435935 0.225057
H128  H     H_    0.611491 0.352142 0.427290 0.232473
H129  H     H_    0.664144 0.368166 0.468791 0.237594
C236  C     C_3   0.286654 0.655037 0.461417 -0.848639
H130  H     H_    0.325038 0.635182 0.474280 0.233385
H131  H     H_    0.302129 0.689878 0.461008 0.214548
H132  H     H_    0.246713 0.653160 0.483475 0.249178
C237  C     C_3   0.213398 0.155047 0.538584 -0.848007
H133  H     H_    0.175002 0.135206 0.525719 0.233372
H134  H     H_    0.197944 0.189892 0.538993 0.214641
H135  H     H_    0.253340 0.153155 0.516528 0.249332
C238  C     C_3   0.852527 0.876376 0.563857 -0.888098
H136  H     H_    0.835726 0.868137 0.531134 0.237471
H137  H     H_    0.873913 0.909542 0.564021 0.225219
H138  H     H_    0.888391 0.851997 0.572588 0.232243
C239  C     C_3   0.213303 0.844971 0.461409 -0.848647
H139  H     H_    0.174937 0.864843 0.474276 0.233398
H140  H     H_    0.197792 0.810140 0.460993 0.214543
H141  H     H_    0.253242 0.846827 0.483469 0.249177
C240  C     C_3   0.852571 0.123568 0.436094 -0.887831
H142  H     H_    0.873903 0.090385 0.435953 0.225086
H143  H     H_    0.888467 0.147902 0.427326 0.232503
H144  H     H_    0.835809 0.131852 0.468813 0.237590

loop_
_geom_bond_atom_site_label_1
_geom_bond_atom_site_label_2
_ccdc_geom_bond_type
C54   C70   A    
Cu8   O56   S    
C148  C177  A    
C104  C135  S    
C26   C218  A    
C229  H109  S    
C123  O39   A    
C129  O51   A    
C53   C69   A    
C42   C58   A    
C197  C213  A    
C30   C222  A    
C23   C215  A    
C232  H118  S    
C233  H123  S    
Cu8   O22   S    
C153  H3    S    
Cu3   O51   S    
C57   C233  S    
C46   C62   A    
Cu8   O40   S    
C11   O11   A    
C18   C210  A    
C164  H10   S    
C37   H69   S    
C157  H7    S    
Cu24  O72   S    
Cu9   Cu11  S    
C122  O36   A    
C22   C38   A    
C231  H117  S    
C83   H83   S    
C182  C183  A    
C235  H128  S    
C9    O9    A    
C127  O45   A    
C56   C72   A    
C96   H96   S    
C193  H33   S    
C31   C112  S    
C165  H15   S    
C166  H16   S    
C144  C160  A    
C161  H11   S    
C162  H12   S    
C28   C220  A    
Cu10  Cu12  S    
C142  C158  A    
C26   C105  S    
C66   C194  A    
C15   O31   A    
C176  C188  A    
C59   C235  S    
Cu14  Cu16  S    
Cu18  Cu21  S    
C121  O35   A    
C171  C185  A    
C30   C109  S    
C49   C225  S    
C25   C41   A    
C9    O25   A    
C126  O44   A    
Cu11  O25   S    
C225  H99   S    
Cu1   O33   S    
C52   C228  S    
Cu20  O87   S    
C196  H36   S    
C73   C201  A    
C28   C44   A    
C29   C45   A    
C16   C80   S    
C228  H108  S    
C142  H22   S    
C231  H116  S    
C77   C205  A    
Cu7   O39   S    
C8    O8    A    
C137  C153  A    
C153  C156  A    
Cu6   Cu8   S    
C86   C99   A    
C4    O20   A    
Cu15  O47   S    
C154  C155  A    
C140  C156  A    
C111  O87   A    
C141  C157  A    
Cu16  O48   S    
C157  C160  A    
C238  H137  S    
C35   C51   A    
C158  C159  A    
C229  H111  S    
C117  O93   A    
C46   H78   S    
Cu12  O44   S    
C93   H93   S    
C198  C214  A    
C151  C182  A    
Cu10  O42   S    
C232  H120  S    
C10   O10   A    
C139  H19   S    
C89   H89   S    
C112  O88   A    
C138  C171  A    
C106  O66   A    
C33   C49   A    
Cu4   O36   S    
Cu11  O11   S    
C142  C175  A    
C122  O34   A    
Cu20  Cu23  S    
C124  O40   A    
C108  O84   A    
C234  H125  S    
C19   C35   A    
C145  C161  A    
C27   C108  S    
C151  C167  A    
C98   C129  S    
C20   C212  A    
C132  O54   A    
C226  H100  S    
C158  H8    S    
C206  H46   S    
C88   C99   A    
C48   C64   A    
C196  C212  A    
C240  H143  S    
C105  O65   A    
Cu19  Cu24  S    
C202  H42   S    
Cu4   O52   S    
C207  H47   S    
C152  C181  A    
Cu5   O53   S    
C208  H48   S    
C55   C71   A    
Cu6   O38   S    
Cu1   O19   S    
C207  C223  A    
C140  C169  A    
C32   C111  S    
Cu24  O93   S    
Cu4   O18   S    
C108  O68   A    
Cu23  O84   S    
Cu15  O29   S    
C178  C179  A    
C155  H1    S    
C90   C101  A    
Cu20  O89   S    
C195  C211  A    
C154  H4    S    
C143  H23   S    
Cu11  O43   S    
C144  H24   S    
Cu2   O50   S    
C79   C207  A    
C44   H76   S    
C170  C171  A    
Cu21  O69   S    
C170  C186  A    
C150  C166  A    
C128  O48   A    
Cu14  O32   S    
C228  H107  S    
C57   C73   A    
C90   H90   S    
C174  C175  A    
C1    O1    A    
C220  H60   S    
C221  H61   S    
C15   C79   S    
C61   C77   A    
C36   H68   S    
C83   C98   A    
C149  C184  A    
C1    C65   S    
C148  H28   S    
Cu9   O9    S    
Cu11  O59   S    
Cu6   O24   S    
C36   C52   A    
C43   C59   A    
C37   C53   A    
C70   C198  A    
C240  H142  S    
C5    O21   A    
C135  O63   A    
C193  C209  A    
C18   C113  S    
C7    O23   A    
C12   O12   A    
Cu9   O41   S    
C148  C164  A    
C149  C165  A    
C42   H74   S    
C75   C203  A    
C222  H62   S    
C227  H104  S    
C4    C68   S    
C4    O4    A    
Cu15  O63   S    
C132  O56   A    
C226  H102  S    
Cu5   O37   S    
C103  C136  S    
C218  H58   S    
C236  H130  S    
C194  C210  A    
C50   C66   A    
C5    O5    A    
C179  C189  A    
C139  C155  A    
C130  O52   A    
C140  H20   S    
C235  H127  S    
C51   C67   A    
C237  H134  S    
Cu4   O4    S    
C125  C190  S    
C80   C208  A    
C209  H49   S    
C21   C213  A    
C238  H138  S    
Cu19  O90   S    
C7    O7    A    
C58   C74   A    
C87   C100  A    
C85   C88   A    
C2    O2    A    
C173  C187  A    
C81   H81   S    
C152  H32   S    
C114  O74   A    
Cu18  O66   S    
C64   C240  S    
Cu10  O28   S    
C14   O30   A    
C20   C115  S    
C213  H53   S    
C233  H122  S    
C11   O27   A    
C163  H9    S    
Cu2   Cu4   S    
C216  H56   S    
C30   C46   A    
C3    O19   A    
Cu23  O73   S    
C22   C214  A    
C102  C133  S    
C85   H85   S    
C11   C75   S    
Cu21  O75   S    
C24   C216  A    
C138  C154  A    
C168  H14   S    
C19   C116  S    
C206  C222  A    
C146  H26   S    
Cu1   Cu3   S    
C118  O78   A    
C109  O85   A    
C118  O94   A    
C147  H27   S    
C175  C187  A    
C60   C236  S    
C16   O16   A    
C227  H103  S    
C240  H144  S    
C194  H34   S    
Cu12  O60   S    
Cu16  O16   S    
C41   H73   S    
C198  H38   S    
C135  O61   A    
Cu21  O82   S    
Cu8   O8    S    
C53   C229  S    
C199  H39   S    
C27   C219  A    
C64   C80   A    
C25   C217  A    
Cu7   O21   S    
C230  H114  S    
C183  C191  A    
C29   C221  A    
C146  C162  A    
C26   C42   A    
C56   C232  S    
C182  C192  A    
C99   C132  S    
C204  C220  A    
C19   C211  A    
C84   C97   A    
Cu1   O49   S    
C93   C96   A    
Cu3   O3    S    
C97   C130  S    
C236  H132  S    
C17   C209  A    
C47   C63   A    
C178  C190  A    
C156  H2    S    
C225  H98   S    
C133  O57   A    
C81   C98   A    
Cu13  O45   S    
C130  O50   A    
C119  O79   A    
C235  H129  S    
C131  O55   A    
C120  O80   A    
C203  H43   S    
C167  H13   S    
C160  H6    S    
C123  C188  S    
C82   H82   S    
C137  C172  A    
C5    C69   S    
C32   C224  A    
C121  C186  S    
C116  O76   A    
C39   C55   A    
C40   C56   A    
Cu23  O94   S    
C106  O82   A    
C141  C176  A    
C136  O62   A    
C184  C192  A    
Cu19  O88   S    
C141  H21   S    
C39   H71   S    
C40   H72   S    
C31   C47   A    
C238  H136  S    
C229  H110  S    
C17   C33   A    
C152  C168  A    
C62   C78   A    
C25   C106  S    
C65   C193  A    
C232  H119  S    
Cu22  O70   S    
C8    C72   S    
Cu17  Cu22  S    
C125  O41   A    
C29   C110  S    
Cu12  O26   S    
C34   H66   S    
C86   C87   A    
C63   C79   A    
C74   C202  A    
C2    C66   S    
C230  H112  S    
C115  O91   A    
C1    O17   A    
Cu14  O62   S    
Cu7   O55   S    
C113  O89   A    
C78   C206  A    
C234  H124  S    
C13   O13   A    
C61   C237  S    
C38   C54   A    
C227  H105  S    
Cu20  O78   S    
C84   H84   S    
C3    O3    A    
Cu2   O20   S    
C68   C196  A    
C107  O83   A    
C105  O81   A    
C92   C101  A    
C174  C188  A    
C94   C103  A    
C12   C76   S    
C82   C97   A    
C199  C215  A    
C14   O14   A    
C208  C224  A    
C159  H5    S    
C63   C239  S    
C161  C164  A    
C215  H55   S    
Cu23  O71   S    
C162  C163  A    
C181  C184  A    
C6    C70   S    
C50   C226  S    
C24   C119  S    
Cu7   O7    S    
Cu17  O86   S    
C212  H52   S    
C110  O70   A    
C143  C159  A    
C133  O59   A    
C121  O33   A    
C131  O53   A    
C239  H140  S    
Cu19  O67   S    
C239  H141  S    
C41   C57   A    
Cu5   Cu7   S    
C180  C190  A    
C181  C191  A    
C87   H87   S    
C90   C91   A    
C32   C48   A    
C219  H59   S    
C44   C60   A    
C145  C180  A    
C45   C61   A    
Cu19  O77   S    
C136  O64   A    
C58   C234  S    
C60   C76   A    
C146  C179  A    
C110  O86   A    
C94   C95   A    
C134  O58   A    
Cu17  O92   S    
C94   H94   S    
Cu9   O27   S    
C169  C185  A    
C20   C36   A    
C204  H44   S    
C27   C43   A    
C21   C37   A    
Cu13  O31   S    
C82   C83   A    
C51   C227  S    
C96   C103  A    
Cu17  O65   S    
C147  C163  A    
C143  C174  A    
C12   O28   A    
C2    O18   A    
C10   O26   A    
Cu5   O23   S    
C214  H54   S    
C22   C117  S    
Cu16  O64   S    
C128  O46   A    
C89   C102  A    
C55   C231  S    
C6    O22   A    
C125  O43   A    
Cu24  O74   S    
C54   C230  S    
Cu22  O76   S    
Cu2   O2    S    
C210  H50   S    
C100  C131  S    
C119  O95   A    
C101  C134  S    
Cu16  O30   S    
C120  O96   A    
C47   H79   S    
C21   C118  S    
C49   C65   A    
C91   H91   S    
C234  H126  S    
C116  O92   A    
C7    C71   S    
C28   C107  S    
Cu13  Cu15  S    
Cu6   O6    S    
C139  C170  A    
C195  H35   S    
C239  H139  S    
C226  H101  S    
C151  H31   S    
C112  O72   A    
Cu22  O81   S    
C200  C216  A    
Cu13  O13   S    
Cu13  O61   S    
C172  C186  A    
Cu10  O58   S    
C144  C173  A    
C33   H65   S    
Cu10  O10   S    
C202  C218  A    
C217  H57   S    
Cu14  O14   S    
C237  H133  S    
C52   C68   A    
C6    O6    A    
Cu9   O57   S    
C109  O69   A    
C69   C197  A    
C223  H63   S    
C117  O77   A    
C137  H17   S    
C224  H64   S    
C67   C195  A    
C93   C104  A    
C17   C114  S    
Cu14  O46   S    
C71   C199  A    
C230  H113  S    
C115  O75   A    
C13   C77   S    
C34   C50   A    
C177  C189  A    
C113  O73   A    
C129  O49   A    
C43   H75   S    
C23   C120  S    
C122  C185  S    
C138  H18   S    
C15   O15   A    
C233  H121  S    
C45   H77   S    
C107  O67   A    
C38   H70   S    
Cu17  O79   S    
C126  C189  S    
C145  H25   S    
C150  H30   S    
Cu24  O83   S    
Cu18  O80   S    
C72   C200  A    
Cu15  O15   S    
C13   O29   A    
C124  O38   A    
C177  C180  A    
C231  H115  S    
C89   C92   A    
C18   C34   A    
C62   C238  S    
C88   H88   S    
C31   C223  A    
C127  O47   A    
C165  C168  A    
C149  H29   S    
C8    O24   A    
C166  C167  A    
Cu3   O17   S    
C169  C172  A    
Cu20  O68   S    
C126  O42   A    
C91   C102  A    
C205  H45   S    
C59   C75   A    
C81   C84   A    
C95   C104  A    
C35   H67   S    
Cu18  O91   S    
C173  C176  A    
Cu5   O5    S    
C111  O71   A    
C201  H41   S    
C134  O60   A    
Cu6   O54   S    
C9    C73   S    
C3    C67   S    
Cu2   O34   S    
C114  O90   A    
C211  H51   S    
C124  C187  S    
C197  H37   S    
C76   C204  A    
C150  C183  A    
C95   H95   S    
C127  C192  S    
C200  H40   S    
C203  C219  A    
C128  C191  S    
C86   H86   S    
C16   O32   A    
Cu21  O96   S    
C201  C217  A    
C236  H131  S    
C85   C100  A    
Cu22  O95   S    
C10   C74   S    
C147  C178  A    
C225  H97   S    
C48   H80   S    
C23   C39   A    
C205  C221  A    
C24   C40   A    
Cu1   O1    S    
C14   C78   S    
C228  H106  S    
C237  H135  S    
C92   H92   S    
C123  O37   A    
Cu3   O35   S    
Cu12  O12   S    
Cu18  O85   S    
