data_mof_unit_15082.cif
_audit_creation_date              2012-12-10T17:27:55-0500
_audit_creation_method            fapswitch 2.2
_symmetry_space_group_name_H-M    P1
_symmetry_Int_Tables_number       1
_space_group_crystal_system       triclinic
_cell_length_a                    10.864883
_cell_length_b                    12.161039
_cell_length_c                    12.894742
_cell_angle_alpha                 95.097403
_cell_angle_beta                  93.712164
_cell_angle_gamma                 86.811439
_cell_volume                      1691.32831781

loop_
_atom_site_label
_atom_site_type_symbol
_atom_type_description
_atom_site_fract_x
_atom_site_fract_y
_atom_site_fract_z
_atom_type_partial_charge
C1    C     C_R   0.483107 0.522175 0.698596 0.897996
C2    C     C_R   0.403099 0.633645 0.858666 0.352665
C3    C     C_R   0.469282 0.440680 0.864506 0.190661
C4    C     C_R   0.737105 0.497130 0.486014 0.898596
C5    C     C_R   0.496747 0.457711 0.970547 -0.084490
C6    C     C_R   0.445564 0.552966 0.024856 -0.123012
C7    C     C_R   0.424635 0.545366 0.129926 0.419847
C8    C     C_R   0.536570 0.364624 0.127349 -0.044516
C9    C     C_R   0.557450 0.372573 0.022543 0.440583
C10   C     C_R   0.393091 0.947368 0.388920 0.085736
C11   C     C_R   0.406074 0.833202 0.400372 0.511340
C12   C     C_R   0.936333 0.387633 0.473749 -0.007427
C13   C     C_R   0.541257 0.862102 0.553385 0.178705
C14   C     C_R   0.535298 0.979542 0.544940 -0.137832
C15   C     C_R   0.464718 0.020839 0.459121 -0.172818
C16   C     C_R   0.496398 0.476191 0.298618 0.854601
C17   C     C_R   0.467940 0.135314 0.445595 0.489731
C18   C     C_R   0.592762 0.171171 0.600613 0.360907
C19   C     C_R   0.598509 0.057580 0.617409 0.283460
C20   C     C_R   0.258815 0.498234 0.497181 0.868441
C21   C     C_R   0.884331 0.281300 0.462965 0.109598
C22   C     C_R   0.939936 0.198855 0.523879 0.363176
C23   C     C_R   0.866425 0.487633 0.459378 -0.174540
C24   C     C_R   0.064401 0.207321 0.556231 0.096687
C25   C     C_R   0.127291 0.287515 0.512742 0.377778
C26   C     C_R   0.064280 0.390211 0.491784 -0.195778
C27   C     C_3   0.853280 0.663965 0.364414 -0.393427
C28   C     C_3   0.910938 0.671794 0.260211 -0.842538
C29   C     C_3   0.412626 0.330938 0.823969 -0.271193
C30   C     C_3   0.277830 0.348921 0.784447 -0.936267
C31   C     C_3   0.300428 0.991010 0.304166 -0.290298
C32   C     C_3   0.191714 0.920621 0.262722 -0.847224
C33   C     C_3   0.627689 0.812658 0.636778 -0.257313
C34   C     C_R   0.924112 0.579627 0.429952 0.031103
C35   C     C_3   0.579655 0.828567 0.746871 -0.703991
C36   C     C_3   0.806072 0.243728 0.365349 -0.397872
C37   C     C_3   0.833866 0.301494 0.269010 -0.869603
C38   C     C_3   0.136621 0.117790 0.612784 -0.325835
C39   C     C_3   0.134709 0.003664 0.552768 -0.722033
C40   C     C_3   0.527866 0.252099 0.168630 -0.326073
C41   C     C_3   0.548060 0.147325 0.095515 -0.847805
C42   C     C_3   0.368407 0.758329 0.023521 -0.269502
C43   C     C_3   0.443371 0.851592 0.992447 -0.887013
C44   C     C_R   0.051687 0.586290 0.453438 0.441594
C45   C     C_R   0.123333 0.491354 0.482490 -0.181421
C46   C     C_R   0.485353 0.459689 0.183953 -0.290118
C47   C     C_R   0.451677 0.534038 0.808074 -0.283044
C48   C     C_R   0.404449 0.645688 0.968773 0.172032
H1    H     H_    0.002647 0.708185 0.271165 0.292689
H2    H     H_    0.233410 0.268634 0.773450 0.239660
H3    H     H_    0.466689 0.283649 0.763964 0.256524
H4    H     H_    0.410955 0.274741 0.887102 0.203116
H5    H     H_    0.398652 0.249048 0.366194 0.391850
H6    H     H_    0.736568 0.208266 0.693166 0.359475
H7    H     H_    0.220172 0.856930 0.200842 0.301137
H8    H     H_    0.151445 0.881345 0.326317 0.279928
H9    H     H_    0.117858 0.974063 0.226239 0.229044
H10   H     H_    0.253444 0.067638 0.337618 0.269072
H11   H     H_    0.351472 0.010495 0.236744 0.227380
H12   H     H_    0.920761 0.588451 0.217783 0.260089
H13   H     H_    0.650446 0.079745 0.763559 0.346440
H14   H     H_    0.317523 0.704458 0.361664 0.405185
H15   H     H_    0.645937 0.872634 0.802569 0.256472
H16   H     H_    0.488274 0.874219 0.747101 0.271670
H17   H     H_    0.573354 0.747918 0.778761 0.251721
H18   H     H_    0.645608 0.724981 0.619591 0.238137
H19   H     H_    0.721382 0.844364 0.635355 0.216935
H20   H     H_    0.935055 0.306456 0.263753 0.262878
H21   H     H_    0.798308 0.253610 0.197195 0.241956
H22   H     H_    0.788785 0.385755 0.271423 0.257835
H23   H     H_    0.850088 0.725557 0.211290 0.245121
H24   H     H_    0.825955 0.154035 0.344652 0.202599
H25   H     H_    0.707219 0.252911 0.380667 0.238574
H26   H     H_    0.796875 0.108419 0.507890 0.325707
H27   H     H_    0.051555 0.960420 0.568675 0.280554
H28   H     H_    0.135054 0.011471 0.468138 0.263852
H29   H     H_    0.217238 0.952110 0.577441 0.225668
H30   H     H_    0.234780 0.139605 0.626486 0.203046
H31   H     H_    0.099088 0.113604 0.690376 0.199100
H32   H     H_    0.200591 0.276683 0.381095 0.325629
H33   H     H_    0.047635 0.747353 0.458291 0.332402
H34   H     H_    0.757758 0.639635 0.342268 0.239953
H35   H     H_    0.290519 0.562332 0.224077 0.334648
H36   H     H_    0.489987 0.150938 0.021736 0.273150
H37   H     H_    0.646832 0.131130 0.080052 0.259688
H38   H     H_    0.521020 0.075956 0.135235 0.244660
H39   H     H_    0.590707 0.244207 0.237742 0.257281
H40   H     H_    0.431122 0.250267 0.190537 0.244357
H41   H     H_    0.543358 0.826641 0.993807 0.256822
H42   H     H_    0.411156 0.877105 0.914656 0.303779
H43   H     H_    0.429682 0.924956 0.048625 0.235823
H44   H     H_    0.268399 0.778073 0.006878 0.219538
H45   H     H_    0.846747 0.746512 0.408611 0.202078
H46   H     H_    0.386526 0.760159 0.108831 0.271642
H47   H     H_    0.706014 0.279809 0.016415 0.338286
H48   H     H_    0.312779 0.682740 0.734772 0.354179
H49   H     H_    0.226292 0.403280 0.842427 0.267347
H50   H     H_    0.271387 0.386834 0.709080 0.272453
N1    N     N_R   0.523130 0.207800 0.519340 -0.181109
N2    N     N_R   0.476870 0.792180 0.480660 -0.196275
O1    O     O_R   0.506170 0.421690 0.658830 -0.543902
O2    O     O_3   0.344945 0.715949 0.803402 -0.777936
O3    O     O_3   0.425467 0.171597 0.352519 -0.838873
O4    O     O_3   0.663021 0.246699 0.660976 -0.719810
O5    O     O_3   0.666394 0.024703 0.703784 -0.775722
O6    O     O_3   0.351800 0.762308 0.325556 -0.727670
O7    O     O_3   0.882188 0.103832 0.539155 -0.769915
O8    O     O_3   0.215019 0.242415 0.448310 -0.768612
O9    O     O_3   0.108296 0.684334 0.447057 -0.781159
O10   O     O_3   0.324153 0.604461 0.170785 -0.755237
O11   O     O_R   0.491330 0.609320 0.646410 -0.632311
O12   O     O_R   0.690660 0.406170 0.506210 -0.571375
O13   O     O_R   0.675810 0.593790 0.493790 -0.669995
O14   O     O_R   0.508670 0.390680 0.353590 -0.668356
O15   O     O_R   0.493830 0.578310 0.341170 -0.583574
O16   O     O_R   0.324190 0.406210 0.506210 -0.608399
O17   O     O_R   0.309340 0.593830 0.493790 -0.589390
O18   O     O_3   0.635162 0.298575 0.967746 -0.775827
Zn1   Zn    Zn3+2 0.509910 0.374720 0.508290 0.972311
Zn2   Zn    Zn3+2 0.490090 0.625280 0.491710 0.943753

loop_
_geom_bond_atom_site_label_1
_geom_bond_atom_site_label_2
_ccdc_geom_bond_type
H48   O2    S    
C21   C36   S    
C13   C33   S    
C41   H38   S    
C12   C23   A    
C33   H19   S    
C43   H41   S    
C6    C48   A    
C39   H29   S    
C31   H10   S    
H6    O4    S    
C36   C37   S    
C37   H21   S    
C10   C15   A    
C38   C39   S    
C38   H31   S    
C35   H17   S    
C22   O7    S    
C37   H20   S    
C18   C19   A    
C31   H11   S    
C3    C29   S    
C26   C45   A    
H26   O7    S    
C10   C31   S    
C8    C9    A    
C24   C38   S    
C35   H16   S    
N2    Zn2   S    
C39   H27   S    
H13   O5    S    
C32   H7    S    
C20   C45   S    
C44   O9    S    
C30   H2    S    
H47   O18   S    
C13   C14   A    
C9    O18   S    
C32   H9    S    
C20   O17   A    
C33   H18   S    
C28   H12   S    
C27   C34   S    
C43   H42   S    
O1    Zn1   S    
C7    C46   A    
C4    O13   A    
C34   C44   A    
C24   C25   A    
C36   H25   S    
O17   Zn2   S    
C16   C46   S    
C20   O16   A    
C4    C23   S    
C1    C47   S    
C18   O4    S    
C38   H30   S    
C2    C48   A    
C25   C26   A    
C41   H36   S    
C12   C21   A    
C43   H43   S    
C12   C26   A    
O11   Zn2   S    
C5    C9    A    
C29   C30   S    
O13   Zn2   S    
C28   H1    S    
C31   C32   S    
C30   H49   S    
C23   C34   A    
C11   O6    S    
H35   O10   S    
C42   C48   S    
C39   H28   S    
C17   N1    A    
C19   O5    S    
C40   C41   S    
H33   O9    S    
C22   C24   A    
C27   H45   S    
C28   H23   S    
C18   N1    A    
C16   O15   A    
C1    O1    A    
C44   C45   A    
C40   H39   S    
C29   H3    S    
C15   C17   A    
C30   H50   S    
C42   H46   S    
C14   C19   A    
C27   H34   S    
O14   Zn1   S    
C3    C5    A    
C16   O14   A    
O12   Zn1   S    
O16   Zn1   S    
C6    C7    A    
H14   O6    S    
C2    C47   A    
C41   H37   S    
H32   O8    S    
C7    O10   S    
C21   C22   A    
C40   H40   S    
C13   N2    A    
C17   O3    S    
C1    O11   A    
C5    C6    A    
H5    O3    S    
C3    C47   A    
C33   C35   S    
C42   H44   S    
C4    O12   A    
C8    C46   A    
C10   C11   A    
N1    Zn1   S    
O15   Zn2   S    
C42   C43   S    
C27   C28   S    
C2    O2    S    
C14   C15   A    
C11   N2    A    
C35   H15   S    
C8    C40   S    
C37   H22   S    
C32   H8    S    
C36   H24   S    
C25   O8    S    
C29   H4    S    
