data_mof_unit_40521.cif
_audit_creation_date              2012-10-26T21:14:52-0400
_audit_creation_method            fapswitch 2.2
_symmetry_space_group_name_H-M    P1
_symmetry_Int_Tables_number       1
_space_group_crystal_system       triclinic
_cell_length_a                    15.123273
_cell_length_b                    10.777194
_cell_length_c                    13.838995
_cell_angle_alpha                 89.468011
_cell_angle_beta                  88.380954
_cell_angle_gamma                 87.718114
_cell_volume                      2252.80509293

loop_
_atom_site_label
_atom_site_type_symbol
_atom_type_description
_atom_site_fract_x
_atom_site_fract_y
_atom_site_fract_z
_atom_type_partial_charge
C1    C     C_R   0.496884 0.262631 0.500417 0.581831
C2    C     C_R   0.593827 0.872432 0.656619 0.003103
C3    C     C_R   0.410561 0.152768 0.265711 -0.060094
C4    C     C_R   0.567381 0.892740 0.753763 -0.085452
C5    C     C_R   0.347556 0.212703 0.206222 0.058407
C6    C     C_R   0.610987 0.828972 0.829189 0.071195
C7    C     C_R   0.263144 0.245544 0.245453 -0.091590
C8    C     C_R   0.682211 0.745655 0.806322 -0.110074
C9    C     C_R   0.462881 0.935838 0.426128 -0.140565
C10   C     C_R   0.537675 0.063894 0.575940 -0.139522
C11   C     C_R   0.507033 0.871086 0.499876 0.028805
C12   C     C_R   0.504163 0.737150 0.499789 0.561611
C13   C     C_R   0.495009 0.128496 0.501248 0.040365
C14   C     C_R   0.544951 0.935309 0.576450 -0.023045
C15   C     C_R   0.453944 0.064180 0.427582 -0.004509
C16   C     C_R   0.329098 0.502216 0.501349 0.576722
C17   C     C_R   0.671084 0.497699 0.498062 0.559094
C18   C     C_R   0.560473 0.429806 0.792377 0.054085
C19   C     C_R   0.441612 0.574841 0.208559 0.050374
C20   C     C_R   0.437938 0.572956 0.795518 0.125146
C21   C     C_R   0.560721 0.425078 0.205022 0.186763
C22   C     C_R   0.440681 0.583253 0.899096 -0.057089
C23   C     C_R   0.052390 0.297862 0.573883 -0.100405
C24   C     C_R   0.559837 0.418146 0.101347 -0.049505
C25   C     C_R   0.500376 0.502507 0.948694 0.023107
C26   C     C_R   0.500399 0.499808 0.051975 0.029440
C27   C     C_R   0.559046 0.422646 0.894629 -0.048786
C28   C     C_R   0.440759 0.578668 0.106154 -0.017295
C29   C     C_R   0.384174 0.667405 0.955233 0.042667
C30   C     C_R   0.615360 0.332718 0.045229 0.051599
C31   C     C_R   0.382971 0.662241 0.057488 0.060437
C32   C     C_R   0.614534 0.335639 0.942991 0.034727
C33   C     C_R   0.812434 0.588892 0.440751 0.011901
C34   C     C_R   0.949443 0.695815 0.409880 -0.093355
C35   C     C_R   0.187367 0.411415 0.555138 0.017736
C36   C     C_R   0.768059 0.494664 0.491607 -0.024567
C37   C     C_R   0.232446 0.505043 0.504728 -0.006512
C38   C     C_R   0.816134 0.389771 0.526926 0.120740
C39   C     C_R   0.185190 0.603937 0.459145 0.124831
C40   C     C_R   0.909594 0.391163 0.531144 0.078563
C41   C     C_R   0.091487 0.605210 0.458204 0.078679
C42   C     C_R   0.953574 0.496646 0.494007 -0.022266
C43   C     C_R   0.046926 0.502510 0.499043 -0.023818
C44   C     C_R   0.904979 0.593636 0.447421 -0.032358
C45   C     C_R   0.240824 0.214775 0.340909 -0.143459
C46   C     C_R   0.095547 0.404650 0.544312 -0.036144
C47   C     C_R   0.961143 0.289865 0.569146 0.157027
C48   C     C_R   0.040739 0.703691 0.415154 0.161177
C49   C     C_2   0.764579 0.672410 0.371003 0.591265
C50   C     C_2   0.234045 0.325448 0.624183 0.589829
C51   C     C_2   0.358815 0.623062 0.746011 0.643689
C52   C     C_2   0.634443 0.363980 0.256876 0.633888
C53   C     C_2   0.327380 0.766329 0.910819 0.619293
C54   C     C_2   0.666639 0.227952 0.089825 0.632195
C55   C     C_2   0.321838 0.748091 0.113496 0.569783
C56   C     C_R   0.710753 0.728932 0.710484 -0.128986
C57   C     C_2   0.666272 0.238567 0.887120 0.556349
C58   C     C_3   0.733335 0.254455 0.635678 -0.248462
C59   C     C_3   0.260719 0.794525 0.485574 -0.256064
C60   C     C_3   0.932414 0.148026 0.702294 -0.289565
C61   C     C_3   0.060559 0.925261 0.424415 -0.309525
C62   C     C_2   0.368664 0.238264 0.102947 0.577668
C63   C     C_2   0.582372 0.849035 0.931422 0.594198
C64   C     C_R   0.302908 0.153458 0.398751 -0.099978
C65   C     C_R   0.667505 0.792893 0.636364 -0.065563
C66   C     C_R   0.388952 0.125883 0.362862 0.018283
Cu1   Cu    Cu3+1 0.500010 0.499980 0.597420 1.007096
Cu2   Cu    Cu3+1 0.499990 0.500020 0.402580 1.028354
H1    H     H_    0.429932 0.885917 0.370653 0.132773
H2    H     H_    0.766601 0.666170 0.693503 0.123338
H3    H     H_    0.283508 0.125448 0.471207 0.147951
H4    H     H_    0.691453 0.780067 0.563233 0.158036
H5    H     H_    0.476116 0.127611 0.237144 0.209748
H6    H     H_    0.511600 0.955985 0.770080 0.194930
H7    H     H_    0.758665 0.738698 0.234343 0.357664
H8    H     H_    0.233973 0.246544 0.757043 0.361005
H9    H     H_    0.412677 0.785264 0.709071 0.318470
H10   H     H_    0.681964 0.211914 0.327152 0.327603
H11   H     H_    0.203883 0.828056 0.879320 0.353511
H12   H     H_    0.566632 0.113567 0.633912 0.147095
H13   H     H_    0.665697 0.054656 0.145891 0.352137
H14   H     H_    0.289745 0.924435 0.152460 0.343937
H15   H     H_    0.785111 0.155710 0.855765 0.328183
H16   H     H_    0.731843 0.253125 0.485478 0.245994
H17   H     H_    0.747051 0.156403 0.657305 0.177251
H18   H     H_    0.661066 0.268659 0.632111 0.146805
H19   H     H_    0.759616 0.316731 0.690738 0.166437
H20   H     H_    0.278535 0.680866 0.364848 0.278688
H21   H     H_    0.272759 0.883166 0.447026 0.137036
H22   H     H_    0.322892 0.760448 0.518585 0.174884
H23   H     H_    0.608680 0.376920 0.750734 0.134168
H24   H     H_    0.209770 0.812491 0.543683 0.182525
H25   H     H_    0.941619 0.103167 0.557060 0.244571
H26   H     H_    0.891412 0.067904 0.721850 0.140080
H27   H     H_    0.909703 0.228658 0.747242 0.188619
H28   H     H_    0.002346 0.122251 0.718238 0.157150
H29   H     H_    0.070600 0.818934 0.300462 0.284989
H30   H     H_    0.104855 0.997678 0.396092 0.152179
H31   H     H_    0.071340 0.913254 0.503068 0.147051
H32   H     H_    0.990873 0.957437 0.413273 0.131636
H33   H     H_    0.448834 0.202707 0.986884 0.370592
H34   H     H_    0.397586 0.634344 0.251768 0.140654
H35   H     H_    0.505344 0.946586 0.027043 0.397337
H36   H     H_    0.089877 0.216908 0.599159 0.134520
H37   H     H_    0.913326 0.773176 0.377064 0.149812
H38   H     H_    0.213526 0.291932 0.201535 0.173658
H39   H     H_    0.716693 0.694702 0.862619 0.163881
H40   H     H_    0.174880 0.237073 0.369765 0.117690
N1    N     N_R   0.499960 0.499900 0.743810 -0.267344
N2    N     N_R   0.500040 0.500100 0.256190 -0.276637
N3    N     N_2   0.772025 0.276336 0.540932 -0.488190
N4    N     N_2   0.231721 0.704663 0.417520 -0.472697
N5    N     N_2   0.923035 0.177331 0.600638 -0.493657
N6    N     N_2   0.080450 0.810093 0.373694 -0.459947
O1    O     O_R   0.500000 0.319630 0.582270 -0.497383
O2    O     O_R   0.796526 0.680426 0.275396 -0.642940
O3    O     O_2   0.304596 0.273145 0.601561 -0.531472
O4    O     O_R   0.196578 0.305880 0.716372 -0.648411
O5    O     O_2   0.291006 0.565254 0.751357 -0.412022
O6    O     O_R   0.357281 0.738202 0.699002 -0.680792
O7    O     O_2   0.706477 0.411828 0.255245 -0.458568
O8    O     O_R   0.624887 0.247070 0.299388 -0.694981
O9    O     O_2   0.360357 0.860293 0.878581 -0.481095
O10   O     O_R   0.235737 0.754077 0.910419 -0.619597
O11   O     O_2   0.746486 0.234584 0.099085 -0.432318
O12   O     O_R   0.500000 0.680370 0.417730 -0.494504
O13   O     O_R   0.623799 0.120336 0.117723 -0.652251
O14   O     O_2   0.259971 0.706778 0.160796 -0.502894
O15   O     O_R   0.335145 0.875718 0.111185 -0.669267
O16   O     O_2   0.627863 0.166896 0.836387 -0.543029
O17   O     O_R   0.758214 0.227985 0.894284 -0.663319
O18   O     O_2   0.320650 0.308937 0.056331 -0.491148
O19   O     O_R   0.442700 0.179939 0.057938 -0.656282
O20   O     O_2   0.613121 0.782674 0.995417 -0.524340
O21   O     O_R   0.520371 0.944196 0.955217 -0.607516
O22   O     O_R   0.499990 0.319660 0.417730 -0.470983
O23   O     O_R   0.500010 0.680340 0.582270 -0.515103
O24   O     O_R   0.370260 0.499960 0.582280 -0.438385
O25   O     O_R   0.629740 0.500040 0.417720 -0.447803
O26   O     O_R   0.370250 0.499990 0.417740 -0.529902
O27   O     O_R   0.629750 0.500010 0.582260 -0.532392
O28   O     O_2   0.697599 0.732078 0.395798 -0.540884

loop_
_geom_bond_atom_site_label_1
_geom_bond_atom_site_label_2
_ccdc_geom_bond_type
C40   C47   A    
C38   C40   A    
C58   H17   S    
C22   C29   A    
C50   O3    D    
C61   H30   S    
C18   N1    A    
C2    C65   A    
C58   H19   S    
C8    C56   A    
C21   N2    A    
C39   C41   A    
C61   H31   S    
C30   C54   S    
C18   H23   S    
C7    C45   A    
C62   O19   S    
C35   C37   A    
C9    H1    S    
C20   C51   S    
C19   H34   S    
C12   O12   A    
C33   C49   S    
C56   C65   A    
C33   C36   A    
C17   O27   A    
C59   H21   S    
C64   H3    S    
C38   N3    S    
Cu1   O24   S    
H35   O21   S    
Cu1   O1    S    
C52   O8    S    
Cu1   N1    S    
C55   O15   S    
C22   C25   A    
C51   O5    D    
C17   C36   S    
C1    O22   A    
C4    H6    S    
C45   H40   S    
C16   C37   S    
H9    O6    S    
C40   C42   A    
C23   C46   A    
H13   O13   S    
C41   C43   A    
C60   N5    S    
C16   O26   A    
C42   C44   A    
C32   C57   S    
C3    H5    S    
C58   H18   S    
Cu1   O23   S    
C43   C46   A    
C59   N4    S    
C61   H32   S    
C54   O11   D    
H16   N3    S    
C23   C47   A    
C58   N3    S    
C63   O20   D    
C62   O18   D    
C57   O16   D    
Cu2   O22   S    
C34   C44   A    
C4    C6    A    
C53   O9    D    
C5    C7    A    
C10   H12   S    
H25   N5    S    
C25   C26   A    
C15   C66   S    
C53   O10   S    
H8    O4    S    
Cu1   Cu2   S    
C59   H22   S    
C63   O21   S    
C6    C63   S    
C2    C4    A    
H15   O17   S    
C52   O7    D    
H10   O8    S    
C23   H36   S    
C49   O28   D    
C35   C50   S    
C51   O6    S    
C7    H38   S    
C17   O25   A    
Cu2   N2    S    
H14   O15   S    
C19   C28   A    
C9    C11   A    
C60   H28   S    
C39   N4    S    
C20   C22   A    
C56   H2    S    
C13   C15   A    
C10   C14   A    
Cu2   O26   S    
C3    C66   A    
C1    C13   S    
C42   C43   A    
Cu1   O27   S    
C8    H39   S    
Cu2   O12   S    
C48   N6    S    
C54   O13   S    
C19   N2    A    
C47   N5    S    
C27   C32   A    
C50   O4    S    
C34   H37   S    
C57   O17   S    
C28   C31   A    
C16   O24   A    
C18   C27   A    
C24   C26   A    
C3    C5    A    
C10   C13   A    
C6    C8    A    
C11   C12   S    
H33   O19   S    
C25   C27   A    
C65   H4    S    
H11   O10   S    
C45   C64   A    
C26   C28   A    
C36   C38   A    
C9    C15   A    
C37   C39   A    
C30   C32   A    
C29   C53   S    
C11   C14   A    
C41   C48   A    
C5    C62   S    
C59   H24   S    
C2    C14   S    
C33   C44   A    
C24   C30   A    
C20   N1    A    
H20   N4    S    
C60   H27   S    
C49   O2    S    
C34   C48   A    
C55   O14   D    
C29   C31   A    
C21   C24   A    
C61   N6    S    
C12   O23   A    
Cu2   O25   S    
H7    O2    S    
C1    O1    A    
C31   C55   S    
H29   N6    S    
C35   C46   A    
C21   C52   S    
C64   C66   A    
C60   H26   S    
