data_mof_unit_49457.cif
_audit_creation_date              2012-12-10T17:02:18-0500
_audit_creation_method            fapswitch 2.2
_symmetry_space_group_name_H-M    P1
_symmetry_Int_Tables_number       1
_space_group_crystal_system       triclinic
_cell_length_a                    10.628351
_cell_length_b                    10.641576
_cell_length_c                    10.037223
_cell_angle_alpha                 90.734027
_cell_angle_beta                  89.905825
_cell_angle_gamma                 90.053222
_cell_volume                      1135.13889907

loop_
_atom_site_label
_atom_site_type_symbol
_atom_type_description
_atom_site_fract_x
_atom_site_fract_y
_atom_site_fract_z
_atom_type_partial_charge
C1    C     C_R   0.500334 0.262277 0.498979 0.940473
C2    C     C_2   0.498749 0.129244 0.495072 -0.375298
C3    C     C_2   0.570195 0.575150 0.925714 0.243661
C4    C     C_R   0.260563 0.503034 0.500143 0.847675
C5    C     C_2   0.579513 0.563926 0.075582 -0.186183
C6    C     C_R   0.488769 0.737150 0.500785 0.905931
C7    C     C_R   0.739407 0.503131 0.499880 0.864959
C8    C     C_R   0.130991 0.717833 0.616861 -0.189766
C9    C     C_R   0.065210 0.819141 0.672274 -0.132841
C10   C     C_R   0.934269 0.819808 0.670644 -0.144735
C11   C     C_R   0.868683 0.719053 0.613825 -0.190156
C12   C     C_R   0.065862 0.614359 0.559902 0.093311
C13   C     C_R   0.933980 0.614758 0.558926 0.094845
C14   C     C_3   0.597981 0.794552 0.880662 -0.777775
C15   C     C_3   0.372489 0.942865 0.155309 -0.809239
C16   C     C_R   0.128289 0.511167 0.500115 -0.089343
C17   C     C_R   0.064317 0.413246 0.436986 -0.208723
C18   C     C_R   0.935725 0.413329 0.436724 -0.213153
C19   C     C_R   0.871664 0.511496 0.499291 -0.097278
C20   C     C_2   0.422867 0.933191 0.397031 0.281234
C21   C     C_2   0.458333 0.868108 0.504802 -0.454079
C22   C     C_2   0.422843 0.070263 0.408453 -0.186432
H1    H     H_    0.114296 0.335462 0.390289 0.145284
H2    H     H_    0.885808 0.335536 0.389997 0.150657
H3    H     H_    0.465173 0.912479 0.602525 0.143609
H4    H     H_    0.363006 0.124278 0.342782 0.164805
H5    H     H_    0.738621 0.661279 0.887118 0.213375
H6    H     H_    0.653773 0.859614 0.818262 0.223344
H7    H     H_    0.606632 0.824671 0.986707 0.230984
H8    H     H_    0.497817 0.800535 0.849772 0.252745
H9    H     H_    0.319454 0.801128 0.287143 0.237633
H10   H     H_    0.361696 0.877705 0.068799 0.240971
H11   H     H_    0.457498 0.001423 0.138440 0.253032
H12   H     H_    0.562544 0.081671 0.561808 0.141192
H13   H     H_    0.287316 0.003018 0.161786 0.227268
H14   H     H_    0.455371 0.428431 0.897395 0.131396
H15   H     H_    0.653526 0.616237 0.125932 0.175163
H16   H     H_    0.425355 0.460437 0.101462 0.157949
H17   H     H_    0.232544 0.722297 0.617727 0.142365
H18   H     H_    0.116027 0.897879 0.715418 0.135756
H19   H     H_    0.883377 0.899115 0.712421 0.133246
H20   H     H_    0.767150 0.724623 0.611594 0.161679
N1    N     N_2   0.501340 0.501330 0.852150 -0.199194
N2    N     N_2   0.501380 0.501360 0.147810 -0.200427
N3    N     N_2   0.644701 0.667852 0.862531 -0.246851
N4    N     N_2   0.386158 0.870691 0.275630 -0.263206
O1    O     O_R   0.499980 0.319060 0.613040 -0.613613
O2    O     O_R   0.500020 0.319100 0.386900 -0.606381
O3    O     O_R   0.316750 0.499980 0.613090 -0.616517
O4    O     O_R   0.316790 0.500020 0.386950 -0.622845
O5    O     O_R   0.499980 0.680900 0.613100 -0.602258
O6    O     O_R   0.500020 0.680940 0.386960 -0.586742
O7    O     O_R   0.683210 0.499980 0.613050 -0.602620
O8    O     O_R   0.683250 0.500020 0.386910 -0.609801
Zn1   Zn    Zn3+2 0.499970 0.499970 0.650990 0.949262
Zn2   Zn    Zn3+2 0.500030 0.500030 0.349010 0.941652

loop_
_geom_bond_atom_site_label_1
_geom_bond_atom_site_label_2
_ccdc_geom_bond_type
C2    C22   D    
C1    O2    A    
H16   N2    S    
C8    H17   S    
C5    H15   S    
C6    O5    A    
C9    C10   A    
N2    Zn2   S    
C7    C19   S    
C7    O8    A    
C4    O3    A    
C8    C12   A    
C6    O6    A    
C2    H12   S    
C17   C18   A    
C3    N3    S    
C15   H10   S    
C12   C13   A    
C10   H19   S    
C11   C13   A    
C3    N1    D    
C17   H1    S    
C14   H8    S    
C18   H2    S    
N1    Zn1   S    
C4    C16   S    
C5    N2    D    
C20   C22   S    
H5    N3    S    
C1    C2    S    
C14   N3    S    
O5    Zn1   S    
O7    Zn1   S    
C12   C16   A    
O8    Zn2   S    
C16   C17   A    
C10   C11   A    
C7    O7    A    
C14   H7    S    
C20   N4    S    
C20   C21   D    
C11   H20   S    
O1    Zn1   S    
C18   C19   A    
C22   H4    S    
C15   H13   S    
O2    Zn2   S    
C13   C19   A    
C1    O1    A    
H14   N1    S    
C21   H3    S    
C15   N4    S    
C14   H6    S    
O3    Zn1   S    
C6    C21   S    
C15   H11   S    
C9    H18   S    
O4    Zn2   S    
O6    Zn2   S    
C4    O4    A    
C8    C9    A    
C3    C5    S    
H9    N4    S    
