data_mof_unit_25485.cif
_audit_creation_date              2012-12-10T17:54:38-0500
_audit_creation_method            fapswitch 2.2
_symmetry_space_group_name_H-M    P1
_symmetry_Int_Tables_number       1
_space_group_crystal_system       triclinic
_cell_length_a                    21.640734
_cell_length_b                    21.607123
_cell_length_c                    30.072287
_cell_angle_alpha                 89.914046
_cell_angle_beta                  90.039538
_cell_angle_gamma                 90.000479
_cell_volume                      14061.6018365

loop_
_atom_site_label
_atom_site_type_symbol
_atom_type_description
_atom_site_fract_x
_atom_site_fract_y
_atom_site_fract_z
_atom_type_partial_charge
C1    C     C_R   0.500010 0.120098 0.499967 1.042097
C2    C     C_R   0.120621 0.500003 0.500016 0.980476
C3    C     C_R   0.500004 0.879931 0.499995 1.044763
C4    C     C_R   0.879378 0.500000 0.500008 0.980913
C5    C     C_R   0.000002 0.619932 0.000019 1.060553
C6    C     C_R   0.619962 0.000002 0.000003 1.063233
C7    C     C_R   0.000003 0.380066 0.999992 1.060464
C8    C     C_R   0.380042 0.000002 0.000006 1.063590
C9    C     C_R   0.499916 0.000111 0.773071 -0.064305
C10   C     C_R   0.999851 0.499830 0.773370 -0.067114
C11   C     C_R   0.498543 0.998770 0.226852 -0.067833
C12   C     C_R   0.000061 0.500046 0.226643 -0.066910
C13   C     C_R   0.000030 0.500071 0.273085 -0.064526
C14   C     C_R   0.498814 0.999072 0.273296 -0.064478
C15   C     C_R   0.999853 0.499825 0.726927 -0.064498
C16   C     C_R   0.499962 0.000062 0.726632 -0.064872
C17   C     C_R   0.427980 0.912440 0.772987 0.370978
C18   C     C_R   0.923197 0.583499 0.773139 0.376402
C19   C     C_R   0.571782 0.087836 0.772847 0.371192
C20   C     C_R   0.076495 0.416151 0.773406 0.376623
C21   C     C_R   0.422785 0.083045 0.226665 0.341027
C22   C     C_R   0.922697 0.417039 0.226791 0.376018
C23   C     C_R   0.573335 0.913539 0.227161 0.372945
C24   C     C_R   0.077430 0.583045 0.226694 0.376256
C25   C     C_R   0.927928 0.412471 0.273050 0.367964
C26   C     C_R   0.418137 0.078822 0.273031 0.363391
C27   C     C_R   0.072175 0.587630 0.272940 0.367825
C28   C     C_R   0.579283 0.919127 0.273310 0.370240
C29   C     C_R   0.928433 0.587982 0.726880 0.367731
C30   C     C_R   0.421905 0.917779 0.726818 0.371024
C31   C     C_R   0.071294 0.411688 0.727147 0.367636
C32   C     C_R   0.577971 0.082388 0.726709 0.370673
C33   C     C_R   0.542809 0.218071 0.473216 0.348053
C34   C     C_R   0.220271 0.443335 0.496522 0.371687
C35   C     C_R   0.458263 0.782192 0.472359 0.346473
C36   C     C_R   0.779745 0.556685 0.496181 0.372183
C37   C     C_R   0.541905 0.782071 0.527484 0.346260
C38   C     C_R   0.220248 0.556735 0.503543 0.372299
C39   C     C_R   0.457550 0.217901 0.527009 0.347457
C40   C     C_R   0.779737 0.443340 0.503942 0.371808
C41   C     C_R   0.036482 0.717322 0.968825 0.346274
C42   C     C_R   0.717226 0.964196 0.968402 0.345930
C43   C     C_R   0.963534 0.282795 0.968739 0.346466
C44   C     C_R   0.282725 0.035844 0.968358 0.345507
C45   C     C_R   0.036593 0.282671 0.031162 0.346483
C46   C     C_R   0.717291 0.035908 0.031540 0.345674
C47   C     C_R   0.963622 0.717199 0.031296 0.346542
C48   C     C_R   0.282787 0.964222 0.031699 0.345715
C49   C     C_R   0.500066 0.186361 0.500013 -0.382128
C50   C     C_R   0.187744 0.500023 0.500032 -0.411301
C51   C     C_R   0.500034 0.813722 0.499962 -0.381777
C52   C     C_R   0.812254 0.500005 0.500037 -0.411207
C53   C     C_R   0.000023 0.685909 0.000043 -0.379727
C54   C     C_R   0.685920 0.000017 0.999992 -0.379004
C55   C     C_R   0.000027 0.314086 0.999972 -0.379749
C56   C     C_R   0.314090 0.000016 0.000018 -0.378856
C57   C     C_R   0.500018 0.999984 0.586717 0.892612
C58   C     C_R   0.999991 0.499959 0.586800 0.860656
C59   C     C_R   0.499969 0.000120 0.413266 0.893017
C60   C     C_R   0.999994 0.500040 0.413203 0.860639
C61   C     C_R   0.000022 0.500019 0.086715 0.904604
C62   C     C_R   0.499979 0.999924 0.086784 0.908043
C63   C     C_R   0.999979 0.499985 0.913288 0.904546
C64   C     C_R   0.499986 0.000042 0.913196 0.907667
C65   C     C_R   0.539206 0.282299 0.470610 0.301429
C66   C     C_R   0.284255 0.444431 0.492753 0.285925
C67   C     C_R   0.462241 0.718018 0.469554 0.301544
C68   C     C_R   0.715746 0.555605 0.492480 0.285755
C69   C     C_R   0.538010 0.717879 0.530228 0.302098
C70   C     C_R   0.284247 0.555689 0.507254 0.285662
C71   C     C_R   0.461355 0.282083 0.529808 0.300561
C72   C     C_R   0.715747 0.444453 0.507669 0.285657
C73   C     C_R   0.032821 0.781584 0.966727 0.301419
C74   C     C_R   0.781418 0.967986 0.966283 0.302284
C75   C     C_R   0.967247 0.218542 0.966611 0.301224
C76   C     C_R   0.218527 0.032083 0.966265 0.302417
C77   C     C_R   0.032941 0.218405 0.033259 0.301370
C78   C     C_R   0.781493 0.032190 0.033618 0.302436
C79   C     C_R   0.967328 0.781453 0.033413 0.301274
C80   C     C_R   0.218590 0.968001 0.033800 0.302277
C81   C     C_R   0.500175 0.313703 0.500152 -0.410990
C82   C     C_R   0.315146 0.500071 0.499976 -0.364132
C83   C     C_R   0.500105 0.686372 0.499903 -0.411791
C84   C     C_R   0.684853 0.500026 0.500050 -0.364181
C85   C     C_R   0.000076 0.813261 0.000071 -0.366916
C86   C     C_R   0.813221 0.000069 0.999957 -0.367052
C87   C     C_R   0.000093 0.186734 0.999933 -0.366715
C88   C     C_R   0.186788 0.000039 0.000032 -0.367002
C89   C     C_R   0.380343 0.500063 0.499989 1.090776
C90   C     C_R   0.500024 0.620185 0.499968 1.078609
C91   C     C_R   0.619657 0.500018 0.500015 1.091091
C92   C     C_R   0.500020 0.379844 0.500043 1.080491
C93   C     C_R   0.879660 0.000022 0.999985 1.044971
C94   C     C_R   0.000030 0.120316 0.999974 1.046265
C95   C     C_R   0.120343 0.000011 0.000012 1.044710
C96   C     C_R   0.000021 0.879682 0.000027 1.046043
C97   C     C_R   0.534404 0.044433 0.842581 -0.195582
C98   C     C_R   0.038666 0.459294 0.842998 -0.194325
C99   C     C_R   0.465374 0.955861 0.842645 -0.195237
C100  C     C_R   0.961111 0.540466 0.842865 -0.194541
C101  C     C_R   0.535133 0.956173 0.157383 -0.195380
C102  C     C_R   0.039198 0.540276 0.157054 -0.194456
C103  C     C_R   0.462981 0.042211 0.157218 -0.185176
C104  C     C_R   0.960968 0.459759 0.157109 -0.194969
C105  C     C_R   0.034725 0.544199 0.342619 -0.203984
C106  C     C_R   0.540390 0.961267 0.342888 -0.197482
C107  C     C_R   0.965234 0.456007 0.342668 -0.203926
C108  C     C_R   0.458779 0.038384 0.342793 -0.197858
C109  C     C_R   0.034315 0.455507 0.657432 -0.203930
C110  C     C_R   0.539814 0.039611 0.657069 -0.198106
C111  C     C_R   0.965471 0.544202 0.657306 -0.203831
C112  C     C_R   0.460250 0.960368 0.657119 -0.197621
C113  C     C_R   0.499914 0.000127 0.865337 -0.067201
C114  C     C_R   0.999923 0.499918 0.865561 -0.063847
C115  C     C_R   0.499511 0.999582 0.134602 -0.073024
C116  C     C_R   0.000071 0.500019 0.134448 -0.063877
C117  C     C_R   0.999966 0.500108 0.365355 -0.070715
C118  C     C_R   0.499820 0.000038 0.365498 -0.064764
C119  C     C_R   0.999919 0.499876 0.634653 -0.071078
C120  C     C_R   0.500048 0.999972 0.634454 -0.062762
C121  C     C_R   0.464355 0.955691 0.796354 -0.034572
C122  C     C_R   0.960972 0.541421 0.796570 -0.033379
C123  C     C_R   0.535428 0.044581 0.796286 -0.034566
C124  C     C_R   0.038740 0.458256 0.796704 -0.033436
C125  C     C_R   0.461200 0.041643 0.203489 -0.017146
C126  C     C_R   0.960835 0.458791 0.203402 -0.033557
C127  C     C_R   0.535729 0.955692 0.203681 -0.036077
C128  C     C_R   0.039309 0.541280 0.203351 -0.033516
C129  C     C_R   0.964316 0.455753 0.296376 -0.032164
C130  C     C_R   0.458167 0.038921 0.296496 -0.026353
C131  C     C_R   0.035719 0.544404 0.296322 -0.031914
C132  C     C_R   0.539963 0.959736 0.296612 -0.033783
C133  C     C_R   0.964502 0.544427 0.703597 -0.032109
C134  C     C_R   0.460244 0.959291 0.703404 -0.033267
C135  C     C_R   0.035228 0.455239 0.703729 -0.032009
C136  C     C_R   0.539723 0.040787 0.703352 -0.033104
H1    H     H_    0.561568 0.077618 0.861239 0.173506
H2    H     H_    0.067539 0.427725 0.861850 0.169134
H3    H     H_    0.438213 0.922679 0.861353 0.173442
H4    H     H_    0.932259 0.572066 0.861610 0.169258
H5    H     H_    0.563573 0.924076 0.138749 0.173498
H6    H     H_    0.068324 0.571620 0.138239 0.169402
H7    H     H_    0.435045 0.074743 0.138464 0.179482
H8    H     H_    0.931856 0.428397 0.138337 0.169399
H9    H     H_    0.062011 0.577240 0.361316 0.168813
H10   H     H_    0.570984 0.931297 0.361682 0.169925
H11   H     H_    0.937938 0.422961 0.361398 0.169057
H12   H     H_    0.428460 0.068613 0.361507 0.169353
H13   H     H_    0.061383 0.422278 0.638770 0.169082
H14   H     H_    0.569453 0.070510 0.638284 0.168939
H15   H     H_    0.938437 0.577460 0.638548 0.169205
H16   H     H_    0.430626 0.929449 0.638375 0.168994
O1    O     O_R   0.448270 0.091530 0.499990 -0.609622
O2    O     O_R   0.091530 0.551730 0.499990 -0.580236
O3    O     O_R   0.551730 0.908470 0.499990 -0.610393
O4    O     O_R   0.908470 0.448270 0.499990 -0.580338
O5    O     O_R   0.448270 0.908470 0.500010 -0.610734
O6    O     O_R   0.091530 0.448270 0.500010 -0.580029
O7    O     O_R   0.551730 0.091530 0.500010 -0.609491
O8    O     O_R   0.908470 0.551730 0.500010 -0.580405
O9    O     O_R   0.948270 0.591530 0.999990 -0.619634
O10   O     O_R   0.591530 0.051730 0.999990 -0.619851
O11   O     O_R   0.051730 0.408470 0.999990 -0.619334
O12   O     O_R   0.408470 0.948270 0.999990 -0.620324
O13   O     O_R   0.948270 0.408470 0.000010 -0.619522
O14   O     O_R   0.591530 0.948270 0.000010 -0.620219
O15   O     O_R   0.051730 0.591530 0.000010 -0.619386
O16   O     O_R   0.408470 0.051730 0.000010 -0.620065
O17   O     O_R   0.448270 0.999890 0.566070 -0.628059
O18   O     O_R   0.999890 0.551730 0.566070 -0.632346
O19   O     O_R   0.551730 0.000110 0.566070 -0.628292
O20   O     O_R   0.000110 0.448270 0.566070 -0.632147
O21   O     O_R   0.448270 0.000110 0.433930 -0.628486
O22   O     O_R   0.999890 0.448270 0.433930 -0.632202
O23   O     O_R   0.551730 0.999890 0.433930 -0.628565
O24   O     O_R   0.000110 0.551730 0.433930 -0.632091
O25   O     O_R   0.948270 0.499890 0.066070 -0.629509
O26   O     O_R   0.499890 0.051730 0.066070 -0.629289
O27   O     O_R   0.051730 0.500110 0.066070 -0.629575
O28   O     O_R   0.500110 0.948270 0.066070 -0.630709
O29   O     O_R   0.948270 0.500110 0.933930 -0.629385
O30   O     O_R   0.499890 0.948270 0.933930 -0.631066
O31   O     O_R   0.051730 0.499890 0.933930 -0.629493
O32   O     O_R   0.500110 0.051730 0.933930 -0.631092
O33   O     O_R   0.408290 0.499920 0.462700 -0.645609
O34   O     O_R   0.499920 0.591710 0.462700 -0.624983
O35   O     O_R   0.591710 0.500080 0.462700 -0.648433
O36   O     O_R   0.500080 0.408290 0.462700 -0.627857
O37   O     O_R   0.408290 0.500080 0.537300 -0.647243
O38   O     O_R   0.499920 0.408290 0.537300 -0.626510
O39   O     O_R   0.591710 0.499920 0.537300 -0.645910
O40   O     O_R   0.500080 0.591710 0.537300 -0.625414
O41   O     O_R   0.908290 0.999920 0.962700 -0.621136
O42   O     O_R   0.999920 0.091710 0.962700 -0.621902
O43   O     O_R   0.091710 0.000080 0.962700 -0.621096
O44   O     O_R   0.000080 0.908290 0.962700 -0.621796
O45   O     O_R   0.908290 0.000080 0.037300 -0.621371
O46   O     O_R   0.999920 0.908290 0.037300 -0.621776
O47   O     O_R   0.091710 0.999920 0.037300 -0.621067
O48   O     O_R   0.000080 0.091710 0.037300 -0.621975
Zn1   Zn    Zn3+2 0.430930 0.000000 0.500000 0.952488
Zn2   Zn    Zn3+2 0.000000 0.569070 0.500000 0.973735
Zn3   Zn    Zn3+2 0.569070 0.000000 0.500000 0.952658
Zn4   Zn    Zn3+2 0.000000 0.430930 0.500000 0.973859
Zn5   Zn    Zn3+2 0.930930 0.500000 0.000000 0.942456
Zn6   Zn    Zn3+2 0.500000 0.069070 0.000000 0.944803
Zn7   Zn    Zn3+2 0.069070 0.500000 0.000000 0.942716
Zn8   Zn    Zn3+2 0.500000 0.930930 0.000000 0.942240
Zn9   Zn    Zn3+2 0.500000 0.500000 0.450200 0.934429
Zn10  Zn    Zn3+2 0.500000 0.500000 0.549800 0.935342
Zn11  Zn    Zn3+2 0.000000 0.000000 0.950200 0.927230
Zn12  Zn    Zn3+2 0.000000 1.000000 0.049800 0.927187
O49   O     O_3   0.393996 0.867802 0.795264 -0.648540
C137  C     C_3   0.432027 0.816112 0.804908 0.069377
H17   H     H_    0.414346 0.794822 0.836050 0.160400
H18   H     H_    0.481273 0.828609 0.811483 0.122334
C138  C     C_3   0.428216 0.768041 0.767560 -0.292877
H19   H     H_    0.378950 0.757561 0.760270 0.241267
H20   H     H_    0.450016 0.786826 0.736965 0.238774
C139  C     C_3   0.461349 0.708272 0.780345 -1.004299
H21   H     H_    0.511128 0.717431 0.786541 0.269650
H22   H     H_    0.457223 0.674361 0.752810 0.274272
H23   H     H_    0.440275 0.687857 0.810674 0.265541
O50   O     O_3   0.884719 0.624236 0.795404 -0.649420
C140  C     C_3   0.828187 0.594622 0.805986 0.068216
H24   H     H_    0.811164 0.615194 0.837521 0.160570
H25   H     H_    0.832963 0.543879 0.812262 0.120935
C141  C     C_3   0.780043 0.606291 0.769527 -0.290929
H26   H     H_    0.777573 0.656671 0.762185 0.238432
H27   H     H_    0.793803 0.581582 0.738735 0.238920
C142  C     C_3   0.716215 0.583479 0.783526 -1.002665
H28   H     H_    0.717490 0.533016 0.790591 0.266633
H29   H     H_    0.682659 0.592063 0.756254 0.270054
H30   H     H_    0.700342 0.608530 0.813658 0.265402
O51   O     O_3   0.605599 0.132627 0.795036 -0.648487
C143  C     C_3   0.567400 0.184241 0.804400 0.069145
H31   H     H_    0.585190 0.205918 0.835343 0.160578
H32   H     H_    0.518267 0.171553 0.811196 0.122554
C144  C     C_3   0.570710 0.231981 0.766702 -0.293200
H33   H     H_    0.619870 0.242670 0.759228 0.241665
H34   H     H_    0.548824 0.212789 0.736289 0.238395
C145  C     C_3   0.537309 0.291680 0.779130 -1.003573
H35   H     H_    0.487635 0.282285 0.785544 0.269615
H36   H     H_    0.541012 0.325318 0.751321 0.273767
H37   H     H_    0.558490 0.312543 0.809239 0.265572
O52   O     O_3   0.114941 0.375390 0.795803 -0.649394
C146  C     C_3   0.171466 0.404983 0.806429 0.068197
H38   H     H_    0.188392 0.384452 0.838066 0.160540
H39   H     H_    0.166720 0.455742 0.812536 0.120905
C147  C     C_3   0.219693 0.393215 0.770118 -0.290982
H40   H     H_    0.222155 0.342819 0.762944 0.238283
H41   H     H_    0.206023 0.417869 0.739216 0.239067
C148  C     C_3   0.283494 0.416024 0.784196 -1.002435
H42   H     H_    0.282227 0.466502 0.791094 0.266627
H43   H     H_    0.317116 0.407365 0.757032 0.269934
H44   H     H_    0.299274 0.391028 0.814446 0.265421
O53   O     O_3   0.386013 0.124698 0.203801 -0.651397
C149  C     C_3   0.416254 0.182565 0.202880 0.100641
H45   H     H_    0.461592 0.178720 0.185492 0.127660
H46   H     H_    0.423897 0.200309 0.237237 0.175791
C150  C     C_3   0.375824 0.228804 0.177735 -0.324625
H47   H     H_    0.368065 0.211907 0.143278 0.219476
H48   H     H_    0.330259 0.232641 0.194569 0.227376
C151  C     C_3   0.405911 0.292629 0.175867 -0.983736
H49   H     H_    0.413066 0.310901 0.209997 0.268855
H50   H     H_    0.375420 0.325050 0.157400 0.264416
H51   H     H_    0.451118 0.290058 0.158488 0.263916
O54   O     O_3   0.883792 0.376702 0.204495 -0.649270
C152  C     C_3   0.827646 0.406967 0.193750 0.067798
H52   H     H_    0.810272 0.386292 0.162332 0.160649
H53   H     H_    0.833116 0.457567 0.187190 0.121365
C153  C     C_3   0.779416 0.396375 0.230268 -0.290782
H54   H     H_    0.776116 0.346096 0.237797 0.238776
H55   H     H_    0.793667 0.421068 0.260966 0.238517
C154  C     C_3   0.715960 0.420174 0.216187 -1.002570
H56   H     H_    0.718076 0.470560 0.208943 0.266563
H57   H     H_    0.682328 0.412357 0.243490 0.269768
H58   H     H_    0.699600 0.395190 0.186147 0.265504
O55   O     O_3   0.608485 0.869778 0.205018 -0.648947
C155  C     C_3   0.571778 0.817141 0.195462 0.068573
H59   H     H_    0.590518 0.795849 0.164690 0.160686
H60   H     H_    0.522426 0.828530 0.188277 0.122955
C156  C     C_3   0.575855 0.769606 0.233264 -0.293318
H61   H     H_    0.625181 0.760209 0.241110 0.241734
H62   H     H_    0.553114 0.788309 0.263487 0.238107
C157  C     C_3   0.544148 0.709030 0.220699 -1.003413
H63   H     H_    0.494340 0.717133 0.213878 0.269638
H64   H     H_    0.548331 0.675598 0.248606 0.273759
H65   H     H_    0.566251 0.688607 0.190799 0.265481
O56   O     O_3   0.116332 0.623383 0.204347 -0.649382
C158  C     C_3   0.172563 0.593188 0.193848 0.068170
H66   H     H_    0.189879 0.613666 0.162320 0.160598
H67   H     H_    0.167243 0.542520 0.187597 0.121112
C159  C     C_3   0.220758 0.604216 0.230352 -0.291214
H68   H     H_    0.223800 0.654549 0.237643 0.238524
H69   H     H_    0.206641 0.579606 0.261155 0.238844
C160  C     C_3   0.284344 0.580684 0.216450 -1.002053
H70   H     H_    0.282492 0.530254 0.209435 0.266870
H71   H     H_    0.317939 0.588812 0.243753 0.269769
H72   H     H_    0.300577 0.605610 0.186310 0.265373
O57   O     O_3   0.892921 0.368776 0.295464 -0.652751
C161  C     C_3   0.929775 0.316532 0.305894 0.075263
H73   H     H_    0.914672 0.299357 0.338992 0.156402
H74   H     H_    0.980172 0.326977 0.308978 0.121756
C162  C     C_3   0.919595 0.265204 0.271571 -0.294547
H75   H     H_    0.869224 0.257026 0.267296 0.236078
H76   H     H_    0.939233 0.279626 0.239059 0.242716
C163  C     C_3   0.950483 0.204913 0.285941 -1.003260
H77   H     H_    0.001210 0.211518 0.289048 0.270065
H78   H     H_    0.941487 0.168562 0.260699 0.276639
H79   H     H_    0.931528 0.189034 0.318323 0.266941
O58   O     O_3   0.377844 0.117845 0.295238 -0.646095
C164  C     C_3   0.322706 0.085676 0.305825 0.077958
H80   H     H_    0.304465 0.105878 0.337131 0.162333
H81   H     H_    0.329931 0.035337 0.312546 0.120978
C165  C     C_3   0.274277 0.094394 0.269101 -0.297201
H82   H     H_    0.269521 0.144467 0.261267 0.240968
H83   H     H_    0.289312 0.069775 0.238581 0.239880
C166  C     C_3   0.211472 0.068891 0.283112 -1.002023
H84   H     H_    0.214867 0.018501 0.290085 0.269338
H85   H     H_    0.177543 0.076160 0.255882 0.275562
H86   H     H_    0.194577 0.093167 0.313281 0.268099
O59   O     O_3   0.107223 0.631279 0.295306 -0.653076
C167  C     C_3   0.070454 0.683592 0.305561 0.075854
H87   H     H_    0.085176 0.700416 0.338819 0.156098
H88   H     H_    0.019961 0.673381 0.308199 0.121575
C168  C     C_3   0.081362 0.735145 0.271434 -0.294791
H89   H     H_    0.131830 0.743082 0.267568 0.235512
H90   H     H_    0.062078 0.721096 0.238740 0.243087
C169  C     C_3   0.050626 0.795488 0.285701 -1.003273
H91   H     H_    0.999829 0.789134 0.288429 0.270161
H92   H     H_    0.060125 0.831993 0.260601 0.276661
H93   H     H_    0.069272 0.811002 0.318252 0.266892
O60   O     O_3   0.620026 0.880620 0.295671 -0.649219
C170  C     C_3   0.675504 0.912911 0.305032 0.071628
H94   H     H_    0.694558 0.893490 0.336403 0.162877
H95   H     H_    0.668564 0.963435 0.311049 0.122096
C171  C     C_3   0.722887 0.903085 0.267827 -0.294816
H96   H     H_    0.727557 0.852773 0.260919 0.241202
H97   H     H_    0.706890 0.926614 0.237048 0.238451
C172  C     C_3   0.786007 0.929199 0.280465 -1.001068
H98   H     H_    0.782663 0.979792 0.286527 0.269018
H99   H     H_    0.819162 0.921129 0.252911 0.275332
H100  H     H_    0.803840 0.905961 0.310845 0.267995
O61   O     O_3   0.893777 0.631942 0.704419 -0.653177
C173  C     C_3   0.931026 0.683900 0.694013 0.076255
H101  H     H_    0.916585 0.700705 0.660650 0.156053
H102  H     H_    0.981448 0.673272 0.691535 0.121580
C174  C     C_3   0.920396 0.735685 0.727891 -0.294939
H103  H     H_    0.869981 0.744101 0.731570 0.235181
H104  H     H_    0.939359 0.721589 0.760701 0.243427
C175  C     C_3   0.951773 0.795683 0.713464 -1.003410
H105  H     H_    0.002530 0.788861 0.710955 0.270135
H106  H     H_    0.942424 0.832388 0.738364 0.276764
H107  H     H_    0.933497 0.811213 0.680776 0.266893
O62   O     O_3   0.382113 0.878237 0.704585 -0.648992
C176  C     C_3   0.325981 0.909265 0.694963 0.070502
H108  H     H_    0.306896 0.888510 0.664089 0.163247
H109  H     H_    0.332077 0.959665 0.687930 0.122814
C177  C     C_3   0.279141 0.899935 0.732622 -0.295415
H110  H     H_    0.275148 0.849778 0.740391 0.241808
H111  H     H_    0.295200 0.924512 0.762906 0.237496
C178  C     C_3   0.215576 0.924970 0.719954 -1.000016
H112  H     H_    0.218287 0.975394 0.712955 0.268903
H113  H     H_    0.182873 0.917421 0.747882 0.275039
H114  H     H_    0.197607 0.900604 0.690128 0.267868
O63   O     O_3   0.106014 0.367781 0.704815 -0.653241
C179  C     C_3   0.068833 0.315796 0.694434 0.076668
H115  H     H_    0.083113 0.299233 0.661023 0.155960
H116  H     H_    0.018362 0.326290 0.692083 0.121438
C180  C     C_3   0.079817 0.263843 0.728239 -0.295088
H117  H     H_    0.130279 0.255563 0.731811 0.234971
H118  H     H_    0.061004 0.277687 0.761101 0.243546
C181  C     C_3   0.048552 0.203832 0.713813 -1.003259
H119  H     H_    0.997761 0.210510 0.711395 0.270183
H120  H     H_    0.058146 0.167009 0.738663 0.276727
H121  H     H_    0.066705 0.188552 0.681080 0.266917
O64   O     O_3   0.617744 0.121941 0.704423 -0.649104
C182  C     C_3   0.673952 0.090989 0.695033 0.070531
H122  H     H_    0.693035 0.111649 0.664100 0.163108
H123  H     H_    0.667976 0.040545 0.688213 0.122725
C183  C     C_3   0.720716 0.100590 0.732730 -0.295282
H124  H     H_    0.724577 0.150789 0.740289 0.241823
H125  H     H_    0.704671 0.076103 0.763093 0.237462
C184  C     C_3   0.784359 0.075659 0.720278 -1.000287
H126  H     H_    0.781782 0.025199 0.713495 0.268924
H127  H     H_    0.817007 0.083411 0.748227 0.275028
H128  H     H_    0.802308 0.099941 0.690376 0.267868
O65   O     O_3   0.583845 0.185767 0.446590 -0.593536
C185  C     C_3   0.643715 0.190733 0.464929 -0.230308
H129  H     H_    0.644708 0.176750 0.500597 0.146258
H130  H     H_    0.662496 0.238291 0.461062 0.192394
H131  H     H_    0.674861 0.158954 0.446635 0.167972
O66   O     O_3   0.189834 0.387132 0.493681 -0.573663
C186  C     C_3   0.191374 0.358434 0.535863 -0.223086
H132  H     H_    0.170114 0.388304 0.561855 0.142037
H133  H     H_    0.239322 0.345657 0.545566 0.183129
H134  H     H_    0.164006 0.315095 0.534226 0.163964
O67   O     O_3   0.418049 0.814679 0.445096 -0.593457
C187  C     C_3   0.357589 0.809211 0.462265 -0.228744
H135  H     H_    0.355254 0.823105 0.497885 0.146103
H136  H     H_    0.339308 0.761515 0.458102 0.192450
H137  H     H_    0.326863 0.840798 0.443341 0.168024
O68   O     O_3   0.810212 0.612838 0.492915 -0.573647
C188  C     C_3   0.808841 0.641952 0.534891 -0.222238
H138  H     H_    0.830072 0.612287 0.561101 0.142164
H139  H     H_    0.760952 0.654956 0.544506 0.183075
H140  H     H_    0.836322 0.685199 0.532938 0.163635
O69   O     O_3   0.582194 0.814433 0.554696 -0.593697
C189  C     C_3   0.642600 0.809090 0.537414 -0.228627
H141  H     H_    0.644794 0.823083 0.501778 0.146178
H142  H     H_    0.660953 0.761406 0.541577 0.192284
H143  H     H_    0.673356 0.840663 0.556258 0.168008
O70   O     O_3   0.189784 0.612913 0.506457 -0.573488
C190  C     C_3   0.191129 0.641671 0.464294 -0.222394
H144  H     H_    0.169830 0.611805 0.438294 0.142027
H145  H     H_    0.239020 0.654542 0.454561 0.183028
H146  H     H_    0.163695 0.684962 0.465983 0.163672
O71   O     O_3   0.416762 0.185429 0.553799 -0.592990
C191  C     C_3   0.356686 0.190728 0.535863 -0.229226
H147  H     H_    0.355191 0.176813 0.500223 0.146071
H148  H     H_    0.338179 0.238368 0.539804 0.192431
H149  H     H_    0.325627 0.159056 0.554397 0.168158
O72   O     O_3   0.810200 0.387186 0.507237 -0.573652
C192  C     C_3   0.808575 0.357943 0.465311 -0.223373
H150  H     H_    0.829683 0.387515 0.439016 0.142137
H151  H     H_    0.760625 0.344940 0.455803 0.183228
H152  H     H_    0.836038 0.314683 0.467281 0.163813
O73   O     O_3   0.070530 0.684554 0.937754 -0.599211
C193  C     C_3   0.133798 0.688630 0.948796 -0.230934
H153  H     H_    0.142674 0.675391 0.984047 0.148657
H154  H     H_    0.152228 0.735714 0.942135 0.186399
H155  H     H_    0.159790 0.655842 0.927500 0.169314
O74   O     O_3   0.684404 0.930692 0.937025 -0.599724
C194  C     C_3   0.688479 0.867132 0.947508 -0.233252
H156  H     H_    0.675157 0.857597 0.982634 0.149616
H157  H     H_    0.735523 0.848823 0.940834 0.186489
H158  H     H_    0.655821 0.841478 0.925877 0.168904
O75   O     O_3   0.929393 0.315686 0.937683 -0.599097
C195  C     C_3   0.866156 0.311532 0.948746 -0.230735
H159  H     H_    0.857363 0.324627 0.983997 0.148635
H160  H     H_    0.847734 0.264465 0.942096 0.186436
H161  H     H_    0.840093 0.344391 0.927454 0.169277
O76   O     O_3   0.315489 0.069351 0.936912 -0.599966
C196  C     C_3   0.311468 0.132906 0.947280 -0.233204
H162  H     H_    0.324880 0.142413 0.982385 0.149749
H163  H     H_    0.264415 0.151239 0.940585 0.186447
H164  H     H_    0.344085 0.158559 0.925593 0.169091
O77   O     O_3   0.070744 0.315439 0.062211 -0.599207
C197  C     C_3   0.133980 0.311341 0.051142 -0.231735
H165  H     H_    0.142761 0.324561 0.015884 0.148913
H166  H     H_    0.152419 0.264258 0.057809 0.186008
H167  H     H_    0.160041 0.344133 0.072418 0.169214
O78   O     O_3   0.684535 0.069452 0.062897 -0.599889
C198  C     C_3   0.688521 0.132993 0.052342 -0.232225
H168  H     H_    0.675148 0.142440 0.017200 0.149633
H169  H     H_    0.735550 0.151374 0.059015 0.186334
H170  H     H_    0.655857 0.158656 0.073930 0.169573
O79   O     O_3   0.929584 0.684305 0.062375 -0.599110
C199  C     C_3   0.866313 0.688432 0.051345 -0.231061
H171  H     H_    0.857420 0.675337 0.016098 0.148632
H172  H     H_    0.847892 0.735491 0.058007 0.186405
H173  H     H_    0.840325 0.655561 0.072649 0.169234
O80   O     O_3   0.315617 0.930741 0.063156 -0.599736
C200  C     C_3   0.311560 0.867176 0.052825 -0.233013
H174  H     H_    0.324883 0.857629 0.017721 0.149675
H175  H     H_    0.264522 0.848855 0.059545 0.186482
H176  H     H_    0.344228 0.841543 0.074516 0.169137
O81   O     O_3   0.578018 0.315025 0.442509 -0.603813
C201  C     C_3   0.554954 0.311430 0.398606 0.147318
H177  H     H_    0.504570 0.322389 0.397260 0.134850
H178  H     H_    0.562621 0.264329 0.384783 0.174490
C202  C     C_3   0.589378 0.358295 0.369711 -0.318080
H179  H     H_    0.582565 0.405546 0.383456 0.239994
H180  H     H_    0.639638 0.347655 0.370223 0.222208
C203  C     C_3   0.566303 0.356937 0.321758 -1.003490
H181  H     H_    0.573866 0.310439 0.307019 0.270575
H182  H     H_    0.592015 0.391633 0.301754 0.267212
H183  H     H_    0.516278 0.368358 0.320432 0.265006
O82   O     O_3   0.317113 0.390135 0.486312 -0.615179
C204  C     C_3   0.315953 0.375210 0.440579 0.133495
H184  H     H_    0.337819 0.412769 0.420600 0.135688
H185  H     H_    0.267693 0.368011 0.428748 0.168882
C205  C     C_3   0.352086 0.315355 0.433254 -0.332484
H186  H     H_    0.400290 0.321831 0.444725 0.223066
H187  H     H_    0.330797 0.277474 0.453029 0.219748
C206  C     C_3   0.353091 0.296914 0.384307 -0.987529
H188  H     H_    0.305324 0.289160 0.371975 0.272431
H189  H     H_    0.379805 0.253380 0.380348 0.274191
H190  H     H_    0.375512 0.333658 0.364092 0.262205
O83   O     O_3   0.425059 0.685657 0.440155 -0.602907
C207  C     C_3   0.450707 0.689961 0.397038 0.146828
H191  H     H_    0.500638 0.677073 0.397121 0.137376
H192  H     H_    0.445732 0.737793 0.383756 0.173462
C208  C     C_3   0.416312 0.645576 0.366246 -0.318464
H193  H     H_    0.420030 0.597666 0.379529 0.237692
H194  H     H_    0.366618 0.658521 0.365048 0.222462
C209  C     C_3   0.442845 0.647303 0.319249 -1.003626
H195  H     H_    0.439039 0.694665 0.305075 0.275269
H196  H     H_    0.416734 0.614868 0.297663 0.268802
H197  H     H_    0.492167 0.633055 0.319635 0.263642
O84   O     O_3   0.682909 0.609920 0.485903 -0.616669
C210  C     C_3   0.683648 0.624656 0.440103 0.133207
H198  H     H_    0.660858 0.587368 0.420468 0.136724
H199  H     H_    0.731823 0.631006 0.427874 0.168018
C211  C     C_3   0.648411 0.685095 0.432777 -0.331460
H200  H     H_    0.600477 0.679682 0.445045 0.221993
H201  H     H_    0.670979 0.722818 0.451917 0.219916
C212  C     C_3   0.646232 0.702942 0.383683 -0.992589
H202  H     H_    0.693739 0.709678 0.370583 0.272720
H203  H     H_    0.620170 0.746891 0.379717 0.274232
H204  H     H_    0.622554 0.666365 0.364115 0.261724
O85   O     O_3   0.575337 0.685368 0.559517 -0.603219
C213  C     C_3   0.549964 0.689486 0.602718 0.147136
H205  H     H_    0.499954 0.676887 0.602778 0.137165
H206  H     H_    0.555300 0.737188 0.616062 0.173732
C214  C     C_3   0.584307 0.644673 0.633315 -0.318196
H207  H     H_    0.580209 0.596882 0.619970 0.237942
H208  H     H_    0.634086 0.657309 0.634352 0.222371
C215  C     C_3   0.558118 0.646215 0.680408 -1.005065
H209  H     H_    0.562365 0.693437 0.694656 0.275628
H210  H     H_    0.584146 0.613424 0.701837 0.268833
H211  H     H_    0.508695 0.632318 0.680172 0.263791
O86   O     O_3   0.317068 0.610032 0.513635 -0.616554
C216  C     C_3   0.316262 0.624907 0.559382 0.133156
H212  H     H_    0.339000 0.587667 0.579176 0.136565
H213  H     H_    0.268067 0.631317 0.571541 0.168013
C217  C     C_3   0.351516 0.685347 0.566528 -0.331629
H214  H     H_    0.399503 0.679840 0.554407 0.221983
H215  H     H_    0.329062 0.723005 0.547175 0.219793
C218  C     C_3   0.353487 0.703404 0.615547 -0.992549
H216  H     H_    0.305926 0.710232 0.628507 0.272384
H217  H     H_    0.379563 0.747352 0.619380 0.274104
H218  H     H_    0.377051 0.666893 0.635328 0.262099
O87   O     O_3   0.423248 0.314507 0.558511 -0.603016
C219  C     C_3   0.447600 0.310474 0.602051 0.147121
H219  H     H_    0.497654 0.322886 0.602736 0.136770
H220  H     H_    0.441769 0.262835 0.615503 0.173446
C220  C     C_3   0.412702 0.355526 0.632005 -0.317801
H221  H     H_    0.417179 0.403232 0.618470 0.238914
H222  H     H_    0.362881 0.342995 0.632508 0.221898
C221  C     C_3   0.437890 0.354210 0.679414 -1.004574
H223  H     H_    0.433263 0.307080 0.693854 0.275255
H224  H     H_    0.411473 0.387173 0.700355 0.268554
H225  H     H_    0.487334 0.368029 0.679697 0.263829
O88   O     O_3   0.682895 0.390198 0.514442 -0.614932
C222  C     C_3   0.683851 0.375725 0.560287 0.133919
H226  H     H_    0.661877 0.413471 0.579937 0.136041
H227  H     H_    0.732058 0.368673 0.572288 0.168205
C223  C     C_3   0.647711 0.315914 0.567964 -0.330531
H228  H     H_    0.599681 0.322109 0.556032 0.223235
H229  H     H_    0.669351 0.277755 0.548746 0.219477
C224  C     C_3   0.645975 0.298257 0.617099 -0.993113
H230  H     H_    0.693562 0.290826 0.629901 0.272291
H231  H     H_    0.619300 0.254727 0.621310 0.274423
H232  H     H_    0.623146 0.335258 0.636753 0.262481
O89   O     O_3   0.065562 0.813904 0.934627 -0.626194
C225  C     C_3   0.033044 0.811258 0.893869 0.162266
H233  H     H_    0.982893 0.821666 0.898423 0.131393
H234  H     H_    0.037972 0.764581 0.878719 0.175700
C226  C     C_3   0.060165 0.859313 0.862034 -0.339499
H235  H     H_    0.055928 0.906182 0.876948 0.237370
H236  H     H_    0.110017 0.849424 0.856671 0.220452
C227  C     C_3   0.026868 0.858672 0.817294 -1.009127
H237  H     H_    0.031498 0.812537 0.801390 0.278187
H238  H     H_    0.047514 0.894007 0.794955 0.272649
H239  H     H_    0.977097 0.869534 0.821800 0.268234
O90   O     O_3   0.813537 0.935913 0.933801 -0.625037
C228  C     C_3   0.810746 0.969405 0.893408 0.160350
H240  H     H_    0.821433 0.019466 0.898506 0.130318
H241  H     H_    0.764004 0.965044 0.878315 0.174928
C229  C     C_3   0.858357 0.942733 0.861155 -0.338125
H242  H     H_    0.905304 0.946644 0.875943 0.236041
H243  H     H_    0.848361 0.892914 0.855411 0.221320
C230  C     C_3   0.857359 0.976841 0.816682 -1.006147
H244  H     H_    0.811287 0.972224 0.800712 0.275966
H245  H     H_    0.892736 0.956750 0.794206 0.271957
H246  H     H_    0.867883 0.026663 0.821599 0.267454
O91   O     O_3   0.934424 0.186345 0.934532 -0.626255
C231  C     C_3   0.966887 0.189073 0.893783 0.162150
H247  H     H_    0.017028 0.178571 0.898357 0.131496
H248  H     H_    0.962009 0.235809 0.878612 0.175599
C232  C     C_3   0.939647 0.141158 0.861969 -0.339563
H249  H     H_    0.943811 0.094240 0.876919 0.237323
H250  H     H_    0.889809 0.151155 0.856573 0.220493
C233  C     C_3   0.972905 0.141860 0.817247 -1.008975
H251  H     H_    0.968356 0.188051 0.801312 0.278214
H252  H     H_    0.952167 0.106632 0.794920 0.272611
H253  H     H_    0.022657 0.130880 0.821788 0.268277
O92   O     O_3   0.186341 0.064168 0.933720 -0.625034
C234  C     C_3   0.189114 0.030741 0.893373 0.160467
H254  H     H_    0.178489 0.980661 0.898536 0.130300
H255  H     H_    0.235828 0.035177 0.878285 0.175111
C235  C     C_3   0.141429 0.057411 0.861071 -0.338217
H256  H     H_    0.094501 0.053371 0.875834 0.235932
H257  H     H_    0.151326 0.107265 0.855295 0.221395
C236  C     C_3   0.142459 0.023431 0.816622 -1.006192
H258  H     H_    0.188499 0.028206 0.800664 0.275989
H259  H     H_    0.107004 0.043499 0.794119 0.271906
H260  H     H_    0.132066 0.973568 0.821568 0.267473
O93   O     O_3   0.065798 0.186072 0.065324 -0.626475
C237  C     C_3   0.033447 0.188727 0.106118 0.161777
H261  H     H_    0.983285 0.178289 0.101620 0.131516
H262  H     H_    0.038411 0.235414 0.121250 0.175538
C238  C     C_3   0.060724 0.140708 0.137939 -0.339705
H263  H     H_    0.056469 0.093830 0.123038 0.237463
H264  H     H_    0.110588 0.150639 0.143254 0.219749
C239  C     C_3   0.027590 0.141339 0.182710 -1.009004
H265  H     H_    0.032253 0.187476 0.198611 0.277865
H266  H     H_    0.048330 0.106013 0.205033 0.272337
H267  H     H_    0.977809 0.130453 0.178245 0.268234
O94   O     O_3   0.813696 0.064436 0.066001 -0.625236
C240  C     C_3   0.811046 0.031164 0.106489 0.160522
H268  H     H_    0.821667 0.981066 0.101522 0.130434
H269  H     H_    0.764374 0.035648 0.121625 0.175063
C241  C     C_3   0.858818 0.057984 0.138603 -0.338028
H270  H     H_    0.905695 0.053996 0.123758 0.236291
H271  H     H_    0.848857 0.107831 0.144239 0.221271
C242  C     C_3   0.858023 0.024091 0.183159 -1.006923
H272  H     H_    0.812009 0.028752 0.199161 0.276345
H273  H     H_    0.893467 0.044317 0.205552 0.272027
H274  H     H_    0.868574 0.974253 0.178351 0.267515
O95   O     O_3   0.934568 0.813648 0.065494 -0.626222
C243  C     C_3   0.967139 0.810974 0.106233 0.162003
H275  H     H_    0.017258 0.821519 0.101638 0.131544
H276  H     H_    0.962343 0.764242 0.121420 0.175413
C244  C     C_3   0.939933 0.858883 0.138042 -0.339372
H277  H     H_    0.943979 0.905792 0.123063 0.237302
H278  H     H_    0.890127 0.848819 0.143476 0.220549
C245  C     C_3   0.973334 0.858284 0.182742 -1.008764
H279  H     H_    0.968920 0.812100 0.198705 0.278061
H280  H     H_    0.952602 0.893498 0.205064 0.272507
H281  H     H_    0.023052 0.869350 0.178163 0.268164
O96   O     O_3   0.186462 0.935911 0.066338 -0.625153
C246  C     C_3   0.189322 0.969324 0.106688 0.160574
H282  H     H_    0.178595 0.019387 0.101541 0.130089
H283  H     H_    0.236094 0.964962 0.121741 0.175778
C247  C     C_3   0.141793 0.942558 0.139019 -0.338109
H284  H     H_    0.094799 0.946613 0.124320 0.235735
H285  H     H_    0.151738 0.892696 0.144725 0.221553
C248  C     C_3   0.143015 0.976437 0.183504 -1.006945
H286  H     H_    0.189126 0.971627 0.199395 0.276787
H287  H     H_    0.107663 0.956320 0.206032 0.272029
H288  H     H_    0.132602 0.026310 0.178624 0.267550

loop_
_geom_bond_atom_site_label_1
_geom_bond_atom_site_label_2
_ccdc_geom_bond_type
C29   C133  A    
C21   C26   A    
C230  H245  S    
C61   O25   A    
C247  H284  S    
C37   C69   A    
C60   O22   A    
C224  H230  S    
C158  H66   S    
C24   C27   A    
C7    C55   S    
O79   C199  S    
O82   C204  S    
C8    C56   S    
C203  H182  S    
C105  C131  A    
C14   C132  A    
O81   C201  S    
C202  C203  S    
C106  C132  A    
C225  C226  S    
C176  H108  S    
C98   H2    S    
C191  H147  S    
C10   C124  A    
C231  H248  S    
C221  H223  S    
C85   C96   S    
O41   Zn11  S    
C12   C126  A    
C147  H41   S    
C87   C94   S    
C200  H176  S    
O90   C228  S    
C229  H243  S    
C192  H150  S    
C41   O73   S    
C243  H275  S    
C8    O16   A    
C104  C116  A    
C208  H193  S    
C227  H238  S    
C217  H214  S    
C226  H236  S    
C9    C121  A    
C219  C220  S    
C84   C91   S    
C57   O17   A    
C26   C130  A    
C227  H239  S    
C107  C129  A    
C99   C121  A    
C248  H288  S    
C58   O18   A    
C147  C148  S    
C88   C95   S    
C240  H269  S    
C106  C118  A    
C17   C30   A    
C242  H273  S    
O9    Zn5   S    
C6    C54   S    
C19   C32   A    
C241  H271  S    
C179  H115  S    
O1    Zn1   S    
C210  H199  S    
C153  H55   S    
C43   C75   A    
O27   Zn7   S    
C145  H37   S    
C63   O31   A    
C169  H91   S    
O59   C167  S    
C1    O7    A    
C112  C120  A    
C31   O63   S    
C228  C229  S    
C185  H130  S    
C90   O34   A    
C247  C248  S    
C110  H14   S    
C211  H200  S    
O89   C225  S    
C91   O39   A    
C19   O51   S    
C165  H82   S    
C5    O9    A    
O24   Zn2   S    
C170  C171  S    
C237  H262  S    
C109  H13   S    
C244  C245  S    
C175  H105  S    
C222  C223  S    
C209  H195  S    
C178  H112  S    
C60   C117  S    
C206  H189  S    
C167  C168  S    
C155  H59   S    
O40   Zn10  S    
C72   C84   A    
C170  H95   S    
C18   C122  A    
C199  H172  S    
C61   O27   A    
C176  C177  S    
C152  H53   S    
C35   C51   A    
O65   C185  S    
C60   O24   A    
C224  H232  S    
O33   Zn9   S    
C110  C120  A    
C79   C85   A    
C237  C238  S    
C150  H48   S    
C14   C130  A    
C146  C147  S    
C225  H233  S    
C157  H65   S    
C94   O42   A    
C191  H149  S    
C111  C133  A    
C112  C134  A    
C33   C49   A    
C10   C122  A    
C103  H7    S    
C232  C233  S    
C36   C68   A    
C12   C128  A    
C28   O60   S    
C79   O95   S    
O38   Zn10  S    
C80   C88   A    
C188  H138  S    
C157  H64   S    
C214  C215  S    
C21   O53   S    
C214  H207  S    
C231  C232  S    
O26   Zn6   S    
C58   C119  S    
C9    C123  A    
C142  H30   S    
O30   Zn8   S    
C218  H218  S    
C196  H162  S    
C70   C82   A    
C193  H154  S    
O18   Zn2   S    
C98   C114  A    
O66   C186  S    
C170  H94   S    
C37   O69   S    
C38   O70   S    
C215  H210  S    
C235  H256  S    
O34   Zn9   S    
C177  H110  S    
C198  H169  S    
C39   C71   A    
O93   C237  S    
O13   Zn5   S    
C181  H121  S    
C241  C242  S    
C108  H12   S    
C197  H166  S    
C166  H85   S    
C67   C83   A    
C174  H103  S    
C63   O29   A    
C109  C135  A    
O31   Zn7   S    
C213  H206  S    
O71   C191  S    
O29   Zn5   S    
C16   C134  A    
C140  C141  S    
C237  H261  S    
C47   O79   S    
C80   O96   S    
O73   C193  S    
C207  H191  S    
C98   C124  A    
C137  H17   S    
C19   C123  A    
C82   C89   S    
C233  H252  S    
C44   O76   S    
C165  C166  S    
O21   Zn1   S    
C218  H217  S    
C219  H220  S    
O56   C158  S    
C102  C128  A    
O37   Zn10  S    
C153  C154  S    
C148  H42   S    
C137  H18   S    
C164  H81   S    
C197  H167  S    
C39   O71   S    
O67   C187  S    
C175  H107  S    
C143  H31   S    
C69   O85   S    
O53   C149  S    
C44   C76   A    
C95   O47   A    
C245  H279  S    
C2    C50   S    
C81   C92   S    
O35   Zn9   S    
C143  H32   S    
C151  H49   S    
C30   C134  A    
C22   C25   A    
C190  H145  S    
C184  H128  S    
O78   C198  S    
O46   Zn12  S    
C108  C130  A    
C36   C52   A    
C159  H68   S    
C64   O30   A    
C2    O2    A    
C216  H212  S    
C220  C221  S    
C160  H71   S    
C99   H3    S    
O3    Zn3   S    
C97   H1    S    
C139  H21   S    
C163  H78   S    
C140  H24   S    
C245  H280  S    
C172  H99   S    
C192  H152  S    
C161  H74   S    
C74   O90   S    
C33   O65   S    
C154  H58   S    
C100  C114  A    
O68   C188  S    
C223  C224  S    
O12   Zn8   S    
C188  H140  S    
C168  H90   S    
C23   O55   S    
O60   C170  S    
O80   C200  S    
C182  C183  S    
C138  H19   S    
C175  H106  S    
O76   C196  S    
C28   C132  A    
C245  H281  S    
C196  H164  S    
C93   O45   A    
C86   C93   S    
C32   O64   S    
C173  H102  S    
C35   C67   A    
O51   C143  S    
C180  C181  S    
C73   C85   A    
C239  H265  S    
O22   Zn4   S    
C204  H184  S    
C214  H208  S    
C144  H34   S    
C18   C29   A    
C23   C28   A    
O54   C152  S    
C41   C53   A    
C189  H141  S    
C57   C120  S    
C75   C87   A    
O72   C192  S    
C39   C49   A    
C238  C239  S    
C171  H97   S    
C178  H114  S    
O5    Zn1   S    
C16   C136  A    
C173  C174  S    
C236  H260  S    
C43   C55   A    
C91   O35   A    
O52   C146  S    
C247  H285  S    
C40   C72   A    
C221  H225  S    
C89   O33   A    
C36   O68   S    
C187  H135  S    
C201  C202  S    
C150  C151  S    
C210  H198  S    
C92   O36   A    
C174  C175  S    
C171  C172  S    
C143  C144  S    
C47   C53   A    
C191  H148  S    
C213  H205  S    
O64   C182  S    
C62   C115  S    
C97   C123  A    
C221  H224  S    
C151  H51   S    
C140  H25   S    
C107  C117  A    
C208  C209  S    
C205  H187  S    
C179  C180  S    
C89   O37   A    
C103  C125  A    
C20   C124  A    
C41   C73   A    
C230  H244  S    
C64   O32   A    
C12   C13   A    
C45   C55   A    
C217  H215  S    
O77   C197  S    
C216  C217  S    
C93   O41   A    
C220  H221  S    
C3    O5    A    
C13   C129  A    
C45   C77   A    
C102  H6    S    
C194  H157  S    
O83   C207  S    
C243  C244  S    
C71   O87   S    
C66   C82   A    
C184  H127  S    
C71   C81   A    
C38   C70   A    
C183  H124  S    
C224  H231  S    
C167  H87   S    
C222  H226  S    
C155  C156  S    
O50   C140  S    
C141  H27   S    
O74   C194  S    
C182  H122  S    
O49   C137  S    
C163  H77   S    
C138  C139  S    
C238  H263  S    
C199  H171  S    
C169  H92   S    
O8    Zn2   S    
C11   C125  A    
C144  H33   S    
C76   O92   S    
C73   O89   S    
C212  H202  S    
C186  H134  S    
C228  H241  S    
C220  H222  S    
C211  H201  S    
C180  H117  S    
C239  H267  S    
C204  C205  S    
O32   Zn6   S    
C195  H159  S    
C165  H83   S    
O88   C222  S    
O20   Zn4   S    
C141  H26   S    
C110  C136  A    
C234  H255  S    
O95   C243  S    
C244  H278  S    
C169  H93   S    
C26   O58   S    
C209  H196  S    
O55   C155  S    
C112  H16   S    
C70   O86   S    
C18   O50   S    
C211  C212  S    
C7    O13   A    
C230  H246  S    
C198  H168  S    
C176  H109  S    
C152  H52   S    
O10   Zn6   S    
C192  H151  S    
C105  C117  A    
O14   Zn8   S    
C42   O74   S    
C187  H137  S    
C232  H250  S    
C205  C206  S    
C43   O75   S    
C203  H181  S    
O2    Zn2   S    
C92   O38   A    
C146  H39   S    
C225  H234  S    
C40   O72   S    
C209  H197  S    
C42   C74   A    
O91   C231  S    
C68   C84   A    
C159  C160  S    
C31   C135  A    
C145  H36   S    
C32   C136  A    
C3    C51   S    
C141  C142  S    
C246  C247  S    
C90   O40   A    
C183  C184  S    
C147  H40   S    
C236  H258  S    
C46   C78   A    
C8    O12   A    
C229  H242  S    
C96   O46   A    
O75   C195  S    
C195  H161  S    
C103  C115  A    
C101  C127  A    
C234  C235  S    
C107  H11   S    
O36   Zn9   S    
C44   C56   A    
C65   C81   A    
C2    O6    A    
C226  C227  S    
C105  H9    S    
C46   C54   A    
C61   C116  S    
C29   O61   S    
C145  H35   S    
C13   C131  A    
C149  C150  S    
C142  H29   S    
C1    O1    A    
C193  H155  S    
C38   C50   A    
C11   C127  A    
C17   C121  A    
C4    O4    A    
C240  C241  S    
C235  H257  S    
O70   C190  S    
C242  H274  S    
C46   O78   S    
C202  H180  S    
C21   C125  A    
C194  H156  S    
C109  C119  A    
C23   C127  A    
C184  H126  S    
C210  C211  S    
O84   C210  S    
C95   O43   A    
C158  H67   S    
O57   C161  S    
C75   O91   S    
C99   C113  A    
C212  H204  S    
C186  H132  S    
C167  H88   S    
C185  H129  S    
C235  C236  S    
C207  C208  S    
C139  H22   S    
C148  H44   S    
O23   Zn3   S    
C168  H89   S    
O45   Zn12  S    
C42   C54   A    
C223  H229  S    
C164  H80   S    
C223  H228  S    
C7    O11   A    
O11   Zn7   S    
O25   Zn5   S    
C149  H45   S    
C206  H190  S    
C94   O48   A    
O19   Zn3   S    
C181  H120  S    
C182  H123  S    
O17   Zn1   S    
C166  H84   S    
C96   O44   A    
C59   C118  S    
C163  H79   S    
C151  H50   S    
C162  H75   S    
C152  C153  S    
C35   O67   S    
C150  H47   S    
C5    O15   A    
C34   O66   S    
C203  H183  S    
C244  H277  S    
C65   O81   S    
C156  H62   S    
C27   C131  A    
C160  H70   S    
C58   O20   A    
O63   C179  S    
C47   C79   A    
C25   C129  A    
C48   O80   S    
C185  H131  S    
C177  H111  S    
C173  H101  S    
C33   C65   A    
C246  H282  S    
C172  H98   S    
O58   C164  S    
C161  C162  S    
C77   O93   S    
O48   Zn12  S    
C4    C52   S    
C229  C230  S    
C5    C53   S    
C154  H57   S    
C9    C16   A    
C155  H60   S    
C59   O23   A    
C10   C15   A    
C188  H139  S    
C62   O28   A    
C157  H63   S    
C37   C51   A    
C11   C14   A    
C201  H178  S    
C22   C126  A    
C15   C135  A    
C68   O84   S    
C25   O57   S    
C218  H216  S    
O85   C213  S    
C196  H163  S    
C193  H153  S    
O62   C176  S    
C100  H4    S    
C200  H175  S    
O42   Zn11  S    
C181  H119  S    
O44   Zn11  S    
C101  H5    S    
O69   C189  S    
C6    O10   A    
C207  H192  S    
C6    O14   A    
C180  H118  S    
C239  H266  S    
C198  H170  S    
O87   C219  S    
C104  H8    S    
C156  C157  S    
C76   C88   A    
C189  H142  S    
C194  H158  S    
C78   C86   A    
C20   O52   S    
C197  H165  S    
C166  H86   S    
C174  H104  S    
C63   C114  S    
C17   O49   S    
C3    O3    A    
C34   C66   A    
C178  H113  S    
C236  H259  S    
C34   C50   A    
C246  H283  S    
C27   O59   S    
C233  H251  S    
C231  H247  S    
C241  H270  S    
C108  C118  A    
C158  C159  S    
C219  H219  S    
C206  H188  S    
C189  H143  S    
C187  H136  S    
C212  H203  S    
C148  H43   S    
O92   C234  S    
C215  H209  S    
C164  C165  S    
C162  H76   S    
C202  H179  S    
C40   C52   A    
C233  H253  S    
C177  C178  S    
O15   Zn7   S    
C149  H46   S    
O43   Zn11  S    
C179  H116  S    
C69   C83   A    
O7    Zn3   S    
C190  H144  S    
C199  H173  S    
C242  H272  S    
C162  C163  S    
C67   O83   S    
C200  H174  S    
C190  H146  S    
C208  H194  S    
C217  C218  S    
C74   C86   A    
C77   C87   A    
O6    Zn4   S    
C111  C119  A    
C66   O82   S    
C154  H56   S    
C226  H235  S    
C216  H213  S    
C78   O94   S    
C222  H227  S    
C160  H72   S    
O16   Zn6   S    
C213  C214  S    
C153  H54   S    
C97   C113  A    
O4    Zn4   S    
C30   O62   S    
C156  H61   S    
C227  H237  S    
C24   C128  A    
C248  H286  S    
C172  H100  S    
C48   C56   A    
C83   C90   S    
C72   O88   S    
C161  H73   S    
C183  H125  S    
C64   C113  S    
C59   O21   A    
C137  C138  S    
C111  H15   S    
C62   O26   A    
C168  C169  S    
C146  H38   S    
C15   C133  A    
C138  H20   S    
C106  H10   S    
C240  H268  S    
C243  H276  S    
O47   Zn12  S    
C48   C80   A    
O96   C246  S    
C205  H186  S    
C232  H249  S    
C159  H69   S    
C186  H133  S    
C228  H240  S    
C4    O8    A    
C215  H211  S    
C101  C115  A    
O94   C240  S    
C204  H185  S    
C195  H160  S    
C144  C145  S    
C100  C122  A    
C139  H23   S    
C45   O77   S    
C24   O56   S    
C201  H177  S    
C102  C116  A    
O39   Zn10  S    
C234  H254  S    
C22   O54   S    
C104  C126  A    
O86   C216  S    
C238  H264  S    
C171  H96   S    
C142  H28   S    
C248  H287  S    
O61   C173  S    
O28   Zn8   S    
C1    C49   S    
C57   O19   A    
C20   C31   A    
