data_mof_unit_27241.cif
_audit_creation_date              2013-03-05T15:44:47-0500
_audit_creation_method            fapswitch 2.2
_symmetry_space_group_name_H-M    P1
_symmetry_Int_Tables_number       1
_space_group_crystal_system       triclinic
_cell_length_a                    13.0175
_cell_length_b                    13.101952
_cell_length_c                    15.340505
_cell_angle_alpha                 117.269977
_cell_angle_beta                  62.807014
_cell_angle_gamma                 97.969745
_cell_volume                      2060.26287692

loop_
_atom_site_label
_atom_site_type_symbol
_atom_site_description
_atom_site_fract_x
_atom_site_fract_y
_atom_site_fract_z
_atom_type_partial_charge
C1    C     C_R   0.023022 0.834252 0.033342 -0.108958
H1    H     H_    0.070838 0.897460 0.071070 0.096157
N1    N     N_R   0.037310 0.720000 0.995790 -0.052053
C2    C     C_R   0.701439 0.402356 0.209865 -0.012865
N2    N     N_R   0.790790 0.446160 0.152010 -0.080652
C3    C     C_R   0.756981 0.516332 0.891222 -0.067126
H2    H     H_    0.780356 0.539070 0.825941 0.183974
N3    N     N_R   0.824890 0.517960 0.936420 -0.049981
C4    C     C_R   0.939885 0.719541 0.316383 -0.079002
H3    H     H_    0.891348 0.691664 0.378900 0.177456
N4    N     N_R   0.003210 0.648190 0.211380 -0.056647
C5    C     C_R   0.678949 0.417997 0.986893 -0.161651
H4    H     H_    0.637544 0.348236 0.003748 0.095900
N5    N     N_R   0.774330 0.457010 0.995840 -0.041878
C6    C     C_R   0.028193 0.821012 0.223114 -0.133819
H5    H     H_    0.067615 0.890332 0.204251 0.097199
N6    N     N_R   0.053760 0.709140 0.151960 -0.045862
C7    C     C_R   0.804840 0.482797 0.301503 -0.112118
H6    H     H_    0.846108 0.503909 0.353690 0.134391
N7    N     N_R   0.853860 0.498840 0.211410 -0.059317
C8    C     C_R   0.921542 0.750859 0.938774 0.002752
N8    N     N_R   0.974240 0.667310 0.936390 -0.045670
C9    C     C_R   0.943241 0.856700 0.006874 0.015081
C10   C     C_R   0.711916 0.416176 0.301259 0.108577
C11   C     C_R   0.665330 0.454577 0.922667 -0.079213
C12   C     C_R   0.949783 0.830298 0.326108 0.095017
C13   C     C_R   0.339911 0.527840 0.962444 -0.064951
H7    H     H_    0.400797 0.578129 0.926564 0.168566
N9    N     N_R   0.225670 0.542990 0.004160 -0.069198
C14   C     C_R   0.904519 0.199564 0.791265 -0.141770
H8    H     H_    0.846892 0.145598 0.825174 0.093792
N10   N     N_R   0.946240 0.290860 0.848040 -0.047023
C15   C     C_R   0.219662 0.451257 0.681998 -0.126891
H9    H     H_    0.191710 0.408771 0.618634 0.135018
N11   N     N_R   0.146140 0.501160 0.788590 -0.042205
C16   C     C_R   0.077077 0.248344 0.060963 -0.085513
H10   H     H_    0.121117 0.260239 0.109180 0.110702
N12   N     N_R   0.025760 0.332690 0.063610 -0.042675
C17   C     C_R   0.983554 0.165545 0.959212 -0.091936
H11   H     H_    0.946977 0.102846 0.907696 0.102120
N13   N     N_R   0.962690 0.280000 0.004210 -0.051811
C18   C     C_R   0.320564 0.541136 0.776817 -0.055645
H12   H     H_    0.385421 0.587570 0.799946 0.185538
N14   N     N_R   0.209210 0.553840 0.847990 -0.068711
C19   C     C_R   0.258669 0.425958 0.056512 -0.148978
H13   H     H_    0.247848 0.379396 0.102073 0.121150
N15   N     N_R   0.175110 0.482040 0.063580 -0.048952
C20   C     C_R   0.986639 0.299272 0.695820 -0.134204
H14   H     H_    0.004167 0.338586 0.642626 0.120964
N16   N     N_R   0.996790 0.351810 0.788620 -0.044093
Ni1   Ni    Ni4+2 0.130310 0.630310 0.999970 0.218996
Ni2   Ni    Ni4+2 0.869690 0.369690 0.000030 0.212783
Ni3   Ni    Ni4+2 0.985640 0.509470 0.863740 0.268154
Ni4   Ni    Ni4+2 0.014360 0.490530 0.136260 0.237348
C21   C     C_R   0.362149 0.446951 0.986800 0.201419
C22   C     C_R   0.926746 0.203943 0.695837 0.103382
C23   C     C_R   0.332617 0.467187 0.671498 0.103583
C24   C     C_R   0.056725 0.141664 0.992341 0.048426
C25   C     C_R   0.931310 0.042801 0.423601 -0.217836
H15   H     H_    0.971259 0.050006 0.347751 0.150248
C26   C     C_R   0.926958 0.137449 0.516774 -0.105155
H16   H     H_    0.964974 0.213212 0.508623 0.150417
C27   C     C_R   0.888587 0.127129 0.613636 0.028903
C28   C     C_R   0.829707 0.032020 0.622869 -0.309805
H17   H     H_    0.789853 0.025757 0.699204 0.156510
C29   C     C_R   0.833397 0.937251 0.529678 0.761863
C30   C     C_R   0.898736 0.937670 0.427115 -0.081509
C31   C     C_R   0.653947 0.410811 0.478044 -0.276639
C32   C     C_R   0.551140 0.443721 0.574455 0.693291
C33   C     C_R   0.444065 0.413652 0.570492 -0.146160
C34   C     C_R   0.448316 0.325388 0.469724 -0.153770
C35   C     C_R   0.553657 0.297120 0.372617 -0.031077
C36   C     C_R   0.646885 0.364562 0.378719 0.052532
C37   C     C_2   0.473169 0.405296 0.960894 -0.415336
H18   H     H_    0.471366 0.374550 0.016188 0.135330
C38   C     C_2   0.570976 0.430325 0.893896 0.748465
C39   C     C_2   0.883956 0.969999 0.052869 -0.273755
H19   H     H_    0.838408 0.982417 0.013897 0.162880
C40   C     C_2   0.876821 0.056070 0.147444 0.152210
H20   H     H_    0.916384 0.048322 0.193163 0.075315
C41   C     C_2   0.617631 0.337880 0.171130 0.529951
H21   H     H_    0.647805 0.262120 0.092317 0.009819
O1    O     O_2   0.514156 0.368507 0.227172 -0.565310
F1    F     F_    0.781025 0.843955 0.540351 -0.720781
C42   C     C_2   0.765754 0.414179 0.482634 0.569190
H22   H     H_    0.772762 0.471055 0.557598 0.113521
O2    O     O_2   0.850054 0.349271 0.403881 -0.608325
F2    F     F_    0.558719 0.500240 0.670226 -0.684880
C43   C     C_2   0.348808 0.255764 0.467296 0.467316
H23   H     H_    0.302586 0.225213 0.529015 0.022796
O3    O     O_2   0.315066 0.235742 0.399141 -0.564093
C44   C     C_2   0.574048 0.185564 0.273441 0.522449
H24   H     H_    0.505802 0.128936 0.268923 0.075037
O4    O     O_2   0.669602 0.153361 0.195259 -0.648774
F3    F     F_    0.575307 0.459301 0.817946 -0.665587
C45   C     C_2   0.878546 0.734822 0.860427 0.455377
H25   H     H_    0.811028 0.795095 0.883279 0.026483
O5    O     O_2   0.924181 0.658268 0.766681 -0.578187

loop_
_geom_bond_atom_site_label_1
_geom_bond_atom_site_label_2
_geom_bond_distance
_ccdc_geom_bond_type
C13   N9    1.325185 A    
N6    Ni1   1.857739 S    
C41   H21   1.084268 S    
C17   N13   1.338668 A    
N2    N7    1.389633 A    
C39   H19   1.084123 S    
C37   C38   1.334914 D    
N9    N15   1.369213 A    
C7    C10   1.390495 A    
C12   C30   1.463625 S    
C16   H10   1.075749 S    
C7    H6    1.074696 S    
C16   C24   1.391348 A    
C38   F3    1.358006 S    
C42   H22   1.085285 S    
C14   H8    1.080082 S    
C2    C10   1.397267 A    
C13   C21   1.376001 A    
C10   C36   1.498052 S    
C3    C11   1.369206 A    
N11   Ni3   1.858149 S    
C6    H5    1.071370 S    
C20   C22   1.377647 A    
C1    H1    1.074857 S    
C26   C27   1.400978 A    
N10   Ni2   1.857740 S    
C25   C30   1.401854 A    
C21   C37   1.428086 S    
N5    Ni2   1.840675 S    
C2    C41   1.460792 S    
C31   C32   1.389583 A    
N12   Ni4   1.833766 S    
C15   C23   1.400291 A    
N2    Ni2   1.857576 S    
C33   C34   1.425272 A    
C23   C33   1.493080 S    
C43   O3    1.221183 D    
C4    H3    1.074963 S    
N13   Ni2   1.839872 S    
C39   C40   1.338598 D    
C29   C30   1.408000 A    
C25   H15   1.080389 S    
C8    N8    1.348626 A    
C31   C42   1.482656 S    
C26   H16   1.080209 S    
C18   N14   1.332233 A    
C18   C23   1.396302 A    
C41   O1    1.220592 D    
C4    C12   1.382742 A    
N8    Ni3   1.833767 S    
C19   N15   1.332535 A    
C25   C26   1.380285 A    
N16   Ni3   1.834365 S    
C37   H18   1.083800 S    
C42   O2    1.221711 D    
N12   N13   1.389648 A    
N7    Ni4   1.858151 S    
C17   H11   1.080112 S    
N1    Ni1   1.839870 S    
C2    N2    1.344656 A    
C6    C12   1.391862 A    
C3    N3    1.343168 A    
C31   C36   1.401342 A    
C19   H13   1.075838 S    
C17   C24   1.390767 A    
C14   C22   1.383929 A    
C40   H20   1.085039 S    
C45   O5    1.220523 D    
C1    N1    1.340259 A    
C28   C29   1.383818 A    
C34   C43   1.482141 S    
C45   H25   1.084511 S    
C44   O4    1.217367 D    
C15   H9    1.076277 S    
C22   C27   1.456250 S    
C9    C39   1.468730 S    
N11   N14   1.389633 A    
C4    N4    1.329771 A    
N10   N16   1.369199 A    
C32   F2    1.353453 S    
N15   Ni4   1.858171 S    
N14   Ni1   1.857576 S    
N4    Ni4   1.834365 S    
C20   H14   1.079670 S    
C5    N5    1.318034 A    
C1    C9    1.381856 A    
C8    C9    1.388426 A    
C18   H12   1.068819 S    
N9    Ni1   1.840676 S    
C6    N6    1.337071 A    
N4    N6    1.369202 A    
N3    N5    1.369212 A    
C35   C36   1.411754 A    
N3    Ni3   1.858172 S    
C3    H2    1.074224 S    
C8    C45   1.467230 S    
C5    C11   1.359337 A    
C11   C38   1.436347 S    
C28   H17   1.080799 S    
C16   N12   1.344585 A    
C34   C35   1.415942 A    
C14   N10   1.334854 A    
C35   C44   1.490695 S    
C20   N16   1.329156 A    
C44   H24   1.082082 S    
C15   N11   1.334438 A    
C7    N7    1.335836 A    
C32   C33   1.415965 A    
C29   F1    1.355000 S    
C27   C28   1.399295 A    
C5    H4    1.070214 S    
C19   C21   1.372590 A    
C13   H7    1.074285 S    
N1    N8    1.389648 A    
C43   H23   1.085594 S    
