data_mof_unit_28457.cif
_audit_creation_date              2013-03-05T16:23:17-0500
_audit_creation_method            fapswitch 2.2
_symmetry_space_group_name_H-M    P1
_symmetry_Int_Tables_number       1
_space_group_crystal_system       triclinic
_cell_length_a                    27.461066
_cell_length_b                    10.484902
_cell_length_c                    9.751834
_cell_angle_alpha                 89.280146
_cell_angle_beta                  89.621505
_cell_angle_gamma                 89.902179
_cell_volume                      2807.52570158

loop_
_atom_site_label
_atom_site_type_symbol
_atom_site_description
_atom_site_fract_x
_atom_site_fract_y
_atom_site_fract_z
_atom_type_partial_charge
O1    O     O_R   0.500000 0.313960 0.616610 -0.551019
O2    O     O_R   0.500000 0.686040 0.383390 -0.556989
O3    O     O_R   0.500020 0.313950 0.383350 -0.654702
O4    O     O_R   0.499980 0.686050 0.616650 -0.653109
C1    C     C_R   0.500946 0.257650 0.500830 0.942434
C2    C     C_R   0.499355 0.742371 0.499134 0.940807
O5    O     O_R   0.428750 0.500030 0.616610 -0.592732
O6    O     O_R   0.571250 0.499970 0.383390 -0.584205
O7    O     O_R   0.428770 0.500020 0.383360 -0.624027
O8    O     O_R   0.571230 0.499980 0.616640 -0.628121
C3    C     C_R   0.406051 0.495344 0.500722 0.911654
C4    C     C_R   0.593859 0.502446 0.499667 0.924604
Zn1   Zn    Zn3+2 0.499990 0.500010 0.655740 0.994516
Zn2   Zn    Zn3+2 0.500010 0.499990 0.344260 0.991623
C5    C     C_R   0.177620 0.344024 0.507768 0.556288
C6    C     C_R   0.820611 0.533721 0.640443 0.556696
O9    O     O_2   0.203923 0.241849 0.468157 -0.527614
O10   O     O_2   0.794671 0.626212 0.702652 -0.530022
N1    N     N_R   0.200023 0.458995 0.525405 -0.349663
N2    N     N_R   0.797639 0.447280 0.559278 -0.349581
C7    C     C_R   0.174606 0.565017 0.563788 0.538714
C8    C     C_R   0.822457 0.349156 0.499400 0.534506
C9    C     C_R   0.274416 0.533940 0.409520 -0.064187
C10   C     C_R   0.714762 0.365148 0.582145 -0.062436
C11   C     C_R   0.324992 0.540980 0.403473 -0.247288
C12   C     C_R   0.665079 0.379842 0.564450 -0.253769
C13   C     C_R   0.330360 0.406716 0.609444 0.283615
C14   C     C_R   0.678158 0.587666 0.453119 0.259093
C15   C     C_R   0.279690 0.402678 0.615332 -0.159712
C16   C     C_R   0.728363 0.570184 0.470798 -0.140810
C17   C     C_R   0.251842 0.465422 0.516023 0.234523
C18   C     C_R   0.746507 0.460382 0.536122 0.225102
C19   C     C_R   0.100738 0.439324 0.572526 -0.053264
C20   C     C_R   0.897339 0.427846 0.596520 -0.053510
C21   C     C_R   0.127509 0.331862 0.531301 -0.085703
C22   C     C_R   0.871035 0.526783 0.658946 -0.086102
C23   C     C_R   0.104259 0.213800 0.520382 -0.167435
C24   C     C_R   0.895387 0.615139 0.739997 -0.163815
C25   C     C_R   0.124436 0.557257 0.588313 -0.035678
C26   C     C_R   0.872714 0.336629 0.518233 -0.020037
C27   C     C_R   0.353239 0.479556 0.503986 -0.167633
C28   C     C_R   0.646438 0.490130 0.501163 -0.149649
H1    H     H_    0.261572 0.348327 0.695884 0.186284
H2    H     H_    0.753708 0.642700 0.435501 0.195251
H3    H     H_    0.125399 0.128797 0.499591 0.230590
H4    H     H_    0.874921 0.685282 0.797282 0.230002
C29   C     C_R   0.974555 0.318751 0.551817 0.088395
C30   C     C_R   0.023873 0.536130 0.645299 0.068052
C31   C     C_R   0.973360 0.523941 0.671891 -0.061389
C32   C     C_R   0.025824 0.314174 0.565650 -0.062512
C33   C     C_R   0.948449 0.422471 0.608613 0.055935
C34   C     C_R   0.050142 0.429429 0.595899 0.053761
C35   C     C_R   0.949097 0.229719 0.472237 -0.113774
C36   C     C_R   0.048052 0.654280 0.654702 -0.083827
C37   C     C_R   0.898966 0.238241 0.456265 -0.113730
C38   C     C_R   0.097615 0.664431 0.627578 -0.086925
O11   O     O_2   0.798669 0.265404 0.420059 -0.531140
O12   O     O_2   0.198033 0.676745 0.580681 -0.532251
C39   C     C_R   0.054047 0.202479 0.541887 0.273390
C40   C     C_R   0.946128 0.612825 0.750671 0.267227
H5    H     H_    0.640850 0.305736 0.602624 0.170436
H6    H     H_    0.342060 0.596556 0.322059 0.180781
H7    H     H_    0.728617 0.280641 0.633701 0.171584
H8    H     H_    0.252759 0.582354 0.332396 0.166189
H9    H     H_    0.881015 0.168661 0.392905 0.205712
H10   H     H_    0.114722 0.756963 0.636483 0.215610
H11   H     H_    0.967765 0.156869 0.414751 0.187163
H12   H     H_    0.028682 0.741473 0.676746 0.213598
C41   C     C_3   0.512808 0.035991 0.623899 0.634655
C42   C     C_3   0.487793 0.964045 0.375906 0.630221
C43   C     C_3   0.545341 0.954775 0.530390 -0.298355
C44   C     C_3   0.455260 0.045199 0.469390 -0.286330
H13   H     H_    0.581439 0.912914 0.555206 0.197160
H14   H     H_    0.419161 0.086835 0.444232 0.190944
C45   C     C_3   0.499502 0.877239 0.497722 -0.144549
C46   C     C_3   0.501072 0.122785 0.502110 -0.138685
C47   C     C_3   0.467180 0.957057 0.593497 -0.279990
C48   C     C_3   0.533414 0.043013 0.406321 -0.291110
H15   H     H_    0.440892 0.917576 0.669837 0.179077
H16   H     H_    0.559705 0.082606 0.330055 0.181191
C49   C     C_3   0.476079 0.403512 0.050422 -0.047625
C50   C     C_3   0.523912 0.596487 0.949572 -0.060120
C51   C     C_3   0.519943 0.397348 0.952323 -0.079853
C52   C     C_3   0.480051 0.602643 0.047670 -0.090159
H17   H     H_    0.536808 0.311045 0.907308 0.175368
H18   H     H_    0.463178 0.688944 0.092669 0.176161
H19   H     H_    0.455891 0.322429 0.097863 0.136563
H20   H     H_    0.544083 0.677583 0.902100 0.131741
N3    N     N_3   0.499960 0.500030 0.863290 -0.085206
N4    N     N_3   0.500040 0.499970 0.136710 -0.086259
C53   C     C_3   0.456092 0.506187 0.952239 -0.047186
C54   C     C_3   0.543905 0.493809 0.047750 -0.060375
H21   H     H_    0.419112 0.511529 0.907237 0.170615
H22   H     H_    0.580892 0.488629 0.092753 0.160290
N5    N     N_R   0.357680 0.332455 0.707260 0.209620
O13   O     O_R   0.393010 0.259276 0.665911 -0.397782
O14   O     O_R   0.342125 0.320717 0.833129 -0.398751
N6    N     N_R   0.660780 0.706478 0.394763 0.192636
O15   O     O_R   0.619050 0.714076 0.332966 -0.394483
O16   O     O_R   0.688333 0.807359 0.395918 -0.363032
O17   O     O_3   0.525689 0.084624 0.752865 -0.601722
C55   C     C_3   0.538013 0.982604 0.841401 -0.308777
H23   H     H_    0.571101 0.931923 0.804587 0.173942
H24   H     H_    0.507238 0.914604 0.854687 0.159962
H25   H     H_    0.546541 0.021653 0.943589 0.197229
O18   O     O_3   0.474911 0.915523 0.246884 -0.604097
C56   C     C_3   0.462700 0.017635 0.158326 -0.301327
H26   H     H_    0.493535 0.085459 0.145117 0.158255
H27   H     H_    0.429647 0.068517 0.195059 0.176367
H28   H     H_    0.454169 0.978656 0.056108 0.198638
N7    N     N_R   0.033693 0.076516 0.555514 0.191618
O19   O     O_R   0.001945 0.051675 0.651857 -0.342825
O20   O     O_R   0.051677 0.982588 0.485248 -0.391375
N8    N     N_R   0.968578 0.691119 0.852461 0.202106
O21   O     O_R   0.003344 0.644889 0.928450 -0.352461
O22   O     O_R   0.950201 0.801994 0.882078 -0.327702

loop_
_geom_bond_atom_site_label_1
_geom_bond_atom_site_label_2
_geom_bond_distance
_ccdc_geom_bond_type
C16   C18   1.401178 A    
O17   C55   1.408402 S    
C42   C48   1.535479 S    
C41   C47   1.535403 S    
C40   N8    1.438605 S    
N5    O13   1.301002 A    
C44   C46   1.536733 S    
N1    C17   1.426979 S    
C8    O11   1.349894 S    
N8    O21   1.301650 A    
C2    C45   1.413989 S    
C19   C34   1.410277 A    
C30   C36   1.410801 A    
C51   C54   1.534890 S    
C20   C33   1.410227 A    
C19   C25   1.408910 A    
C50   N3    1.481346 S    
C55   H25   1.108681 S    
C20   C26   1.407908 A    
C32   C39   1.423804 A    
C21   C23   1.399360 A    
C12   H5    1.084527 S    
C46   C48   1.538540 S    
C48   H16   1.110353 S    
C32   C34   1.416908 A    
C13   C15   1.392935 A    
O18   C56   1.408503 S    
C50   C54   1.534947 S    
C41   C46   1.522978 S    
O4    Zn1   1.982803 S    
C41   C43   1.536536 S    
Zn2   N4    2.023991 S    
C4    C28   1.449569 S    
C37   H9    1.083306 S    
C5    N1    1.367603 A    
C13   N5    1.437991 S    
N7    O19   1.301713 A    
C14   C16   1.401977 A    
C31   C33   1.416040 A    
C39   N7    1.439269 S    
C56   H26   1.112482 S    
C38   H10   1.083385 S    
C52   C53   1.534842 S    
N3    C53   1.481602 S    
C6    N2    1.368371 A    
C29   C35   1.410681 A    
C47   H15   1.110354 S    
C15   H1    1.083477 S    
C56   H27   1.111601 S    
C16   H2    1.083081 S    
O2    C2    1.280469 A    
C52   N4    1.481542 S    
O2    Zn2   1.992385 S    
C5    C21   1.399398 A    
C49   C51   1.535032 S    
C29   C32   1.415902 A    
C35   C37   1.389065 A    
C51   N3    1.481498 S    
C36   C38   1.388800 A    
C44   H14   1.110192 S    
C42   O18   1.410531 S    
C11   C27   1.403451 A    
C43   H13   1.110340 S    
C29   C33   1.417956 A    
C9    C17   1.397630 A    
O5    C3    1.295746 A    
O7    Zn2   1.990662 S    
C10   C18   1.394622 A    
C44   C47   1.549855 S    
C53   H21   1.109991 S    
C45   C47   1.538401 S    
C13   C27   1.417392 A    
N4    C54   1.481583 S    
C25   C38   1.398586 A    
C7    C25   1.399121 A    
C30   C34   1.417834 A    
O6    C4    1.296917 A    
C26   C37   1.398718 A    
C8    C26   1.399219 A    
C54   H22   1.110107 S    
N7    O20   1.301577 A    
C49   H19   1.110167 S    
C55   H24   1.112491 S    
C31   C40   1.423369 A    
C23   C39   1.398384 A    
O3    Zn2   1.982805 S    
O8    C4    1.295367 A    
C24   C40   1.398122 A    
C49   N4    1.481496 S    
O4    C2    1.282784 A    
C9    H8    1.082744 S    
C51   H17   1.109899 S    
N2    C8    1.367972 A    
C10   H7    1.082970 S    
N6    O16   1.301734 A    
O7    C3    1.300303 A    
C56   H28   1.108692 S    
O1    C1    1.280768 A    
O1    Zn1   1.992388 S    
C23   H3    1.083357 S    
C12   C28   1.401546 A    
N2    C18   1.429751 S    
C14   N6    1.444710 S    
C5    O9    1.350055 S    
C30   C31   1.415207 A    
O6    Zn2   1.995669 S    
Zn1   N3    2.023990 S    
C10   C12   1.384448 A    
O3    C1    1.282550 A    
O8    Zn1   1.990665 S    
N8    O22   1.301537 A    
N5    O14   1.301433 A    
C41   O17   1.410467 S    
C50   C52   1.534982 S    
C1    C46   1.413945 S    
C22   C24   1.399159 A    
C7    O12   1.349867 S    
C15   C17   1.395557 A    
C6    C22   1.399250 A    
C43   C45   1.536957 S    
C50   H20   1.110151 S    
C14   C28   1.417642 A    
C19   C21   1.405789 A    
C3    C27   1.460063 S    
C20   C22   1.405683 A    
C11   H6    1.083493 S    
C9    C11   1.391773 A    
C55   H23   1.111619 S    
C35   H11   1.079874 S    
C24   H4    1.083303 S    
C49   C53   1.534914 S    
O5    Zn1   1.995663 S    
C36   H12   1.080135 S    
C6    O10   1.350034 S    
N6    O15   1.300121 A    
C42   C45   1.523097 S    
C52   H18   1.109901 S    
C42   C44   1.536033 S    
C43   C48   1.550202 S    
N1    C7    1.366505 A    
