data_mof_unit_31773.cif
_audit_creation_date              2012-12-10T17:45:24-0500
_audit_creation_method            fapswitch 2.2
_symmetry_space_group_name_H-M    P1
_symmetry_Int_Tables_number       1
_space_group_crystal_system       triclinic
_cell_length_a                    15.071266
_cell_length_b                    13.836038
_cell_length_c                    23.486695
_cell_angle_alpha                 89.917663
_cell_angle_beta                  90.086803
_cell_angle_gamma                 89.984843
_cell_volume                      4897.59001515

loop_
_atom_site_label
_atom_site_type_symbol
_atom_type_description
_atom_site_fract_x
_atom_site_fract_y
_atom_site_fract_z
_atom_type_partial_charge
C1    C     C_R   0.328699 0.500012 0.500041 0.787209
C2    C     C_R   0.671299 0.499995 0.499961 0.786238
C3    C     C_R   0.524711 0.418158 0.238902 -0.198754
C4    C     C_R   0.473906 0.417562 0.760973 -0.184056
C5    C     C_R   0.524611 0.417406 0.298202 -0.224177
C6    C     C_R   0.474090 0.417197 0.701681 -0.226998
C7    C     C_R   0.499754 0.500451 0.328526 -0.120921
C8    C     C_R   0.500319 0.499918 0.671427 -0.122617
C9    C     C_R   0.475027 0.584214 0.298664 -0.290694
C10   C     C_R   0.526618 0.582887 0.701305 -0.284990
C11   C     C_R   0.477062 0.585943 0.239209 0.491374
C12   C     C_R   0.524760 0.584262 0.760747 0.485830
C13   C     C_R   0.500679 0.501993 0.209278 0.266260
C14   C     C_R   0.499351 0.500687 0.790724 0.259912
C15   C     C_R   0.814688 0.412163 0.499068 -0.252341
C16   C     C_R   0.185325 0.587923 0.499495 -0.247706
C17   C     C_R   0.768226 0.500012 0.499884 -0.057799
C18   C     C_R   0.231769 0.500043 0.500109 -0.057820
C19   C     C_R   0.814621 0.587890 0.500647 -0.247847
C20   C     C_R   0.185349 0.412183 0.500765 -0.251882
C21   C     C_R   0.907027 0.588553 0.500285 0.106408
C22   C     C_R   0.092954 0.411545 0.500286 0.106326
C23   C     C_R   0.499827 0.500070 0.391051 0.804187
C24   C     C_R   0.500190 0.499932 0.608933 0.804080
C25   C     C_R   0.953502 0.500049 0.499948 0.069495
C26   C     C_R   0.046489 0.500056 0.500028 0.069341
C27   C     C_R   0.907086 0.411533 0.499533 0.106313
C28   C     C_R   0.092916 0.588569 0.499854 0.106442
C29   C     C_R   0.953693 0.676166 0.500313 -0.213232
C30   C     C_R   0.046295 0.323932 0.500076 -0.212813
C31   C     C_R   0.046198 0.676175 0.499983 -0.212659
C32   C     C_R   0.953798 0.323927 0.499581 -0.213047
C33   C     C_R   0.481786 0.795225 0.549208 0.480423
C34   C     C_R   0.482380 0.204701 0.450700 0.478529
C35   C     C_R   0.518315 0.795406 0.450814 0.481030
C36   C     C_R   0.517607 0.204518 0.549319 0.478430
C37   C     C_R   0.507300 0.897505 0.448876 -0.095377
C38   C     C_R   0.506609 0.102464 0.551191 -0.094671
C39   C     C_R   0.492892 0.897282 0.551152 -0.095073
C40   C     C_R   0.493514 0.102684 0.448844 -0.094521
C41   C     C_R   0.500102 0.948620 0.500016 0.019631
C42   C     C_R   0.500087 0.051330 0.500018 0.018117
C43   C     C_R   0.505618 0.949789 0.397352 -0.186601
C44   C     C_R   0.504631 0.050258 0.602738 -0.180647
C45   C     C_R   0.494576 0.949310 0.602688 -0.186727
C46   C     C_R   0.495535 0.050729 0.397300 -0.180623
C47   C     C_R   0.578916 0.504618 0.880057 0.599704
C48   C     C_R   0.420792 0.496144 0.120193 0.603505
C49   C     C_R   0.420661 0.496666 0.880248 0.536244
C50   C     C_R   0.578884 0.508101 0.119820 0.539234
C51   C     C_R   0.419303 0.496511 0.939885 -0.049504
C52   C     C_R   0.580076 0.509325 0.060200 -0.050252
C53   C     C_R   0.499972 0.502816 0.969988 -0.084519
C54   C     C_R   0.499368 0.502946 0.030143 -0.080674
C55   C     C_R   0.581080 0.509368 0.939996 -0.121274
C56   C     C_R   0.418267 0.496055 0.060161 -0.112462
C57   C     C_R   0.339057 0.490753 0.969764 -0.255011
C58   C     C_R   0.660097 0.517742 0.030300 -0.263674
C59   C     C_R   0.337789 0.488485 0.029322 0.442574
C60   C     C_R   0.661199 0.521519 0.970692 0.470071
Cu1   Cu    Cu3+1 0.500000 0.597420 0.500000 0.984979
Cu2   Cu    Cu3+1 0.500000 0.402580 0.500000 0.982790
H1    H     H_    0.276470 0.487482 0.947098 0.194864
H2    H     H_    0.722568 0.522505 0.053009 0.192041
H3    H     H_    0.081202 0.744583 0.499951 0.140003
H4    H     H_    0.918796 0.255519 0.499368 0.140306
H5    H     H_    0.543391 0.353579 0.215851 0.158102
H6    H     H_    0.454126 0.353165 0.783921 0.162810
H7    H     H_    0.544306 0.352055 0.320251 0.202246
H8    H     H_    0.453330 0.352411 0.679568 0.201557
H9    H     H_    0.453911 0.648228 0.321337 0.198937
H10   H     H_    0.548894 0.646563 0.678644 0.197344
H11   H     H_    0.779171 0.344114 0.498176 0.146180
H12   H     H_    0.220877 0.655967 0.498809 0.147453
H13   H     H_    0.779031 0.655926 0.501454 0.147590
H14   H     H_    0.220894 0.344127 0.501549 0.146126
H15   H     H_    0.918648 0.744568 0.500470 0.139856
H16   H     H_    0.081338 0.255527 0.500165 0.140383
N1    N     N_R   0.499607 0.500248 0.851778 -0.460182
N2    N     N_R   0.500153 0.501828 0.148305 -0.458565
N3    N     N_R   0.500000 0.743810 0.500000 -0.252554
N4    N     N_R   0.500000 0.256190 0.500000 -0.255905
O1    O     O_R   0.370260 0.582280 0.500010 -0.588070
O2    O     O_R   0.629740 0.417720 0.499990 -0.590148
O3    O     O_R   0.629740 0.582280 0.499990 -0.588034
O4    O     O_R   0.370260 0.417720 0.500010 -0.590161
O5    O     O_R   0.499980 0.582290 0.417880 -0.530352
O6    O     O_R   0.500020 0.417710 0.582120 -0.530148
O7    O     O_R   0.500020 0.582290 0.582120 -0.530300
O8    O     O_R   0.499980 0.417710 0.417880 -0.530237
O9    O     O_2   0.655080 0.502999 0.849990 -0.486330
O10   O     O_2   0.345059 0.490220 0.150538 -0.492682
O11   O     O_2   0.343724 0.493535 0.850816 -0.556658
O12   O     O_2   0.655687 0.513946 0.149253 -0.561905
O13   O     O_3   0.451178 0.748144 0.597101 -0.599619
C61   C     C_3   0.358074 0.759994 0.600463 0.053682
H17   H     H_    0.325241 0.749967 0.558254 0.135131
H18   H     H_    0.342280 0.833554 0.616642 0.139698
C62   C     C_3   0.319906 0.685098 0.641624 -0.306106
H19   H     H_    0.330915 0.611413 0.624285 0.223495
H20   H     H_    0.354205 0.690325 0.683381 0.220954
C63   C     C_3   0.220640 0.700177 0.650632 -0.917394
H21   H     H_    0.208103 0.772260 0.669783 0.253797
H22   H     H_    0.194872 0.643770 0.679935 0.269776
H23   H     H_    0.184523 0.694804 0.609515 0.258744
O14   O     O_3   0.452123 0.251480 0.402579 -0.594725
C64   C     C_3   0.358837 0.241309 0.399696 0.050706
H24   H     H_    0.326798 0.258743 0.441187 0.141718
H25   H     H_    0.341191 0.165951 0.387614 0.133803
C65   C     C_3   0.322103 0.310272 0.354551 -0.299085
H26   H     H_    0.336449 0.386028 0.367155 0.225060
H27   H     H_    0.354930 0.295823 0.313074 0.226841
C66   C     C_3   0.222016 0.298528 0.347523 -0.916726
H28   H     H_    0.205871 0.223891 0.333577 0.253980
H29   H     H_    0.197509 0.350074 0.314808 0.270002
H30   H     H_    0.187615 0.313781 0.388307 0.258817
O15   O     O_3   0.549085 0.748436 0.403000 -0.600082
C67   C     C_3   0.642172 0.760498 0.399652 0.053649
H31   H     H_    0.674988 0.751244 0.441951 0.134368
H32   H     H_    0.657753 0.833846 0.382958 0.140427
C68   C     C_3   0.680674 0.685074 0.359073 -0.306274
H33   H     H_    0.669973 0.611641 0.376968 0.223459
H34   H     H_    0.646363 0.689422 0.317287 0.220934
C69   C     C_3   0.779870 0.700465 0.349938 -0.917784
H35   H     H_    0.792068 0.772207 0.330161 0.253637
H36   H     H_    0.805909 0.643610 0.321132 0.269538
H37   H     H_    0.816008 0.696120 0.391091 0.258863
O16   O     O_3   0.547799 0.251166 0.597416 -0.593863
C70   C     C_3   0.641101 0.241060 0.600286 0.050763
H38   H     H_    0.673115 0.258114 0.558698 0.141047
H39   H     H_    0.658788 0.165810 0.612724 0.133756
C71   C     C_3   0.677870 0.310443 0.645062 -0.299304
H40   H     H_    0.663562 0.386083 0.632061 0.224274
H41   H     H_    0.645051 0.296466 0.686620 0.228760
C72   C     C_3   0.777956 0.298663 0.652119 -0.909724
H42   H     H_    0.794071 0.224187 0.666516 0.254483
H43   H     H_    0.802529 0.350607 0.684497 0.272784
H44   H     H_    0.812329 0.313338 0.611230 0.257303
H45   H     H_    0.509332 0.912676 0.356971 0.165679
H46   H     H_    0.508266 0.087495 0.643203 0.167551
H47   H     H_    0.490815 0.911981 0.643081 0.165578
H48   H     H_    0.491868 0.088155 0.356832 0.167236
O17   O     O_3   0.256920 0.484669 0.056984 -0.563100
C73   C     C_3   0.225777 0.388396 0.056176 0.080685
H49   H     H_    0.276373 0.338027 0.074280 0.141858
H50   H     H_    0.209378 0.365936 0.011861 0.128257
C74   C     C_3   0.141825 0.381779 0.092344 -0.280691
H51   H     H_    0.157164 0.404634 0.136641 0.248184
H52   H     H_    0.090547 0.431310 0.074736 0.224523
C75   C     C_3   0.105078 0.279031 0.093359 -0.926502
H53   H     H_    0.087885 0.255198 0.049564 0.260824
H54   H     H_    0.044198 0.276798 0.119893 0.264415
H55   H     H_    0.154689 0.228525 0.111863 0.258371
O18   O     O_3   0.741443 0.532129 0.942574 -0.562288
C76   C     C_3   0.773875 0.627637 0.949373 0.057046
H56   H     H_    0.846614 0.625769 0.941881 0.175542
H57   H     H_    0.764802 0.656286 0.993320 0.118226
C77   C     C_3   0.731828 0.696455 0.905671 -0.298813
H58   H     H_    0.745137 0.669495 0.861969 0.271844
H59   H     H_    0.658847 0.699434 0.912075 0.212741
C78   C     C_3   0.769222 0.798449 0.911222 -0.923824
H60   H     H_    0.755293 0.827799 0.954292 0.256769
H61   H     H_    0.737584 0.846273 0.879058 0.265286
H62   H     H_    0.842015 0.798106 0.903879 0.260286
O19   O     O_3   0.452640 0.668715 0.210137 -0.596479
C79   C     C_3   0.528324 0.727306 0.200763 0.054023
H63   H     H_    0.526468 0.752272 0.155794 0.171658
H64   H     H_    0.593080 0.688881 0.206402 0.148419
C80   C     C_3   0.524879 0.815767 0.239703 -0.369444
H65   H     H_    0.464121 0.858429 0.230210 0.234331
H66   H     H_    0.521771 0.791818 0.284705 0.229315
C81   C     C_3   0.606299 0.879925 0.231992 -0.921705
H67   H     H_    0.667587 0.839314 0.242997 0.262271
H68   H     H_    0.601258 0.943558 0.260566 0.252807
H69   H     H_    0.610648 0.905766 0.187286 0.262395
O20   O     O_3   0.551517 0.666145 0.789712 -0.611954
C82   C     C_3   0.477083 0.725678 0.800800 0.039877
H70   H     H_    0.482085 0.750925 0.845577 0.166372
H71   H     H_    0.411702 0.687903 0.797055 0.148045
C83   C     C_3   0.478981 0.813851 0.761421 -0.364531
H72   H     H_    0.540512 0.856022 0.769390 0.230195
H73   H     H_    0.479496 0.789652 0.716448 0.229381
C84   C     C_3   0.398486 0.878776 0.770691 -0.916967
H74   H     H_    0.336381 0.838675 0.761127 0.262033
H75   H     H_    0.402485 0.942262 0.741827 0.251952
H76   H     H_    0.396670 0.904806 0.815389 0.262479

loop_
_geom_bond_atom_site_label_1
_geom_bond_atom_site_label_2
_ccdc_geom_bond_type
C16   C28   A    
C72   H44   S    
C79   H64   S    
O19   C79   S    
C76   H57   S    
C64   H25   S    
C41   C42   A    
C2    O2    A    
C74   H51   S    
C47   N1    A    
O16   C70   S    
C78   H60   S    
C35   N3    A    
C72   H42   S    
C39   C41   A    
C53   C54   A    
C81   H67   S    
C40   C46   A    
Cu2   O4    S    
C1    C18   S    
C33   C39   A    
C2    O3    A    
C34   C40   A    
C32   H4    S    
C35   C37   A    
C38   C42   A    
C69   H36   S    
C84   H75   S    
Cu2   O6    S    
C10   C12   A    
C57   C59   A    
O14   C64   S    
C58   C60   A    
O17   C73   S    
C61   C62   S    
C20   H14   S    
C63   H23   S    
C6    H8    S    
C80   H65   S    
C65   H26   S    
C68   C69   S    
C5    H7    S    
Cu1   O5    S    
C77   C78   S    
C17   C19   A    
C67   H31   S    
Cu2   O2    S    
O13   C61   S    
C81   H68   S    
C71   H40   S    
C49   C51   A    
C75   H55   S    
C61   H18   S    
C50   C52   A    
C64   H24   S    
C43   H45   S    
C51   C57   A    
Cu1   Cu2   S    
C3    C13   A    
C83   C84   S    
C39   C45   A    
C66   H30   S    
C52   C54   A    
C40   C42   A    
Cu2   N4    S    
C13   N2    S    
C59   O17   S    
C44   H46   S    
C23   O5    A    
C55   C60   A    
C24   O7    A    
C76   C77   S    
C77   H59   S    
C80   H66   S    
C60   O18   S    
C36   O16   S    
C73   C74   S    
C33   O13   S    
C78   H61   S    
Cu1   O7    S    
C57   H1    S    
C67   H32   S    
C53   C55   A    
C58   H2    S    
C52   C58   A    
C54   C56   A    
C74   H52   S    
C34   O14   S    
C74   C75   S    
C46   H48   S    
Cu1   O1    S    
C84   H76   S    
C36   N4    A    
C5    C7    A    
C31   H3    S    
C50   O12   S    
C6    C8    A    
C82   H71   S    
C25   C26   A    
C4    H6    S    
C71   H41   S    
C49   N1    A    
C51   C53   A    
C67   C68   S    
C37   C43   A    
C84   H74   S    
C38   C44   A    
C73   H50   S    
C9    C11   A    
C15   C27   A    
C62   H19   S    
C82   C83   S    
C61   H17   S    
C68   H33   S    
C23   O8    A    
C16   C18   A    
C14   N1    S    
C70   H39   S    
C63   H22   S    
C24   O6    A    
C65   C66   S    
O18   C76   S    
Cu1   O3    S    
C45   H47   S    
C69   H37   S    
C4    C6    A    
O20   C82   S    
C15   H11   S    
C12   C14   A    
C48   O10   S    
C77   H58   S    
C64   C65   S    
C75   H54   S    
C35   O15   S    
C1    O1    A    
C78   H62   S    
C83   H72   S    
C47   C55   A    
C66   H28   S    
C1    O4    A    
C72   H43   S    
C21   C25   A    
C22   C30   A    
C19   C21   A    
C27   C32   A    
C47   O9    S    
C28   C31   A    
C3    H5    S    
C44   C45   A    
C9    H9    S    
C20   C22   A    
C73   H49   S    
C3    C5    A    
C50   N2    A    
C81   H69   S    
C15   C17   A    
C16   H12   S    
C48   C56   A    
C25   C27   A    
C26   C28   A    
C56   C59   A    
C12   O20   S    
C49   O11   S    
C70   C71   S    
C19   H13   S    
C70   H38   S    
C29   C31   A    
C4    C14   A    
Cu1   N3    S    
O15   C67   S    
C83   H73   S    
C30   C32   A    
C11   C13   A    
C48   N2    A    
C79   H63   S    
C21   C29   A    
C71   C72   S    
C7    C23   S    
Cu2   O8    S    
C36   C38   A    
C8    C24   S    
C18   C20   A    
C37   C41   A    
C63   H21   S    
C43   C46   A    
C65   H27   S    
C68   H34   S    
C30   H16   S    
C7    C9    A    
C62   C63   S    
C29   H15   S    
C79   C80   S    
C8    C10   A    
C82   H70   S    
C22   C26   A    
C76   H56   S    
C11   O19   S    
C75   H53   S    
C80   C81   S    
C34   N4    A    
C66   H29   S    
C33   N3    A    
C62   H20   S    
C69   H35   S    
C2    C17   S    
C10   H10   S    
