data_mof_unit_21436.cif
_audit_creation_date              2012-12-10T17:12:35-0500
_audit_creation_method            fapswitch 2.2
_symmetry_space_group_name_H-M    P1
_symmetry_Int_Tables_number       1
_space_group_crystal_system       triclinic
_cell_length_a                    23.392596
_cell_length_b                    10.633026
_cell_length_c                    9.992685
_cell_angle_alpha                 89.736563
_cell_angle_beta                  89.235135
_cell_angle_gamma                 90.13485
_cell_volume                      2485.26634155

loop_
_atom_site_label
_atom_site_type_symbol
_atom_type_description
_atom_site_fract_x
_atom_site_fract_y
_atom_site_fract_z
_atom_type_partial_charge
C1    C     C_R   0.505276 0.262630 0.499768 0.924746
C2    C     C_R   0.121054 0.626994 0.533047 0.508617
C3    C     C_R   0.242258 0.576736 0.396286 -0.132454
C4    C     C_R   0.389272 0.496658 0.501126 0.892998
C5    C     C_R   0.300836 0.569142 0.402754 -0.266661
C6    C     C_R   0.326763 0.497009 0.502206 -0.084828
C7    C     C_R   0.292996 0.428668 0.597935 0.119828
C8    C     C_R   0.232405 0.440468 0.593183 0.113312
C9    C     C_R   0.208214 0.514045 0.490021 0.275054
C10   C     C_R   0.763900 0.512978 0.606462 -0.107740
C11   C     C_R   0.704713 0.500940 0.612161 -0.222509
C12   C     C_R   0.968803 0.344588 0.348587 -0.181277
C13   C     C_R   0.672917 0.512392 0.494691 -0.038596
C14   C     C_R   0.700850 0.537739 0.372145 -0.221298
C15   C     C_R   0.759794 0.550549 0.366975 -0.104103
C16   C     C_R   0.499876 0.737826 0.499572 0.945314
C17   C     C_R   0.791353 0.537343 0.483762 0.330474
C18   C     C_2   0.537881 0.927774 0.411450 -0.141350
C19   C     C_2   0.501439 0.870728 0.496341 -0.376760
C20   C     C_2   0.536524 0.064278 0.394156 0.198818
C21   C     C_2   0.519377 0.131578 0.501789 -0.420815
C22   C     C_2   0.534697 0.568421 0.923482 -0.122360
C23   C     C_R   0.028054 0.341495 0.347247 -0.171087
C24   C     C_2   0.531932 0.574710 0.073778 -0.131630
C25   C     C_R   0.610744 0.501926 0.498892 0.860894
C26   C     C_R   0.880195 0.642135 0.531004 0.485478
C27   C     C_R   0.880199 0.445686 0.415115 0.490482
C28   C     C_R   0.939557 0.444635 0.409676 0.000571
C29   C     C_R   0.970062 0.544660 0.468203 -0.045938
C30   C     C_R   0.940691 0.647522 0.528015 -0.048946
C31   C     C_3   0.551665 0.123904 0.258623 -0.320198
C32   C     C_3   0.579538 0.035688 0.156476 -0.928621
C33   C     C_3   0.947897 0.869234 0.639282 -0.352463
C34   C     C_R   0.059097 0.437890 0.407879 -0.007753
C35   C     C_3   0.928709 0.957573 0.526490 -0.311196
C36   C     C_3   0.901390 0.076729 0.582537 -0.821397
C37   C     C_3   0.321143 0.338938 0.697336 -0.424551
C38   C     C_3   0.344711 0.222212 0.627272 -0.821694
C39   C     C_3   0.193112 0.377449 0.696527 -0.419507
C40   C     C_3   0.192137 0.451443 0.828176 -0.373710
C41   C     C_3   0.155842 0.384751 0.934992 -0.821351
C42   C     C_R   0.030193 0.540141 0.467730 -0.023598
C43   C     C_R   0.061489 0.636633 0.528340 -0.044037
C44   C     C_R   0.033075 0.739934 0.583449 -0.195798
C45   C     C_R   0.973285 0.748708 0.582965 0.096620
C46   C     C_R   0.118642 0.433443 0.412794 0.480100
H1    H     H_    0.946004 0.267583 0.302644 0.185918
H2    H     H_    0.558731 0.643677 0.122499 0.155163
H3    H     H_    0.049361 0.262391 0.300495 0.188453
H4    H     H_    0.478101 0.430515 0.103090 0.160893
H5    H     H_    0.057831 0.815581 0.626476 0.188029
H6    H     H_    0.222889 0.632641 0.318216 0.150389
H7    H     H_    0.326206 0.621174 0.329648 0.173886
H8    H     H_    0.788551 0.501895 0.696698 0.139640
H9    H     H_    0.620182 0.997437 0.195769 0.264525
H10   H     H_    0.550022 0.957576 0.131192 0.263415
H11   H     H_    0.589464 0.088907 0.063103 0.260549
H12   H     H_    0.683993 0.481816 0.707696 0.161897
H13   H     H_    0.512117 0.161311 0.212874 0.220635
H14   H     H_    0.582030 0.202908 0.274477 0.220945
H15   H     H_    0.863190 0.052641 0.644797 0.276182
H16   H     H_    0.932527 0.129229 0.644125 0.250619
H17   H     H_    0.887841 0.138194 0.498777 0.277784
H18   H     H_    0.966452 0.984533 0.463769 0.209196
H19   H     H_    0.897586 0.909988 0.460733 0.257541
H20   H     H_    0.913230 0.849073 0.712967 0.246015
H21   H     H_    0.980320 0.920747 0.698488 0.171930
H22   H     H_    0.309537 0.170815 0.577532 0.264727
H23   H     H_    0.677240 0.548259 0.280274 0.160746
H24   H     H_    0.377793 0.247462 0.551302 0.249335
H25   H     H_    0.364402 0.158739 0.702125 0.243709
H26   H     H_    0.355099 0.386764 0.753965 0.226387
H27   H     H_    0.291764 0.305596 0.777233 0.208546
H28   H     H_    0.111096 0.374404 0.900757 0.258117
H29   H     H_    0.173735 0.290315 0.956925 0.268200
H30   H     H_    0.155677 0.440770 0.028537 0.265040
H31   H     H_    0.236069 0.464106 0.866678 0.222936
H32   H     H_    0.173956 0.546389 0.809981 0.257680
H33   H     H_    0.148524 0.371080 0.661128 0.208997
H34   H     H_    0.781158 0.569262 0.272114 0.139045
H35   H     H_    0.205556 0.277894 0.712240 0.211924
H36   H     H_    0.566616 0.871608 0.349970 0.166989
H37   H     H_    0.470697 0.919735 0.559267 0.144918
H38   H     H_    0.516949 0.088553 0.600546 0.153234
H39   H     H_    0.566640 0.625800 0.872333 0.162329
H40   H     H_    0.467955 0.453218 0.899181 0.158364
N1    N     N_R   0.852175 0.542245 0.476257 -0.351124
N2    N     N_R   0.147874 0.525364 0.478043 -0.351372
N3    N     N_2   0.500610 0.501330 0.852150 -0.192230
N4    N     N_2   0.500630 0.501360 0.147810 -0.193642
O1    O     O_R   0.499990 0.319060 0.613040 -0.605437
O2    O     O_R   0.583840 0.500020 0.613040 -0.615750
O3    O     O_R   0.583850 0.500060 0.386900 -0.626024
O4    O     O_2   0.848948 0.734006 0.588176 -0.583557
O5    O     O_2   0.850340 0.349943 0.361363 -0.579675
O6    O     O_2   0.147247 0.337137 0.355478 -0.567470
O7    O     O_2   0.152033 0.717393 0.593064 -0.575140
O8    O     O_R   0.500010 0.319100 0.386900 -0.626753
O9    O     O_R   0.416150 0.499940 0.613100 -0.618873
O10   O     O_R   0.416160 0.499980 0.386960 -0.610197
O11   O     O_R   0.499990 0.680900 0.613100 -0.605417
O12   O     O_R   0.500010 0.680940 0.386960 -0.606484
Zn1   Zn    Zn3+2 0.499990 0.499970 0.650990 0.943103
Zn2   Zn    Zn3+2 0.500010 0.500030 0.349010 0.932131

loop_
_geom_bond_atom_site_label_1
_geom_bond_atom_site_label_2
_ccdc_geom_bond_type
C26   O4    S    
O9    Zn1   S    
C38   H24   S    
C1    C21   S    
C29   C42   A    
C33   C45   S    
C30   C45   A    
C27   O5    S    
C35   C36   S    
C34   C42   A    
C7    C8    A    
C25   O3    A    
C12   C23   A    
C37   C38   S    
C12   C28   A    
C5    H7    S    
C28   C29   A    
C9    N2    S    
C5    C6    A    
C36   H16   S    
C23   H3    S    
C35   H19   S    
C10   C17   A    
O10   Zn2   S    
C18   C19   D    
C22   H39   S    
C31   H13   S    
O2    Zn1   S    
C18   H36   S    
C41   H28   S    
H4    N4    S    
C15   H34   S    
C2    O7    S    
C8    C9    A    
C2    N2    A    
C35   H18   S    
C34   C46   A    
C8    C39   S    
C11   H12   S    
C32   H9    S    
C18   C20   S    
C1    O1    A    
C13   C14   A    
N3    Zn1   S    
C13   C25   S    
C32   H11   S    
C12   H1    S    
C19   H37   S    
O3    Zn2   S    
C33   H20   S    
C46   N2    A    
C24   H2    S    
C39   H35   S    
C4    C6    S    
C39   C40   S    
C26   N1    A    
C39   H33   S    
C31   H14   S    
O12   Zn2   S    
C43   C44   A    
C29   C30   A    
C3    C9    A    
C41   H29   S    
C31   C32   S    
C14   C15   A    
C21   H38   S    
C2    C43   A    
C23   C34   A    
C7    C37   S    
C27   N1    A    
N4    Zn2   S    
C44   H5    S    
C16   O12   A    
C40   C41   S    
C38   H22   S    
C26   C30   A    
C4    O10   A    
C14   H23   S    
C22   C24   S    
C4    O9    A    
C42   C43   A    
C36   H15   S    
C36   H17   S    
C44   C45   A    
C33   H21   S    
C15   C17   A    
C37   H27   S    
C38   H25   S    
C25   O2    A    
C17   N1    S    
O1    Zn1   S    
C3    C5    A    
H40   N3    S    
C24   N4    D    
C1    O8    A    
C3    H6    S    
C6    C7    A    
C41   H30   S    
C11   C13   A    
C16   C19   S    
O8    Zn2   S    
C33   C35   S    
C22   N3    D    
C40   H32   S    
C10   H8    S    
C10   C11   A    
C16   O11   A    
C46   O6    S    
C20   C21   D    
O11   Zn1   S    
C37   H26   S    
C27   C28   A    
C40   H31   S    
C32   H10   S    
C20   C31   S    
