data_mof_unit_62424.cif
_audit_creation_date              2013-03-05T15:39:57-0500
_audit_creation_method            fapswitch 2.2
_symmetry_space_group_name_H-M    P1
_symmetry_Int_Tables_number       1
_space_group_crystal_system       triclinic
_cell_length_a                    18.83292
_cell_length_b                    19.129932
_cell_length_c                    19.019832
_cell_angle_alpha                 109.848184
_cell_angle_beta                  109.234868
_cell_angle_gamma                 109.565483
_cell_volume                      5259.46115525

loop_
_atom_site_label
_atom_site_type_symbol
_atom_site_description
_atom_site_fract_x
_atom_site_fract_y
_atom_site_fract_z
_atom_type_partial_charge
O1    O     O_R   0.411310 0.359450 0.448800 -0.613812
O2    O     O_R   0.410660 0.462490 0.551220 -0.542306
C1    C     C_R   0.384634 0.382482 0.502088 0.843472
O3    O     O_R   0.589930 0.448490 0.538390 -0.566429
O4    O     O_R   0.589280 0.551530 0.640800 -0.584890
C2    C     C_R   0.619020 0.500981 0.617957 0.838573
Cu1   Cu    Cu3+1 0.500390 0.438990 0.439360 1.077382
Cu2   Cu    Cu3+1 0.499610 0.561010 0.560640 1.090026
O5    O     O_R   0.589340 0.537510 0.448780 -0.529137
O6    O     O_R   0.588690 0.640550 0.551200 -0.528716
O7    O     O_R   0.410720 0.448470 0.359200 -0.551758
O8    O     O_R   0.410070 0.551510 0.461610 -0.582183
C3    C     C_R   0.611306 0.616516 0.493239 0.905209
C4    C     C_R   0.380333 0.497958 0.381034 0.755081
H1    H     H_    0.523151 0.206298 0.557926 0.178327
C5    C     C_R   0.793876 0.656262 0.748065 0.275054
C6    C     C_R   0.860078 0.734227 0.824876 0.363343
C7    C     C_R   0.893277 0.734730 0.902173 -0.354411
C8    C     C_R   0.870805 0.657638 0.902855 0.334942
C9    C     C_R   0.815375 0.578240 0.823365 -0.079282
C10   C     C_R   0.764516 0.578219 0.750173 -0.138647
C11   C     C_R   0.809204 0.499223 0.813903 -0.086598
C12   C     C_R   0.738185 0.420125 0.740200 0.014832
C13   C     C_R   0.671415 0.421421 0.680118 0.081346
C14   C     C_R   0.686227 0.500473 0.683269 -0.094941
C15   C     C_R   0.731097 0.339611 0.725348 -0.237035
C16   C     C_R   0.654446 0.261981 0.659460 0.386229
C17   C     C_R   0.584193 0.264857 0.607564 -0.209805
C18   C     C_R   0.592445 0.343121 0.617269 -0.235339
H2    H     H_    0.936712 0.795920 0.961866 0.214584
H3    H     H_    0.784888 0.335947 0.764005 0.179184
H4    H     H_    0.535956 0.340993 0.574885 0.158893
C19   C     C_2   0.264206 0.244151 0.574778 -0.260173
C20   C     C_2   0.182950 0.191699 0.507096 -0.355569
H5    H     H_    0.282236 0.234191 0.629414 0.166808
H6    H     H_    0.160838 0.205293 0.455551 0.160311
C21   C     C_2   0.328382 0.318757 0.578476 0.478876
C22   C     C_2   0.322817 0.314267 0.504534 -0.382817
H7    H     H_    0.278327 0.253936 0.443727 0.118221
C23   C     C_2   0.172224 0.490003 0.246545 -0.108360
C24   C     C_2   0.185269 0.517215 0.193280 -0.205316
H8    H     H_    0.107873 0.461289 0.239126 0.169896
H9    H     H_    0.251207 0.554065 0.207066 0.186312
C25   C     C_2   0.246076 0.501623 0.318498 -0.265464
C26   C     C_2   0.309648 0.488979 0.309492 0.215136
H10   H     H_    0.246203 0.517486 0.379080 0.155877
C27   C     C_2   0.737330 0.817616 0.487220 -0.131953
C28   C     C_2   0.817813 0.829152 0.513776 -0.284655
H11   H     H_    0.718924 0.855267 0.461201 0.191207
H12   H     H_    0.838386 0.797756 0.547728 0.189037
C29   C     C_2   0.672853 0.755517 0.495640 0.235944
C30   C     C_2   0.666345 0.677559 0.476934 0.098164
O9    O     O_R   0.945860 0.359480 0.908360 -0.570671
O10   O     O_R   0.048900 0.462510 0.908320 -0.583772
C31   C     C_R   0.995529 0.382384 0.878050 0.837811
O11   O     O_R   0.855710 0.448510 0.907250 -0.574703
O12   O     O_R   0.958760 0.551540 0.907200 -0.591760
C32   C     C_R   0.878069 0.499480 0.878749 0.846294
Cu3   Cu    Cu3+1 0.935830 0.439030 0.996840 1.029473
Cu4   Cu    Cu3+1 0.057850 0.561040 0.996790 1.027046
O13   O     O_R   0.944780 0.537560 0.085320 -0.590856
O14   O     O_R   0.047820 0.640590 0.085270 -0.524106
O15   O     O_R   0.034920 0.448530 0.086440 -0.579759
O16   O     O_R   0.137970 0.551560 0.086390 -0.580655
C33   C     C_R   0.000031 0.617087 0.118325 0.859885
C34   C     C_R   0.115494 0.504739 0.118811 0.827206
O17   O     O_R   0.051300 0.089020 0.640330 -0.588985
O18   O     O_R   0.947570 0.089010 0.536620 -0.576342
C35   C     C_R   0.001697 0.119385 0.617108 0.835967
O19   O     O_R   0.140880 0.089030 0.551840 -0.587127
O20   O     O_R   0.037150 0.089020 0.448130 -0.588086
C36   C     C_R   0.117729 0.119639 0.502391 0.856614
Cu5   Cu    Cu3+1 0.061410 0.000010 0.561410 0.984426
Cu6   Cu    Cu3+1 0.938590 0.999990 0.438590 0.999428
O21   O     O_R   0.052430 0.910990 0.463380 -0.570124
O22   O     O_R   0.948700 0.910980 0.359670 -0.584832
O23   O     O_R   0.962850 0.910980 0.551870 -0.581491
O24   O     O_R   0.859120 0.910970 0.448160 -0.569773
C37   C     C_R   0.004110 0.886575 0.383087 0.856877
C38   C     C_R   0.882484 0.886495 0.503688 0.867375
C39   C     C_2   0.993882 0.250653 0.675149 -0.128602
C40   C     C_2   0.008691 0.190098 0.685703 -0.285734
H13   H     H_    0.977321 0.249313 0.614151 0.170016
H14   H     H_    0.034568 0.196515 0.749128 0.161120
C41   C     C_2   0.005653 0.323577 0.747531 -0.153641
C42   C     C_2   0.989757 0.313938 0.808285 -0.268655
H15   H     H_    0.022556 0.383934 0.747978 0.167669
H16   H     H_    0.963497 0.251043 0.802498 0.175637
C43   C     C_2   0.078107 0.817675 0.326732 -0.237313
C44   C     C_2   0.010625 0.830693 0.314300 -0.296776
H17   H     H_    0.134095 0.850775 0.390772 0.166189
H18   H     H_    0.960004 0.803828 0.248886 0.166046
C45   C     C_2   0.077127 0.759717 0.250088 0.399656
C46   C     C_2   0.006665 0.679613 0.195691 0.248044
O25   O     O_3   0.393485 0.393162 0.656721 -0.551758
C47   C     C_3   0.444891 0.373762 0.711417 0.029245
H19   H     H_    0.458378 0.324846 0.675528 0.135134
H20   H     H_    0.412257 0.350441 0.744521 0.160184
C48   C     C_3   0.531783 0.455193 0.780208 -0.696217
H21   H     H_    0.521389 0.504114 0.820366 0.255101
H22   H     H_    0.573813 0.440457 0.822354 0.211539
H23   H     H_    0.565235 0.481800 0.749408 0.243155
N1    N     N_R   0.302838 0.452014 0.226000 0.128557
O26   O     O_R   0.371725 0.480364 0.218766 -0.322750
O27   O     O_R   0.232469 0.381468 0.161069 -0.335659
N2    N     N_R   0.615544 0.778735 0.519335 0.133627
O28   O     O_R   0.643433 0.858933 0.571091 -0.288749
O29   O     O_R   0.532337 0.724205 0.476304 -0.349324
N3    N     N_R   0.768194 0.655283 0.667638 0.103079
O30   O     O_R   0.764894 0.597166 0.604086 -0.346673
O31   O     O_R   0.768435 0.722106 0.664149 -0.343407
N4    N     N_R   0.706133 0.646810 0.429854 0.112533
O32   O     O_R   0.745615 0.606901 0.451196 -0.277541
O33   O     O_R   0.693897 0.649534 0.359573 -0.342057
O34   O     O_3   0.147333 0.782984 0.235638 -0.582383
C49   C     C_3   0.199254 0.873014 0.275492 0.084276
H24   H     H_    0.237871 0.902336 0.346635 0.151304
H25   H     H_    0.158676 0.902507 0.259929 0.154614
C50   C     C_3   0.262371 0.892579 0.242214 -0.707990
H26   H     H_    0.225793 0.864523 0.171200 0.249079
H27   H     H_    0.303883 0.963254 0.273309 0.197699
H28   H     H_    0.304670 0.864892 0.257448 0.258553
O35   O     O_3   0.949425 0.649912 0.223871 -0.597929
C51   C     C_3   0.863239 0.622440 0.164855 0.069458
H29   H     H_    0.831872 0.556193 0.110420 0.206910
H30   H     H_    0.860289 0.666322 0.139199 0.187986
C52   C     C_3   0.810673 0.621061 0.210864 -0.680566
H31   H     H_    0.839323 0.686553 0.265455 0.250131
H32   H     H_    0.742537 0.598924 0.165113 0.215347
H33   H     H_    0.810475 0.576525 0.236122 0.269244
O36   O     O_3   0.888242 0.811214 0.825554 -0.516103
C53   C     C_3   0.968097 0.834831 0.826266 0.101823
H34   H     H_    0.962977 0.781754 0.772717 0.160547
H35   H     H_    0.020481 0.852589 0.889107 0.131142
C54   C     C_3   0.993236 0.912358 0.814058 -0.686798
H36   H     H_    0.000008 0.967051 0.866917 0.251281
H37   H     H_    0.056215 0.931846 0.814909 0.190083
H38   H     H_    0.942528 0.896023 0.751153 0.264273
N5    N     N_R   0.891956 0.660779 0.983947 0.111742
O37   O     O_R   0.954970 0.731235 0.055424 -0.417221
O38   O     O_R   0.835385 0.602611 0.987812 -0.440107
N6    N     N_R   0.647631 0.180731 0.646287 0.132573
O39   O     O_R   0.576290 0.108819 0.585352 -0.333887
O40   O     O_R   0.712801 0.177773 0.694691 -0.334788

loop_
_geom_bond_atom_site_label_1
_geom_bond_atom_site_label_2
_geom_bond_distance
_ccdc_geom_bond_type
C54   H38   1.111090 S    
C5    C10   1.427797 A    
C6    O36   1.381998 S    
Cu5   O21   1.961699 S    
Cu5   Cu6   2.691812 S    
C8    C9    1.421729 A    
O22   C37   1.290944 A    
N4    O33   1.301932 A    
C39   C40   1.340665 D    
O9    Cu3   1.961251 S    
O35   C51   1.413626 S    
C27   H11   1.086320 S    
O10   Cu4   1.964481 S    
C41   C42   1.339599 D    
Cu1   O7    1.976282 S    
C15   C16   1.402918 A    
C45   C46   1.355136 D    
Cu6   O22   1.964333 S    
C17   C18   1.391882 A    
C18   H4    1.080259 S    
N3    O31   1.300937 A    
C22   H7    1.085848 S    
O7    C4    1.284014 A    
C42   H16   1.086271 S    
C50   H28   1.110772 S    
C2    C14   1.457971 S    
N2    O28   1.301048 A    
C30   N4    1.445327 S    
O18   Cu6   1.961697 S    
O34   C49   1.412130 S    
C47   C48   1.521283 S    
C16   N6    1.440791 S    
C49   H24   1.112413 S    
C21   O25   1.390865 S    
Cu4   O14   1.961249 S    
C7    C8    1.397408 A    
C45   O34   1.396486 S    
C12   C15   1.418438 A    
O5    C3    1.285825 A    
C13   C18   1.416036 A    
C37   C44   1.453769 S    
C35   C40   1.455456 S    
C26   N1    1.442492 S    
O25   C47   1.412961 S    
C1    C22   1.455955 S    
O11   C32   1.286936 A    
O18   C35   1.300518 A    
C47   H20   1.111419 S    
C12   C13   1.407496 A    
C7    H2    1.082907 S    
C43   H17   1.085911 S    
C20   H6    1.085745 S    
C46   O35   1.396228 S    
C23   H8    1.085918 S    
O15   C34   1.296134 A    
Cu3   Cu4   2.671906 S    
C54   H37   1.110468 S    
C24   H9    1.086932 S    
O3    Cu1   1.973296 S    
N4    O32   1.300906 A    
C39   H13   1.086258 S    
C25   H10   1.086297 S    
C5    N3    1.435717 S    
C19   C20   1.342476 D    
C4    C26   1.465536 S    
O12   C32   1.293278 A    
O9    C31   1.285151 A    
Cu3   O13   1.964579 S    
C41   H15   1.086240 S    
C29   C30   1.361708 D    
C49   C50   1.520611 S    
C53   C54   1.521061 S    
C54   H36   1.110662 S    
C13   C14   1.418882 A    
O3    C2    1.285316 A    
C5    C6    1.409980 A    
O12   Cu4   1.971424 S    
C27   C29   1.484095 S    
C19   C21   1.491005 S    
O1    C1    1.286184 A    
O16   C34   1.286374 A    
C52   H32   1.110512 S    
C21   C22   1.345753 D    
O20   Cu6   1.957004 S    
C3    C30   1.476902 S    
C44   H18   1.084936 S    
C27   C28   1.340560 D    
C23   C25   1.479519 S    
Cu2   O8    1.973293 S    
C47   H19   1.116153 S    
O19   Cu5   1.963685 S    
C6    C7    1.390373 A    
N1    O27   1.301819 A    
C50   H26   1.110844 S    
C50   H27   1.110550 S    
C51   C52   1.521681 S    
O17   Cu5   1.964333 S    
C53   H35   1.113607 S    
C23   C24   1.339454 D    
C48   H22   1.110603 S    
C9    C11   1.419393 A    
C40   H14   1.086211 S    
N6    O40   1.301737 A    
C52   H31   1.110686 S    
C20   C36   1.458329 S    
C16   C17   1.397503 A    
C25   C26   1.349880 D    
C51   H30   1.112397 S    
O23   C38   1.292208 A    
Cu1   O5    1.961820 S    
C10   C14   1.419539 A    
O10   C31   1.295687 A    
C33   C46   1.481614 S    
O14   C33   1.304278 A    
O1    Cu1   1.958629 S    
O2    Cu2   1.961821 S    
O8    C4    1.302271 A    
O6    C3    1.305545 A    
C11   C32   1.463173 S    
O4    Cu2   1.976284 S    
N5    O37   1.301756 A    
O11   Cu3   1.977943 S    
C24   C34   1.457387 S    
Cu3   O15   1.971524 S    
C48   H21   1.110548 S    
Cu4   O16   1.978064 S    
C28   C38   1.457947 S    
C31   C42   1.454937 S    
O2    C1    1.296370 A    
C52   H33   1.110692 S    
O20   C36   1.293589 A    
N3    O30   1.301020 A    
N5    O38   1.300691 A    
H1    C17   1.082588 S    
O4    C2    1.294351 A    
N2    O29   1.301516 A    
C29   N2    1.439061 S    
C28   H12   1.087290 S    
C19   H5    1.084801 S    
C49   H25   1.114943 S    
C53   H34   1.115830 S    
O24   C38   1.302231 A    
C43   C45   1.491876 S    
Cu1   Cu2   2.675591 S    
O13   C33   1.285355 A    
C15   H3    1.078668 S    
C48   H23   1.109085 S    
C9    C10   1.405769 A    
Cu2   O6    1.958628 S    
Cu6   O24   1.963683 S    
N1    O26   1.301237 A    
N6    O39   1.301644 A    
Cu5   O23   1.957004 S    
C11   C12   1.418575 A    
O19   C36   1.300890 A    
O17   C35   1.292670 A    
C43   C44   1.336804 D    
O21   C37   1.301459 A    
C8    N5    1.434372 S    
C39   C41   1.475866 S    
O36   C53   1.411869 S    
C51   H29   1.109772 S    
