data_mof_unit_17435.cif
_audit_creation_date              2013-03-05T15:49:07-0500
_audit_creation_method            fapswitch 2.2
_symmetry_space_group_name_H-M    P1
_symmetry_Int_Tables_number       1
_space_group_crystal_system       triclinic
_cell_length_a                    22.276335
_cell_length_b                    7.234262
_cell_length_c                    19.195772
_cell_angle_alpha                 89.988175
_cell_angle_beta                  99.32503
_cell_angle_gamma                 89.989265
_cell_volume                      3052.57319673

loop_
_atom_site_label
_atom_site_type_symbol
_atom_site_description
_atom_site_fract_x
_atom_site_fract_y
_atom_site_fract_z
_atom_type_partial_charge
O1    O     O_R   0.448470 0.506130 0.415700 -0.578487
O2    O     O_R   0.551530 0.006130 0.584300 -0.578508
O3    O     O_R   0.436320 0.174490 0.555800 -0.574145
O4    O     O_R   0.563680 0.674490 0.444200 -0.574079
C1    C     C_R   0.421108 0.344293 0.575009 0.928710
C2    C     C_R   0.578894 0.844292 0.424993 0.928772
O5    O     O_R   0.441350 0.176340 0.414480 -0.582578
O6    O     O_R   0.558650 0.676340 0.585520 -0.582529
O7    O     O_R   0.556600 0.007100 0.441970 -0.572174
O8    O     O_R   0.443400 0.507100 0.558030 -0.572231
C3    C     C_R   0.427120 0.344759 0.388925 0.901898
C4    C     C_R   0.572883 0.844694 0.611078 0.901829
O9    O     O_3   0.537810 0.339550 0.509190 -0.273004
O10   O     O_3   0.462190 0.839550 0.490810 -0.273097
V1    V     V_3+5 0.492990 0.064280 0.498300 1.215645
V2    V     V_3+5 0.507010 0.564280 0.501700 1.215763
C5    C     C_R   0.864428 0.050824 0.697854 -0.061954
C6    C     C_R   0.135286 0.548029 0.302415 -0.061835
H1    H     H_    0.949734 0.088894 0.767609 0.149366
H2    H     H_    0.049962 0.586174 0.232662 0.149291
C7    C     C_R   0.885535 0.947246 0.820147 -0.115838
C8    C     C_R   0.114456 0.446878 0.179840 -0.115534
C9    C     C_R   0.591238 0.821633 0.740514 -0.167776
C10   C     C_R   0.408859 0.323764 0.259440 -0.167968
C11   C     C_R   0.626757 0.845368 0.806303 -0.116629
C12   C     C_R   0.373360 0.348617 0.193695 -0.116631
C13   C     C_R   0.688159 0.896578 0.812800 -0.092189
C14   C     C_R   0.311907 0.399264 0.187290 -0.092610
C15   C     C_R   0.716921 0.902892 0.751277 0.027287
C16   C     C_R   0.283083 0.403628 0.248784 0.027422
C17   C     C_R   0.678649 0.891730 0.683855 0.104520
C18   C     C_R   0.321311 0.391385 0.316198 0.104386
C19   C     C_R   0.781424 0.926193 0.753709 0.121826
C20   C     C_R   0.218547 0.426068 0.246337 0.122095
C21   C     C_R   0.804010 0.979502 0.691201 0.020747
C22   C     C_R   0.195825 0.477600 0.308950 0.020408
C23   C     C_R   0.765694 0.957524 0.624824 -0.083107
C24   C     C_R   0.234131 0.454757 0.375298 -0.082893
C25   C     C_R   0.704123 0.915802 0.622372 -0.238918
C26   C     C_R   0.295760 0.413803 0.377707 -0.238993
C27   C     C_R   0.824648 0.892327 0.815597 -0.152148
C28   C     C_R   0.175430 0.392914 0.184312 -0.151735
C29   C     C_R   0.904175 0.031790 0.762006 -0.188274
C30   C     C_R   0.095622 0.529793 0.238167 -0.188576
C31   C     C_R   0.615473 0.852423 0.679000 -0.154827
C32   C     C_R   0.384535 0.352802 0.321007 -0.154678
H3    H     H_    0.811716 0.825237 0.861159 0.109201
H4    H     H_    0.188515 0.327060 0.138594 0.108721
H5    H     H_    0.543417 0.788879 0.737613 0.133704
H6    H     H_    0.456727 0.291657 0.262297 0.133726
H7    H     H_    0.604788 0.835789 0.852590 0.160597
H8    H     H_    0.395383 0.340480 0.147414 0.160723
H9    H     H_    0.676085 0.897550 0.571173 0.126341
H10   H     H_    0.323782 0.394807 0.428878 0.126160
C33   C     C_3   0.777799 0.821858 0.313531 -0.228204
C34   C     C_3   0.222207 0.321962 0.686470 -0.227107
C35   C     C_3   0.796896 0.008150 0.282311 -0.228442
C36   C     C_3   0.203111 0.508236 0.717696 -0.228175
H11   H     H_    0.833842 0.100618 0.307535 0.216814
H12   H     H_    0.166166 0.600781 0.692473 0.216839
H13   H     H_    0.799565 0.756856 0.363714 0.196667
H14   H     H_    0.200443 0.257050 0.636284 0.196631
C37   C     C_1   0.875611 0.941325 0.121474 -0.233252
C38   C     C_1   0.124387 0.441317 0.878526 -0.233068
C39   C     C_1   0.625244 0.853227 0.379958 -0.217751
C40   C     C_1   0.374761 0.353230 0.620048 -0.217617
C41   C     C_3   0.773096 0.735060 0.239429 0.449187
C42   C     C_3   0.226904 0.235058 0.760568 0.448736
C43   C     C_3   0.792139 0.916859 0.208521 -0.043973
C44   C     C_3   0.207862 0.416839 0.791482 -0.044213
C45   C     C_3   0.705249 0.786730 0.220822 -0.250953
C46   C     C_3   0.294752 0.286620 0.779182 -0.251320
C47   C     C_3   0.709965 0.878003 0.294580 -0.041806
C48   C     C_3   0.290041 0.377999 0.705427 -0.041848
C49   C     C_3   0.724304 0.973034 0.189644 -0.245277
C50   C     C_3   0.275697 0.472905 0.810365 -0.245056
C51   C     C_3   0.729033 0.059804 0.263729 0.448272
C52   C     C_3   0.270974 0.559782 0.736285 0.448048
C53   C     C_1   0.837910 0.931731 0.160570 0.179831
C54   C     C_1   0.162089 0.431715 0.839430 0.180002
C55   C     C_1   0.663632 0.862977 0.341772 0.191852
C56   C     C_1   0.336375 0.362978 0.658236 0.192511
H15   H     H_    0.702494 0.038204 0.139519 0.204191
H16   H     H_    0.297507 0.537980 0.860494 0.204453
H17   H     H_    0.668302 0.694231 0.195622 0.213195
H18   H     H_    0.331697 0.194044 0.804380 0.213243
O11   O     O_R   0.056650 0.288730 0.942060 -0.577707
O12   O     O_R   0.943350 0.788730 0.057940 -0.577600
O13   O     O_R   0.058660 0.616870 0.085540 -0.582305
O14   O     O_R   0.941340 0.116870 0.914460 -0.582437
C57   C     C_R   0.072637 0.449055 0.111463 0.922508
C58   C     C_R   0.927368 0.949121 0.888526 0.922715
O15   O     O_R   0.063700 0.618520 0.944220 -0.574876
O16   O     O_R   0.936300 0.118520 0.055780 -0.574826
O17   O     O_R   0.948460 0.787610 0.915680 -0.582590
O18   O     O_R   0.051540 0.287610 0.084320 -0.582558
C59   C     C_R   0.078796 0.450147 0.924598 0.945635
C60   C     C_R   0.921202 0.950148 0.075401 0.945789
O19   O     O_3   0.962230 0.453430 0.990860 -0.277197
O20   O     O_3   0.037770 0.953430 0.009140 -0.277277
V3    V     V_3+5 0.007010 0.728750 0.001700 1.212511
V4    V     V_3+5 0.992990 0.228750 0.998300 1.212547
N1    N     N_R   0.704105 0.239179 0.278149 0.250087
O21   O     O_R   0.670942 0.331032 0.227795 -0.408821
O22   O     O_R   0.712773 0.304463 0.342102 -0.357807
N2    N     N_R   0.295906 0.739146 0.721874 0.250097
O23   O     O_R   0.329066 0.830892 0.772235 -0.408774
O24   O     O_R   0.287243 0.804531 0.657924 -0.358229
N3    N     N_R   0.798060 0.555626 0.225148 0.251975
O25   O     O_R   0.831198 0.464006 0.275593 -0.389497
O26   O     O_R   0.789424 0.489991 0.161249 -0.380016
N4    N     N_R   0.201936 0.055635 0.774839 0.252018
O27   O     O_R   0.168801 0.964125 0.724386 -0.389678
O28   O     O_R   0.210566 0.989899 0.838734 -0.380197
C61   C     C_2   0.789500 0.948325 0.556901 1.046585
O29   O     O_2   0.759736 0.012371 0.503137 -0.611014
O30   O     O_R   0.844768 0.859454 0.553813 -0.788422
H19   H     H_    0.855716 0.860350 0.504563 0.338549
C62   C     C_2   0.210292 0.443793 0.443162 1.046842
O31   O     O_2   0.239899 0.507401 0.497085 -0.611913
O32   O     O_R   0.155186 0.353764 0.445993 -0.787998
H20   H     H_    0.144198 0.353500 0.495225 0.338477
C63   C     C_2   0.884874 0.171010 0.643492 1.035449
O33   O     O_2   0.937739 0.165208 0.633634 -0.592054
O34   O     O_R   0.844280 0.296458 0.605595 -0.787652
H21   H     H_    0.863693 0.371997 0.570706 0.355924
C64   C     C_2   0.114573 0.666459 0.357099 1.035383
O35   O     O_2   0.061718 0.659203 0.366929 -0.591881
O36   O     O_R   0.154894 0.791905 0.395366 -0.787051
H22   H     H_    0.135314 0.866140 0.430470 0.355935
C65   C     C_2   0.716205 0.971605 0.882476 0.972983
O37   O     O_2   0.707498 0.895192 0.936820 -0.627242
O38   O     O_R   0.750731 0.133835 0.886019 -0.788450
H23   H     H_    0.767299 0.171365 0.936352 0.334639
C66   C     C_2   0.283852 0.475913 0.117864 0.973238
O39   O     O_2   0.292822 0.401463 0.063259 -0.627628
O40   O     O_R   0.249028 0.637510 0.114877 -0.788579
H24   H     H_    0.232479 0.676254 0.064669 0.334783

loop_
_geom_bond_atom_site_label_1
_geom_bond_atom_site_label_2
_geom_bond_distance
_ccdc_geom_bond_type
C24   C26   1.397829 A    
C9    C31   1.393524 A    
O38   H23   1.013913 S    
O18   V4    1.977764 S    
C13   C15   1.432660 A    
C14   C66   1.484491 S    
C13   C65   1.484396 S    
O1    C3    1.332077 A    
C46   C50   1.561108 S    
O2    C4    1.332183 A    
C50   H16   1.110118 S    
C2    O7    1.338819 A    
N4    O28   1.300301 A    
O12   V3    1.964914 S    
C63   O33   1.223372 D    
C37   C53   1.215575 T    
O5    C3    1.332219 A    
C25   H9    1.083790 S    
C21   C23   1.423011 A    
C10   C12   1.388092 A    
C37   C60   1.452164 S    
C6    C30   1.402176 A    
N3    O26   1.300303 A    
C35   H11   1.109277 S    
N2    O23   1.299901 A    
O16   C60   1.334027 A    
C36   H12   1.109275 S    
C61   O29   1.223641 D    
C15   C19   1.440013 A    
C42   N4    1.455563 S    
O14   V4    1.992431 S    
C63   O34   1.398839 S    
C57   O18   1.333233 A    
C45   H17   1.109275 S    
O14   C58   1.329501 A    
C41   N3    1.455559 S    
C2    C39   1.451503 S    
C8    C30   1.393475 A    
C17   C25   1.400810 A    
C61   O30   1.398564 S    
C20   C28   1.423810 A    
C8    C57   1.481428 S    
O13   C57   1.329586 A    
C20   C22   1.427233 A    
C42   C46   1.541558 S    
O5    V1    1.992142 S    
O6    V2    1.992587 S    
C7    C29   1.393591 A    
C38   C54   1.215577 T    
C48   C56   1.483481 S    
C47   C55   1.483472 S    
N4    O27   1.299926 A    
H2    C30   1.084934 S    
H1    C29   1.084901 S    
C62   O32   1.398550 S    
C10   H6    1.083953 S    
C34   C48   1.549932 S    
C16   C20   1.439914 A    
C44   C54   1.484099 S    
C16   C18   1.431943 A    
C35   C51   1.541806 S    
C66   O39   1.223414 D    
C46   C48   1.550446 S    
O15   V3    1.974753 S    
C45   C47   1.550446 S    
C36   C44   1.550964 S    
C65   O38   1.398908 S    
C34   C42   1.542959 S    
C58   O17   1.333349 A    
C41   C43   1.530729 S    
O4    V2    1.974631 S    
C64   O36   1.398818 S    
C12   H8    1.083812 S    
C6    C64   1.485251 S    
C40   C56   1.215196 T    
O11   V4    1.964935 S    
C39   C55   1.215197 T    
O6    C4    1.332116 A    
O19   V4    1.760567 S    
C27   H3    1.079355 S    
N1    O22   1.300335 A    
O1    V2    1.976268 S    
C28   H4    1.079401 S    
O2    V1    1.976020 S    
C49   C51   1.542522 S    
O32   H20   1.013899 S    
C7    C27   1.402473 A    
C24   C62   1.486430 S    
O4    C2    1.341717 A    
C38   C59   1.452158 S    
C26   H10   1.083803 S    
C33   C35   1.561698 S    
C44   C50   1.549896 S    
O34   H21   1.013895 S    
C34   H14   1.110196 S    
C51   N1    1.455526 S    
C17   C31   1.424012 A    
C65   O37   1.223425 D    
O15   C59   1.334056 A    
N1    O21   1.299897 A    
O3    V1    1.974624 S    
C35   C43   1.550966 S    
O36   H22   1.013913 S    
C66   O40   1.398913 S    
O13   V3    1.991989 S    
C18   C32   1.423998 A    
C50   C52   1.542524 S    
C4    C31   1.484026 S    
O3    C1    1.341740 A    
C33   C41   1.542956 S    
C62   O31   1.223620 D    
C23   C61   1.486524 S    
C46   H18   1.109273 S    
C11   C13   1.403071 A    
C9    H5    1.083947 S    
O40   H24   1.013917 S    
C12   C14   1.403086 A    
C11   H7    1.083824 S    
C52   N2    1.455531 S    
C19   C27   1.423918 A    
C22   C24   1.423096 A    
O7    V1    1.960790 S    
C10   C32   1.393556 A    
C1    O8    1.338846 A    
C15   C17   1.432066 A    
O8    V2    1.960809 S    
N3    O25   1.299923 A    
C1    C40   1.451496 S    
C45   C49   1.561106 S    
C49   H15   1.110117 S    
C8    C28   1.402383 A    
N2    O24   1.300332 A    
C33   H13   1.110197 S    
C14   C16   1.432605 A    
O20   V3    1.760859 S    
C19   C21   1.427281 A    
C34   C36   1.561696 S    
C43   C49   1.549892 S    
C41   C45   1.541548 S    
C18   C26   1.400767 A    
C43   C53   1.484091 S    
C36   C52   1.541812 S    
C33   C47   1.549927 S    
O17   V3    1.977511 S    
C9    C11   1.388052 A    
O16   V4    1.974760 S    
C23   C25   1.397770 A    
C48   C52   1.530462 S    
O9    V2    1.761253 S    
C5    C29   1.402119 A    
C42   C44   1.530726 S    
C47   C51   1.530463 S    
O10   V1    1.761545 S    
C3    C32   1.483966 S    
C5    C21   1.427778 A    
C5    C63   1.485301 S    
O30   H19   1.013911 S    
C6    C22   1.427899 A    
O12   C60   1.331513 A    
C64   O35   1.223395 D    
O11   C59   1.331535 A    
C7    C58   1.481577 S    
