data_mof_unit_58657.cif
_audit_creation_date              2012-12-10T16:58:26-0500
_audit_creation_method            fapswitch 2.2
_symmetry_space_group_name_H-M    P1
_symmetry_Int_Tables_number       1
_space_group_crystal_system       triclinic
_cell_length_a                    7.744015
_cell_length_b                    8.563577
_cell_length_c                    23.421418
_cell_angle_alpha                 90.942551
_cell_angle_beta                  85.937485
_cell_angle_gamma                 93.711031
_cell_volume                      1545.96452679

loop_
_atom_site_label
_atom_site_type_symbol
_atom_type_description
_atom_site_fract_x
_atom_site_fract_y
_atom_site_fract_z
_atom_type_partial_charge
C1    C     C_R   0.545912 0.794841 0.498506 0.975325
C2    C     C_R   0.454087 0.205159 0.501494 0.975326
C3    C     C_R   0.670287 0.486744 0.756757 -0.092501
C4    C     C_R   0.329701 0.513162 0.243243 -0.092481
C5    C     C_R   0.666234 0.488272 0.697596 -0.214156
C6    C     C_R   0.333753 0.511626 0.302403 -0.214158
C7    C     C_R   0.507541 0.498174 0.672710 -0.039407
C8    C     C_R   0.492461 0.501835 0.327290 -0.039399
C9    C     C_R   0.353309 0.506227 0.707635 -0.206481
C10   C     C_R   0.646709 0.493907 0.292367 -0.206497
C11   C     C_R   0.357861 0.504563 0.766670 -0.100510
C12   C     C_R   0.642158 0.495579 0.233331 -0.100493
C13   C     C_R   0.516094 0.494884 0.791113 0.327502
C14   C     C_R   0.483910 0.505142 0.208887 0.327470
C15   C     C_2   0.570157 0.958315 0.497646 -0.372387
C16   C     C_2   0.429843 0.041685 0.502354 -0.372387
C17   C     C_R   0.502366 0.499779 0.610632 0.875037
C18   C     C_R   0.497635 0.500222 0.389368 0.875039
C19   C     C_R   0.423886 0.370967 0.121065 0.508414
C20   C     C_R   0.576129 0.629055 0.878934 0.508417
C21   C     C_R   0.541258 0.636007 0.119475 0.509306
C22   C     C_R   0.458741 0.364021 0.880524 0.509313
C23   C     C_R   0.550229 0.636168 0.059889 -0.048909
C24   C     C_R   0.449774 0.363858 0.940110 -0.048912
C25   C     C_R   0.494681 0.499874 0.030156 -0.056138
C26   C     C_R   0.505325 0.500152 0.969843 -0.056139
C27   C     C_R   0.429138 0.363753 0.060690 -0.026163
C28   C     C_R   0.570871 0.636272 0.939309 -0.026165
C29   C     C_R   0.615276 0.769822 0.030034 -0.172185
C30   C     C_R   0.384727 0.230205 0.969965 -0.172185
C31   C     C_R   0.626307 0.772842 0.970338 0.160309
C32   C     C_R   0.373699 0.227183 0.029661 0.160307
H1    H     H_    0.658744 0.873460 0.053501 0.191892
H2    H     H_    0.341257 0.126566 0.946498 0.191890
H3    H     H_    0.792622 0.479415 0.775975 0.136114
H4    H     H_    0.207354 0.520401 0.224024 0.136122
H5    H     H_    0.786838 0.482036 0.671500 0.160432
H6    H     H_    0.213135 0.517763 0.328499 0.160418
H7    H     H_    0.229363 0.513795 0.689473 0.162095
H8    H     H_    0.770666 0.486432 0.310529 0.162091
H9    H     H_    0.238830 0.511345 0.793564 0.136780
H10   H     H_    0.761202 0.488891 0.206439 0.136791
H11   H     H_    0.702621 0.009505 0.493156 0.180775
H12   H     H_    0.297379 0.990495 0.506844 0.180775
H13   H     H_    0.014072 0.382890 0.456870 0.191485
H14   H     H_    0.985928 0.617110 0.543130 0.191488
N1    N     N_R   0.480509 0.504768 0.148280 -0.357966
N2    N     N_R   0.519498 0.495257 0.851719 -0.357971
N3    N     N_2   0.950330 0.457950 0.484560 -0.175612
N4    N     N_2   0.049670 0.542050 0.515440 -0.175612
O1    O     O_R   0.389250 0.738570 0.503790 -0.610989
O2    O     O_R   0.610750 0.261430 0.496210 -0.610989
O3    O     O_R   0.678390 0.711620 0.493890 -0.628692
O4    O     O_R   0.321610 0.288380 0.506110 -0.628692
O5    O     O_R   0.355400 0.513520 0.588790 -0.621230
O6    O     O_R   0.644600 0.486480 0.411210 -0.621230
O7    O     O_R   0.644550 0.486570 0.578900 -0.629784
O8    O     O_R   0.355450 0.513430 0.421100 -0.629781
O9    O     O_2   0.365213 0.246400 0.152926 -0.550770
O10   O     O_2   0.634818 0.753616 0.847073 -0.550767
O11   O     O_2   0.593210 0.765827 0.148771 -0.551778
O12   O     O_2   0.406776 0.234205 0.851227 -0.551774
Zn1   Zn    Zn3+2 0.306930 0.518000 0.506610 0.949051
Zn2   Zn    Zn3+2 0.693070 0.482000 0.493390 0.949050
C33   C     C_3   0.698020 0.923538 0.942328 -0.762296
H15   H     H_    0.732476 0.015858 0.974194 0.207441
H16   H     H_    0.818213 0.902799 0.915320 0.267218
H17   H     H_    0.599581 0.970830 0.916294 0.278772
C34   C     C_3   0.301982 0.076488 0.057670 -0.762291
H18   H     H_    0.267518 0.984171 0.025805 0.207439
H19   H     H_    0.400422 0.029191 0.083703 0.278778
H20   H     H_    0.181794 0.097230 0.084681 0.267214

loop_
_geom_bond_atom_site_label_1
_geom_bond_atom_site_label_2
_ccdc_geom_bond_type
C13   N2    S    
C12   H10   S    
C22   O12   S    
C4    H4    S    
C32   C34   S    
C1    C15   S    
H13   N3    S    
C34   H20   S    
C2    C16   S    
C3    H3    S    
C17   O5    A    
C21   O11   S    
C3    C13   A    
O1    Zn1   S    
C18   O6    A    
C3    C5    A    
C33   H17   S    
C7    C9    A    
N3    N4    D    
O6    Zn2   S    
C25   C26   A    
C15   H11   S    
C29   C31   A    
N3    Zn2   S    
C30   C32   A    
N4    Zn1   S    
C1    O1    A    
C24   C26   A    
C20   N2    A    
O5    Zn1   S    
C2    O2    A    
C11   C13   A    
C10   C12   A    
C8    C10   A    
C26   C28   A    
C12   C14   A    
C22   N2    A    
C11   H9    S    
C19   N1    A    
O2    Zn2   S    
C9    C11   A    
C21   C23   A    
C4    C14   A    
C34   H18   S    
O3    Zn2   S    
C22   C24   A    
C20   O10   S    
C4    C6    A    
C25   C27   A    
O4    Zn1   S    
C30   H2    S    
C24   C30   A    
C1    O3    A    
C15   C16   D    
C23   C29   A    
C9    H7    S    
C23   C25   A    
C19   C27   A    
O7    Zn2   S    
C34   H19   S    
C33   H15   S    
C2    O4    A    
O8    Zn1   S    
C31   C33   S    
H14   N4    S    
C5    C7    A    
C5    H5    S    
C10   H8    S    
C6    C8    A    
C20   C28   A    
C19   O9    S    
C27   C32   A    
C14   N1    S    
C6    H6    S    
C16   H12   S    
C28   C31   A    
C8    C18   S    
C33   H16   S    
C29   H1    S    
C17   O7    A    
C18   O8    A    
C21   N1    A    
C7    C17   S    
