data_mof_unit_23292.cif
_audit_creation_date              2012-12-10T17:53:09-0500
_audit_creation_method            fapswitch 2.2
_symmetry_space_group_name_H-M    P1
_symmetry_Int_Tables_number       1
_space_group_crystal_system       triclinic
_cell_length_a                    14.73164
_cell_length_b                    14.896299
_cell_length_c                    27.715822
_cell_angle_alpha                 74.998448
_cell_angle_beta                  102.706734
_cell_angle_gamma                 115.394296
_cell_volume                      5265.68742968

loop_
_atom_site_label
_atom_site_type_symbol
_atom_type_description
_atom_site_fract_x
_atom_site_fract_y
_atom_site_fract_z
_atom_type_partial_charge
C1    C     C_R   0.880391 0.312360 0.505635 0.862885
C2    C     C_R   0.120397 0.687848 0.491518 0.821440
C3    C     C_R   0.984427 0.506319 0.896139 -0.131071
C4    C     C_R   0.996458 0.523286 0.098332 -0.128711
C5    C     C_R   0.936416 0.412284 0.880382 -0.059931
C6    C     C_R   0.075456 0.602378 0.119875 -0.061152
C7    C     C_R   0.893829 0.323920 0.915250 -0.260512
C8    C     C_R   0.150214 0.676069 0.090878 -0.262743
C9    C     C_R   0.030791 0.595186 0.861544 -0.205396
C10   C     C_R   0.922893 0.446988 0.127921 -0.212765
C11   C     C_R   0.995666 0.493292 0.646293 -0.179310
C12   C     C_R   0.007638 0.509487 0.354345 -0.144790
C13   C     C_R   0.920766 0.434331 0.027419 -0.129925
C14   C     C_R   0.044332 0.602997 0.964098 -0.114766
C15   C     C_R   0.061141 0.600976 0.016755 -0.008674
C16   C     C_R   0.931892 0.423268 0.979923 -0.015600
C17   C     C_R   0.992464 0.519694 0.047419 -0.046500
C18   C     C_R   0.986711 0.510987 0.946700 -0.042140
C19   C     C_R   0.840545 0.364340 0.055401 0.390312
C20   C     C_R   0.080979 0.693178 0.928211 0.347674
C21   C     C_R   0.845925 0.366159 0.106258 0.362933
C22   C     C_R   0.079485 0.688892 0.878006 0.345381
C23   C     C_R   0.999121 0.498546 0.592676 0.885472
C24   C     C_R   0.001306 0.501591 0.407546 0.847943
C25   C     C_R   0.894754 0.327928 0.965060 0.476515
C26   C     C_R   0.146325 0.673786 0.040476 0.486981
C27   C     C_R   0.813784 0.205096 0.502504 -0.335051
C28   C     C_R   0.191681 0.795468 0.485969 -0.370909
C29   C     C_R   0.786139 0.033763 0.496960 0.434462
C30   C     C_R   0.231565 0.977290 0.459527 0.416496
C31   C     C_R   0.853525 0.131868 0.505077 0.293128
C32   C     C_R   0.161419 0.875963 0.461123 0.315510
C33   C     C_R   0.707861 0.176333 0.493165 0.396652
C34   C     C_R   0.295189 0.818026 0.503443 0.412359
C35   C     C_R   0.643212 0.072705 0.500974 -0.120679
C36   C     C_R   0.366396 0.916988 0.492387 -0.100871
C37   C     C_R   0.682117 0.001897 0.499612 -0.136615
C38   C     C_R   0.332268 0.995563 0.481783 -0.185808
C39   C     C_R   0.538789 0.039331 0.504836 -0.084807
C40   C     C_R   0.471465 0.941326 0.496644 -0.031373
C41   C     C_R   0.511010 0.874677 0.489571 0.480356
C42   C     C_R   0.497752 0.100071 0.517124 0.522880
C43   C     C_R   0.615392 0.901783 0.497048 -0.268514
C44   C     C_R   0.396850 0.084376 0.499706 -0.281097
C45   C     C_R   0.936315 0.408099 0.830469 0.576367
C46   C     C_R   0.081402 0.602741 0.170971 0.582523
C47   C     C_R   0.681746 0.608201 0.399157 0.212696
C48   C     C_R   0.289006 0.345709 0.596137 0.216669
C49   C     C_R   0.777409 0.604715 0.418508 0.425540
C50   C     C_R   0.201864 0.367211 0.574945 0.446999
C51   C     C_R   0.725285 0.533452 0.499512 0.526750
C52   C     C_R   0.287256 0.482120 0.506371 0.569354
C53   C     C_R   0.620976 0.515092 0.479908 -0.219126
C54   C     C_R   0.367019 0.446994 0.520596 -0.137649
C55   C     C_R   0.600588 0.551321 0.427841 -0.112158
C56   C     C_R   0.373663 0.388154 0.569012 -0.211520
C57   C     C_R   0.537261 0.465473 0.509581 -0.177585
C58   C     C_R   0.442913 0.473791 0.488711 0.001981
C59   C     C_R   0.421518 0.495663 0.435646 0.416240
C60   C     C_R   0.540867 0.403205 0.558023 0.369990
C61   C     C_R   0.499597 0.532119 0.405374 0.342436
C62   C     C_R   0.463346 0.370403 0.588028 0.457141
C63   C     C_R   0.025862 0.587211 0.811314 0.675014
C64   C     C_R   0.928261 0.454927 0.178176 0.673061
C65   C     C_R   0.076481 0.503367 0.732709 0.302176
C66   C     C_R   0.033003 0.447250 0.287298 0.327612
C67   C     C_R   0.083028 0.507018 0.682063 0.314128
C68   C     C_R   0.026282 0.436819 0.338831 0.300154
C69   C     C_R   0.903328 0.474134 0.661678 -0.393401
C70   C     C_R   0.996855 0.591732 0.319236 -0.442801
C71   C     C_R   0.896726 0.470454 0.711806 0.430606
C72   C     C_R   0.004247 0.603287 0.268280 0.433859
C73   C     C_R   0.984177 0.488621 0.746813 0.151997
C74   C     C_R   0.017127 0.528054 0.252006 0.148433
Cu1   Cu    Cu3+1 0.081740 0.475690 0.513040 1.015477
Cu2   Cu    Cu3+1 0.918260 0.524310 0.486960 1.031121
H1    H     H_    0.835976 0.462583 0.634686 0.245793
H2    H     H_    0.982431 0.647082 0.331515 0.190527
H3    H     H_    0.861931 0.250444 0.904481 0.199482
H4    H     H_    0.214575 0.734210 0.107604 0.200745
H5    H     H_    0.643272 0.846001 0.495959 0.199340
H6    H     H_    0.367977 0.137670 0.503452 0.177191
N1    N     N_R   0.980616 0.494726 0.797205 -0.418406
N2    N     N_R   0.008383 0.529783 0.199025 -0.416982
N3    N     N_R   0.795430 0.560780 0.467350 -0.203958
N4    N     N_R   0.204570 0.439220 0.532650 -0.282240
O1    O     O_R   0.977900 0.338120 0.517190 -0.533247
O2    O     O_R   0.022100 0.661880 0.482810 -0.513470
O3    O     O_R   0.839850 0.379180 0.495160 -0.548599
O4    O     O_R   0.160150 0.620820 0.504840 -0.565747
O5    O     O_R   0.069030 0.479490 0.580750 -0.491197
O6    O     O_R   0.930970 0.520510 0.419250 -0.563645
O7    O     O_R   0.930970 0.520550 0.558720 -0.534824
O8    O     O_R   0.069030 0.479450 0.441280 -0.590978
O9    O     O_2   0.893867 0.318004 0.815453 -0.591668
O10   O     O_2   0.160942 0.674008 0.192699 -0.592016
O11   O     O_2   0.853991 0.389130 0.206167 -0.502777
O12   O     O_2   0.065968 0.670663 0.776629 -0.486979
O13   O     O_3   0.326958 0.745461 0.534999 -0.503511
C75   C     C_3   0.327817 0.748050 0.585782 0.122020
H7    H     H_    0.253450 0.694048 0.598287 0.180102
H8    H     H_    0.341684 0.824312 0.592017 0.069427
C76   C     C_3   0.411994 0.717997 0.618842 -0.340809
H9    H     H_    0.486774 0.777196 0.609239 0.207998
H10   H     H_    0.407525 0.713822 0.658928 0.175316
C77   C     C_3   0.404309 0.616166 0.612273 -0.694358
H11   H     H_    0.328026 0.556721 0.618602 0.262649
H12   H     H_    0.461636 0.593892 0.639848 0.204613
H13   H     H_    0.419255 0.621772 0.573828 0.285022
O14   O     O_3   0.668061 0.249877 0.475975 -0.551197
C78   C     C_3   0.627181 0.251337 0.424541 0.048145
H14   H     H_    0.561138 0.272335 0.418583 0.157618
H15   H     H_    0.598011 0.176521 0.412883 0.120918
C79   C     C_3   0.705561 0.331082 0.390796 -0.341610
H16   H     H_    0.730935 0.405774 0.401492 0.246397
H17   H     H_    0.772219 0.311281 0.396105 0.208658
C80   C     C_3   0.661612 0.338842 0.335389 -0.884032
H18   H     H_    0.636345 0.265201 0.323480 0.260784
H19   H     H_    0.720564 0.397088 0.312108 0.280358
H20   H     H_    0.596350 0.361162 0.328941 0.246922
O15   O     O_3   0.061957 0.857036 0.441229 -0.554367
C81   C     C_3   0.049366 0.851824 0.389821 0.140732
H21   H     H_    0.027553 0.772518 0.386402 0.178784
H22   H     H_    0.118980 0.897573 0.371188 0.078825
C82   C     C_3   0.966476 0.888819 0.362218 -0.314845
H23   H     H_    0.896156 0.841436 0.379948 0.234546
H24   H     H_    0.989696 0.968350 0.366206 0.218496
C83   C     C_3   0.945605 0.883813 0.306394 -0.965287
H25   H     H_    0.015167 0.931511 0.288101 0.255826
H26   H     H_    0.886057 0.912686 0.287686 0.262861
H27   H     H_    0.918759 0.804565 0.301318 0.272159
O16   O     O_3   0.955124 0.150696 0.521300 -0.546946
C84   C     C_3   0.013759 0.195306 0.480607 0.120266
H28   H     H_    0.068844 0.272602 0.485089 0.212916
H29   H     H_    0.968991 0.204654 0.443196 0.098205
C85   C     C_3   0.074651 0.134193 0.480698 -0.345053
H30   H     H_    0.024805 0.052792 0.483592 0.262257
H31   H     H_    0.106884 0.161009 0.444545 0.203185
C86   C     C_3   0.160707 0.146846 0.524146 -0.692864
H32   H     H_    0.219431 0.224958 0.517837 0.219636
H33   H     H_    0.196066 0.093237 0.526389 0.250357
H34   H     H_    0.131873 0.130980 0.560549 0.275989
O17   O     O_3   0.821673 0.967050 0.488774 -0.583643
C87   C     C_3   0.829987 0.983146 0.436643 0.039859
H35   H     H_    0.877456 0.944462 0.433313 0.186134
H36   H     H_    0.869221 0.063958 0.420471 0.116347
C88   C     C_3   0.727654 0.940413 0.404194 -0.404168
H37   H     H_    0.689107 0.857919 0.418129 0.233000
H38   H     H_    0.679719 0.979790 0.405848 0.210653
C89   C     C_3   0.739832 0.957653 0.348878 -0.884632
H39   H     H_    0.782191 0.039182 0.334317 0.255781
H40   H     H_    0.663914 0.932145 0.326454 0.266358
H41   H     H_    0.780097 0.913463 0.343996 0.257970
O18   O     O_3   0.196901 0.053993 0.437575 -0.611325
C90   C     C_3   0.258190 0.130429 0.401654 0.055620
H42   H     H_    0.338000 0.167892 0.417319 0.149889
H43   H     H_    0.229100 0.191392 0.389975 0.162216
C91   C     C_3   0.253017 0.092956 0.354106 -0.397673
H44   H     H_    0.278108 0.029246 0.364127 0.204454
H45   H     H_    0.173932 0.067391 0.335106 0.222650
C92   C     C_3   0.321483 0.177112 0.317468 -0.914594
H46   H     H_    0.299810 0.243007 0.307314 0.254807
H47   H     H_    0.313683 0.149251 0.282671 0.262722
H48   H     H_    0.401886 0.201349 0.334695 0.255668
O19   O     O_3   0.449038 0.783703 0.474176 -0.551492
C93   C     C_3   0.445517 0.794260 0.421538 0.116277
H49   H     H_    0.442938 0.723028 0.414529 0.206079
H50   H     H_    0.513350 0.856132 0.405523 0.094512
C94   C     C_3   0.350144 0.810364 0.393498 -0.366489
H51   H     H_    0.282371 0.751296 0.410548 0.230344
H52   H     H_    0.356048 0.885585 0.396562 0.191736
C95   C     C_3   0.336241 0.805855 0.337904 -0.892571
H53   H     H_    0.403599 0.863406 0.319948 0.262863
H54   H     H_    0.268835 0.821814 0.318666 0.234498
H55   H     H_    0.324455 0.729448 0.333448 0.275525
O20   O     O_3   0.553244 0.173564 0.546172 -0.580022
C96   C     C_3   0.582974 0.128772 0.595350 0.097043
H56   H     H_    0.645207 0.189737 0.613363 0.190466
H57   H     H_    0.614897 0.073165 0.595440 0.123821
C97   C     C_3   0.495085 0.079831 0.627360 -0.355671
H58   H     H_    0.469602 0.138290 0.630140 0.282741
H59   H     H_    0.430225 0.020609 0.609388 0.205252
C98   C     C_3   0.526927 0.030947 0.680090 -0.923771
H60   H     H_    0.546823 0.968146 0.678043 0.255295
H61   H     H_    0.463322 0.999820 0.702984 0.269776
H62   H     H_    0.593325 0.087571 0.698798 0.260534
O21   O     O_3   0.473977 0.543237 0.353800 -0.726180
H63   H     H_    0.515786 0.520468 0.340214 0.354492
O22   O     O_3   0.478543 0.320655 0.636378 -0.688726
H64   H     H_    0.468676 0.356722 0.658975 0.343255
O23   O     O_3   0.301116 0.566884 0.469228 -0.679490
H65   H     H_    0.237011 0.575040 0.457990 0.370793
O24   O     O_3   0.760241 0.535511 0.549613 -0.690484
H66   H     H_    0.717228 0.556153 0.563577 0.328056
O25   O     O_3   0.113353 0.317622 0.596688 -0.664485
H67   H     H_    0.107657 0.248354 0.613342 0.324395
O26   O     O_3   0.853669 0.645578 0.388620 -0.735054
H68   H     H_    0.823131 0.638253 0.353487 0.311775
O27   O     O_3   0.666516 0.667839 0.353316 -0.706158
H69   H     H_    0.731759 0.723812 0.345268 0.330114
O28   O     O_3   0.290168 0.280244 0.641580 -0.712681
H70   H     H_    0.248364 0.286491 0.663064 0.327379
O29   O     O_3   0.321335 0.466597 0.414091 -0.720282
H71   H     H_    0.317226 0.497142 0.377869 0.356478
O30   O     O_3   0.614796 0.365308 0.576454 -0.694676
H72   H     H_    0.637824 0.357022 0.547547 0.383411
O31   O     O_3   0.807628 0.458824 0.726378 -0.586680
C99   C     C_3   0.731943 0.362026 0.721190 0.078207
H73   H     H_    0.763338 0.302395 0.731501 0.167211
H74   H     H_    0.694415 0.363436 0.681680 0.195006
C100  C     C_3   0.652894 0.334586 0.756035 -0.291153
H75   H     H_    0.691383 0.343537 0.794833 0.237040
H76   H     H_    0.613109 0.386948 0.742874 0.216159
C101  C     C_3   0.575454 0.225840 0.757530 -0.907200
H77   H     H_    0.536938 0.213721 0.719188 0.301042
H78   H     H_    0.517568 0.210048 0.781786 0.257448
H79   H     H_    0.613187 0.172151 0.773412 0.259635
O32   O     O_3   0.989378 0.682535 0.233219 -0.582251
C102  C     C_3   0.068105 0.775307 0.242724 0.082060
H80   H     H_    0.143804 0.772155 0.247651 0.186483
H81   H     H_    0.059971 0.794332 0.277268 0.116606
C103  C     C_3   0.063478 0.859500 0.198225 -0.297300
H82   H     H_    0.065396 0.838513 0.162882 0.241338
H83   H     H_    0.991287 0.868673 0.195176 0.219838
C104  C     C_3   0.152347 0.959857 0.204327 -0.941310
H84   H     H_    0.153305 0.982291 0.239703 0.248986
H85   H     H_    0.145244 0.019814 0.172085 0.259239
H86   H     H_    0.225041 0.953367 0.205114 0.270837
O33   O     O_3   0.032869 0.354812 0.374325 -0.761659
H87   H     H_    0.030838 0.302880 0.357467 0.334215
O34   O     O_3   0.173469 0.526078 0.666377 -0.735434
H88   H     H_    0.227935 0.535239 0.695144 0.347383
O35   O     O_3   0.041990 0.372482 0.269885 -0.608687
C105  C     C_3   0.143421 0.380454 0.280010 0.001436
H89   H     H_    0.141092 0.303856 0.282473 0.175556
H90   H     H_    0.182631 0.403404 0.316802 0.154975
C106  C     C_3   0.204329 0.453390 0.237370 -0.342237
H91   H     H_    0.158451 0.439590 0.200362 0.226303
H92   H     H_    0.223077 0.532144 0.240812 0.245478
C107  C     C_3   0.302783 0.441109 0.239466 -0.885837
H93   H     H_    0.348331 0.500421 0.210588 0.265127
H94   H     H_    0.347657 0.448655 0.277114 0.281306
H95   H     H_    0.286197 0.365953 0.231450 0.247911
O36   O     O_3   0.162197 0.523008 0.767798 -0.609338
C108  C     C_3   0.164166 0.430967 0.797745 0.040134
H96   H     H_    0.210797 0.406815 0.781495 0.151060
H97   H     H_    0.087761 0.367934 0.800068 0.165947
C109  C     C_3   0.212431 0.448410 0.851118 -0.320900
H98   H     H_    0.292015 0.504497 0.850123 0.219807
H99   H     H_    0.170301 0.479550 0.866169 0.214887
C110  C     C_3   0.210998 0.350403 0.886334 -0.920620
H100  H     H_    0.131740 0.294597 0.889219 0.261404
H101  H     H_    0.247666 0.366154 0.924482 0.254745
H102  H     H_    0.253010 0.317755 0.872273 0.258003
O37   O     O_3   0.773833 0.287972 0.134140 -0.562962
C111  C     C_3   0.809886 0.210784 0.157907 0.144914
H103  H     H_    0.807683 0.197622 0.199048 0.195148
H104  H     H_    0.889794 0.229511 0.152886 0.092924
C112  C     C_3   0.740354 0.112736 0.138883 -0.350196
H105  H     H_    0.661316 0.091989 0.145236 0.233451
H106  H     H_    0.742193 0.124097 0.097847 0.263317
C113  C     C_3   0.773109 0.026174 0.165909 -0.932721
H107  H     H_    0.851292 0.044493 0.159168 0.252409
H108  H     H_    0.721160 0.956172 0.151371 0.270007
H109  H     H_    0.770411 0.012087 0.207050 0.262478
O38   O     O_3   0.119841 0.778330 0.844487 -0.552643
C114  C     C_3   0.225909 0.808345 0.849695 0.113962
H110  H     H_    0.245012 0.747649 0.843529 0.138564
H111  H     H_    0.261124 0.826068 0.887821 0.156315
C115  C     C_3   0.270027 0.903311 0.810407 -0.280506
H112  H     H_    0.235304 0.886861 0.772122 0.252148
H113  H     H_    0.251720 0.964523 0.816211 0.222868
C116  C     C_3   0.384738 0.939538 0.813948 -0.952872
H114  H     H_    0.421290 0.957701 0.851741 0.261773
H115  H     H_    0.414148 0.008818 0.785152 0.268640
H116  H     H_    0.404730 0.880422 0.807016 0.262888
O39   O     O_3   0.754556 0.293752 0.033784 -0.565024
C117  C     C_3   0.692518 0.341703 0.001842 0.075859
H117  H     H_    0.647931 0.295210 0.972600 0.172859
H118  H     H_    0.736216 0.418698 0.981249 0.118648
C118  C     C_3   0.618894 0.346390 0.031588 -0.325598
H119  H     H_    0.575967 0.269225 0.051877 0.243137
H120  H     H_    0.662009 0.395793 0.059787 0.229358
C119  C     C_3   0.544431 0.388319 0.996947 -0.933953
H121  H     H_    0.585815 0.466046 0.976781 0.257010
H122  H     H_    0.492620 0.391267 0.019614 0.262548
H123  H     H_    0.498466 0.338988 0.969033 0.258354
O40   O     O_3   0.114711 0.787320 0.940759 -0.561635
C120  C     C_3   0.030303 0.810479 0.938553 0.096092
H124  H     H_    0.982414 0.758078 0.968407 0.131178
H125  H     H_    0.983710 0.805065 0.900947 0.150402
C121  C     C_3   0.068054 0.918706 0.947053 -0.302898
H126  H     H_    0.113752 0.925222 0.984651 0.229305
H127  H     H_    0.117265 0.971371 0.917887 0.229144
C122  C     C_3   0.980221 0.949226 0.944235 -0.942890
H128  H     H_    0.932706 0.942078 0.907151 0.264463
H129  H     H_    0.010400 0.029215 0.948751 0.261331
H130  H     H_    0.932749 0.900748 0.974689 0.260074
O41   O     O_3   0.862326 0.236962 0.998677 -0.577399
C123  C     C_3   0.945963 0.222870 0.031152 0.067011
H131  H     H_    0.918521 0.176565 0.067494 0.166878
H132  H     H_    0.008361 0.294582 0.040236 0.117453
C124  C     C_3   0.986976 0.165523 0.009059 -0.372098
H133  H     H_    0.924364 0.093923 0.000502 0.236216
H134  H     H_    0.017909 0.212214 0.973472 0.212964
C125  C     C_3   0.070635 0.140906 0.045738 -0.914583
H135  H     H_    0.134547 0.211610 0.054386 0.255689
H136  H     H_    0.099349 0.099980 0.028682 0.262726
H137  H     H_    0.040949 0.092119 0.081246 0.255221
O42   O     O_3   0.229871 0.740448 0.016315 -0.573248
C126  C     C_3   0.286627 0.688257 0.010585 0.056114
H138  H     H_    0.329303 0.732600 0.977952 0.160805
H139  H     H_    0.238652 0.611631 0.001527 0.117969
C127  C     C_3   0.362606 0.680804 0.057553 -0.365042
H140  H     H_    0.410525 0.757695 0.065891 0.235788
H141  H     H_    0.321347 0.633924 0.090364 0.214677
C128  C     C_3   0.430410 0.632914 0.050067 -0.902443
H142  H     H_    0.383989 0.555310 0.042399 0.252272
H143  H     H_    0.484212 0.628192 0.084707 0.264062
H144  H     H_    0.474461 0.679419 0.018134 0.255105

loop_
_geom_bond_atom_site_label_1
_geom_bond_atom_site_label_2
_ccdc_geom_bond_type
C1    O1    A    
C8    C26   A    
C51   N3    A    
C79   H16   S    
C124  H134  S    
C109  H98   S    
C118  C119  S    
C119  H121  S    
C63   O12   S    
C80   H19   S    
C86   H34   S    
C60   O30   S    
C77   H11   S    
O17   C87   S    
C111  C112  S    
C116  H116  S    
O36   C108  S    
C30   C38   A    
C60   C62   A    
C20   O40   S    
C2    O4    A    
O14   C78   S    
C64   N2    A    
Cu1   O4    S    
C11   C67   A    
C95   H55   S    
C71   O31   S    
C67   O34   S    
O27   H69   S    
C108  H96   S    
C90   C91   S    
C41   C43   A    
C42   C44   A    
C52   N4    A    
C92   H47   S    
C109  H99   S    
C10   C21   A    
C65   O36   S    
C27   C31   A    
O23   H65   S    
C28   C32   A    
C88   C89   S    
C71   C73   A    
C127  H140  S    
C105  C106  S    
C128  H144  S    
Cu1   Cu2   S    
O33   H87   S    
C89   H40   S    
C50   O25   S    
C22   O38   S    
Cu1   N4    S    
C124  H133  S    
C125  H135  S    
C78   H15   S    
O18   C90   S    
C46   N2    A    
C64   O11   S    
C91   H44   S    
C56   C62   A    
C123  H131  S    
C7    H3    S    
C16   C25   A    
C32   O15   S    
C119  H123  S    
C87   H35   S    
C112  H106  S    
C86   H32   S    
C72   O32   S    
C121  H127  S    
C42   O20   S    
C11   C23   S    
O25   H67   S    
C30   O18   S    
C46   O10   S    
O24   H66   S    
C108  C109  S    
C90   H42   S    
C82   H24   S    
Cu2   N3    S    
C73   N1    S    
C69   H1    S    
C78   H14   S    
C83   H25   S    
C104  H86   S    
C122  H129  S    
C49   O26   S    
C27   C33   A    
C12   C68   A    
C19   C21   A    
C114  C115  S    
C101  H78   S    
C102  H81   S    
C66   C74   A    
C96   H57   S    
C111  H104  S    
O35   C105  S    
C123  C124  S    
Cu1   O5    S    
Cu2   O3    S    
O39   C117  S    
C93   H50   S    
C94   H52   S    
C47   O27   S    
C45   N1    A    
C87   C88   S    
C24   O6    A    
C75   H8    S    
C95   H54   S    
C116  H114  S    
C104  H85   S    
C59   C61   A    
C51   O24   S    
C98   H62   S    
C39   C40   A    
C110  H102  S    
C103  C104  S    
C117  C118  S    
C23   O7    A    
C51   C53   A    
C52   O23   S    
C3    C9    A    
C120  H124  S    
C76   H10   S    
C103  H83   S    
Cu1   O1    S    
C126  H139  S    
C43   H5    S    
C81   H22   S    
C45   O9    S    
C83   H27   S    
C84   H29   S    
C12   C70   A    
C40   C41   A    
C9    C63   A    
C10   C64   A    
C74   N2    S    
C85   H30   S    
C79   H17   S    
C114  H110  S    
C113  H107  S    
C118  H120  S    
C12   C24   S    
C13   C17   A    
C81   C82   S    
C119  H122  S    
C80   H18   S    
C102  C103  S    
C86   H33   S    
C57   C58   A    
C77   H12   S    
C55   C61   A    
C48   C50   A    
C107  H93   S    
C33   C35   A    
C23   O5    A    
O26   H68   S    
C79   C80   S    
C100  C101  S    
C13   C16   A    
C117  H117  S    
C33   O14   S    
O37   C111  S    
C77   H13   S    
C90   H43   S    
C126  H138  S    
C113  H109  S    
C92   H46   S    
C110  H100  S    
C68   O33   S    
C105  H90   S    
C88   H38   S    
C44   H6    S    
C127  H141  S    
C29   O17   S    
C61   O21   S    
C120  C121  S    
O28   H70   S    
C128  H143  S    
C91   C92   S    
C88   H37   S    
C97   H59   S    
C99   H73   S    
C65   C67   A    
C89   H41   S    
C125  H136  S    
C39   C42   A    
C127  C128  S    
C28   C34   A    
C91   H45   S    
C115  C116  S    
C85   C86   S    
C123  H132  S    
C62   O22   S    
C125  H137  S    
C13   C19   A    
C66   O35   S    
O31   C99   S    
C14   C20   A    
C72   C74   A    
C80   H20   S    
C102  H80   S    
C5    C7    A    
C53   C57   A    
C57   C60   A    
C6    C8    A    
C58   C59   A    
C5    C45   A    
C75   C76   S    
C63   N1    A    
C37   C43   A    
C35   C39   A    
O41   C123  S    
C38   C44   A    
Cu2   O7    S    
C21   O37   S    
C100  H75   S    
C8    H4    S    
C25   O41   S    
O15   C81   S    
C4    C17   A    
C87   H36   S    
C19   O39   S    
C20   C22   A    
C108  H97   S    
C82   H23   S    
C4    C6    A    
C105  H89   S    
C122  H128  S    
C92   H48   S    
C97   H58   S    
C15   C17   A    
O42   C126  S    
C3    C5    A    
C83   H26   S    
C11   C69   A    
C7    C25   A    
C36   C38   A    
O21   H63   S    
C114  H111  S    
C99   C100  S    
C26   O42   S    
C78   C79   S    
C107  H95   S    
O22   H64   S    
C59   O29   S    
C96   H56   S    
C29   C37   A    
C76   H9    S    
C124  C125  S    
C115  H112  S    
Cu1   O8    S    
C66   C68   A    
O29   H71   S    
O19   C93   S    
C70   H2    S    
C94   H51   S    
C14   C18   A    
C98   H60   S    
C112  C113  S    
C47   C49   A    
O30   H72   S    
C121  H126  S    
C35   C37   A    
C98   H61   S    
C9    C22   A    
C110  H101  S    
C65   C73   A    
C3    C18   A    
C69   C71   A    
C75   H7    S    
C116  H115  S    
O16   C84   S    
C41   O19   S    
C82   C83   S    
C2    O2    A    
Cu2   O2    S    
C34   C36   A    
C97   C98   S    
C103  H82   S    
C52   C54   A    
C34   O13   S    
C122  H130  S    
C53   C55   A    
C54   C56   A    
C49   N3    A    
C36   C40   A    
C85   H31   S    
C101  H77   S    
C15   C26   A    
C113  H108  S    
C118  H119  S    
C48   O28   S    
C31   O16   S    
C24   O8    A    
C84   C85   S    
O13   C75   S    
C96   C97   S    
C111  H103  S    
C107  H94   S    
C104  H84   S    
Cu2   O6    S    
C16   C18   A    
O20   C96   S    
C100  H76   S    
C106  H92   S    
C93   H49   S    
C94   C95   S    
C117  H118  S    
C106  C107  S    
C4    C10   A    
C112  H105  S    
C95   H53   S    
C47   C55   A    
C54   C58   A    
C48   C56   A    
C1    O3    A    
C6    C46   A    
C14   C15   A    
C121  C122  S    
C101  H79   S    
C2    C28   S    
C109  C110  S    
C89   H39   S    
O40   C120  S    
C29   C31   A    
C30   C32   A    
O32   C102  S    
C84   H28   S    
C120  H125  S    
C76   C77   S    
C115  H113  S    
C128  H142  S    
O38   C114  S    
C50   N4    A    
C93   C94   S    
C99   H74   S    
C126  C127  S    
O34   H88   S    
C1    C27   S    
C70   C72   A    
C81   H21   S    
C106  H91   S    
