data_mof_unit_11414.cif
_audit_creation_date              2012-12-11T15:39:27-0500
_audit_creation_method            fapswitch 2.2
_symmetry_space_group_name_H-M    P1
_symmetry_Int_Tables_number       1
_space_group_crystal_system       triclinic
_cell_length_a                    17.401319
_cell_length_b                    24.360467
_cell_length_c                    15.061311
_cell_angle_alpha                 89.812075
_cell_angle_beta                  125.755901
_cell_angle_gamma                 90.379234
_cell_volume                      5181.03873788

loop_
_atom_site_label
_atom_site_type_symbol
_atom_type_description
_atom_site_fract_x
_atom_site_fract_y
_atom_site_fract_z
_atom_type_partial_charge
C1    C     C_R   0.311929 0.372620 0.906510 -0.152340
C2    C     C_R   0.441326 0.502389 0.638912 0.097288
C3    C     C_R   0.170842 0.843921 0.000745 -0.057186
C4    C     C_R   0.059313 0.002123 0.361828 0.092826
C5    C     C_R   0.041607 0.002661 0.717927 0.148825
C6    C     C_R   0.195592 0.501582 0.636058 0.100722
C7    C     C_R   0.825782 0.502962 0.282382 0.058727
C8    C     C_R   0.694960 0.001557 0.636397 0.095538
C9    C     C_R   0.325450 0.002865 0.279839 0.052601
C10   C     C_R   0.067300 0.554348 0.478948 -0.053178
C11   C     C_R   0.976401 0.555690 0.385264 0.074847
C12   C     C_R   0.566476 0.054246 0.479332 -0.063488
C13   C     C_R   0.682460 0.367139 0.090643 -0.179155
C14   C     C_R   0.475949 0.055676 0.384975 0.063298
C15   C     C_R   0.114528 0.504521 0.522559 0.083457
C16   C     C_R   0.927666 0.506140 0.338674 0.031188
C17   C     C_R   0.613742 0.004449 0.522840 0.086653
C18   C     C_R   0.427494 0.006176 0.337039 0.049576
C19   C     C_R   0.074905 0.457052 0.457716 -0.065907
C20   C     C_R   0.980867 0.457839 0.365436 -0.133196
C21   C     C_R   0.574616 0.957089 0.457460 -0.148620
C22   C     C_R   0.480955 0.957936 0.364185 -0.127333
C23   C     C_3   0.953316 0.605699 0.423555 0.182529
C24   C     C_R   0.809751 0.875656 0.907071 -0.155680
C25   C     C_3   0.052502 0.603112 0.528059 0.197476
C26   C     C_3   0.452185 0.105307 0.423553 0.184396
C27   C     C_3   0.551033 0.102629 0.528588 0.209260
C28   C     C_R   0.285768 0.763584 0.899446 -0.128925
C29   C     C_R   0.705343 0.769057 0.095116 -0.135846
C30   C     C_R   0.790065 0.265813 0.901975 -0.157949
C31   C     C_R   0.206693 0.267731 0.097683 -0.123835
C32   C     C_R   0.739733 0.309190 0.902333 -0.155875
C33   C     C_R   0.258503 0.310310 0.095999 -0.047118
C34   C     C_R   0.227924 0.801288 0.900818 -0.075990
C35   C     C_R   0.176819 0.862208 0.091605 -0.176457
C36   C     C_R   0.751130 0.815426 0.094005 -0.142230
C37   C     C_R   0.755771 0.325713 0.001087 -0.052793
C38   C     C_R   0.241231 0.326562 0.996370 -0.078939
C39   C     C_R   0.244489 0.815881 0.000713 -0.075246
C40   C     C_R   0.734892 0.832876 0.995429 -0.063791
C41   C     C_R   0.445248 0.652313 0.090239 -0.129588
C42   C     C_R   0.557898 0.651206 0.908036 -0.128086
C43   C     C_R   0.942262 0.151125 0.091368 -0.126505
C44   C     C_R   0.054740 0.152361 0.909063 -0.134506
C45   C     C_R   0.839656 0.309106 0.100195 0.768625
C46   C     C_R   0.385669 0.684011 0.998700 0.096183
C47   C     C_R   0.155871 0.310289 0.898032 0.788579
C48   C     C_R   0.332498 0.803296 0.098899 0.769373
C49   C     C_R   0.653456 0.813404 0.896396 0.795833
C50   C     C_R   0.390208 0.765475 0.097099 -0.300656
C51   C     C_R   0.607150 0.767272 0.897527 -0.304965
C52   C     C_R   0.890067 0.265682 0.099722 -0.292919
C53   C     C_R   0.103673 0.267927 0.899985 -0.312300
C54   C     C_R   0.359550 0.740373 0.998091 0.018225
C55   C     C_R   0.640479 0.741404 0.997030 0.023080
C56   C     C_R   0.857652 0.239844 0.000639 0.036231
C57   C     C_R   0.617881 0.683720 0.998493 0.118711
C58   C     C_R   0.136583 0.242167 0.999357 0.005861
C59   C     C_R   0.497092 0.539730 0.540390 -0.177541
C60   C     C_R   0.502710 0.539593 0.454190 -0.200665
C61   C     C_R   0.009447 0.043448 0.554953 -0.202709
C62   C     C_R   0.013665 0.042963 0.467749 -0.181818
C63   C     C_R   0.442905 0.505361 0.365303 -0.087150
C64   C     C_R   0.431967 0.505458 0.538831 -0.073651
C65   C     C_R   0.071782 0.005372 0.464197 -0.071835
C66   C     C_R   0.063226 0.006259 0.640076 -0.078348
C67   C     C_R   0.372484 0.473195 0.358631 0.412595
C68   C     C_R   0.881467 0.182866 0.000163 0.094877
C69   C     C_R   0.366750 0.473234 0.447179 0.387922
C70   C     C_R   0.132663 0.970580 0.553121 0.393891
C71   C     C_R   0.127860 0.970874 0.642506 0.398899
C72   C     C_R   0.491630 0.455459 0.261961 -0.090025
C73   C     C_R   0.452122 0.455677 0.696611 0.001901
C74   C     C_R   0.047846 0.955537 0.303514 0.013325
C75   C     C_R   0.011517 0.955713 0.741544 -0.098954
C76   C     C_R   0.245776 0.546490 0.698977 -0.003428
C77   C     C_R   0.766603 0.547373 0.247283 -0.135041
C78   C     C_R   0.745306 0.046496 0.699262 -0.016458
C79   C     C_R   0.113411 0.184771 0.999816 0.124027
C80   C     C_R   0.266390 0.047304 0.246011 -0.127762
C81   C     C_R   0.484861 0.547203 0.251032 -0.122540
C82   C     C_R   0.456126 0.547166 0.701283 -0.159143
C83   C     C_R   0.044727 0.046961 0.299133 -0.133993
C84   C     C_R   0.017231 0.047477 0.751161 -0.139678
C85   C     C_R   0.243084 0.455123 0.696702 -0.095681
C86   C     C_R   0.771322 0.456105 0.261123 -0.081847
C87   C     C_R   0.742858 0.955125 0.696830 -0.097839
C88   C     C_R   0.270962 0.955932 0.258092 -0.053475
C89   C     C_R   0.352889 0.651703 0.907980 -0.065664
C90   C     C_R   0.461979 0.502097 0.285748 0.144716
C91   C     C_R   0.647347 0.652416 0.090058 -0.109287
C92   C     C_R   0.850780 0.151295 0.908690 -0.068024
C93   C     C_R   0.145303 0.152734 0.090769 -0.108116
C94   C     C_R   0.407141 0.366739 0.088761 0.710866
C95   C     C_R   0.593972 0.370873 0.908738 0.713902
C96   C     C_R   0.901580 0.874020 0.089582 0.716412
C97   C     C_R   0.084956 0.861827 0.909463 0.709733
C98   C     C_R   0.315994 0.354960 0.997007 -0.063084
C99   C     C_R   0.681520 0.354403 0.999989 -0.083435
C100  C     C_R   0.810464 0.861902 0.997479 -0.087282
Cl1   Cl    Cl    0.936016 0.664621 0.342788 -0.618334
Cl2   Cl    Cl    0.049952 0.587193 0.642653 -0.608774
Cl3   Cl    Cl    0.435236 0.164696 0.343983 -0.619926
Cl4   Cl    Cl    0.547736 0.085954 0.642378 -0.587828
Cl5   Cl    Cl    0.291738 0.434313 0.240263 -0.595238
Cl6   Cl    Cl    0.277763 0.434723 0.441924 -0.610753
Cl7   Cl    Cl    0.215703 0.928463 0.554665 -0.541112
Cl8   Cl    Cl    0.202310 0.927949 0.756332 -0.595077
F1    F     F_    0.870240 0.331657 0.197864 -0.739831
F2    F     F_    0.125563 0.331536 0.799442 -0.709246
F3    F     F_    0.361379 0.824423 0.197042 -0.738952
F4    F     F_    0.621850 0.835623 0.798078 -0.697678
F5    F     F_    0.453452 0.340238 0.186055 -0.712388
F6    F     F_    0.554028 0.358230 0.802958 -0.738151
F7    F     F_    0.939629 0.860164 0.194436 -0.728114
F8    F     F_    0.033266 0.837298 0.809966 -0.721971
H1    H     H_    0.255139 0.368479 0.821146 0.213645
H2    H     H_    0.727256 0.752811 0.173469 0.159718
H3    H     H_    0.769035 0.249880 0.823831 0.142453
H4    H     H_    0.228953 0.251633 0.176270 0.167016
H5    H     H_    0.684155 0.325872 0.824198 0.226705
H6    H     H_    0.316666 0.326573 0.173582 0.238936
H7    H     H_    0.167410 0.815470 0.823011 0.233009
H8    H     H_    0.804371 0.833913 0.171631 0.225790
H9    H     H_    0.452821 0.752049 0.174321 0.157121
H10   H     H_    0.550826 0.749827 0.819889 0.163674
H11   H     H_    0.948567 0.249812 0.177532 0.159690
H12   H     H_    0.730884 0.352462 0.172716 0.203369
H13   H     H_    0.043739 0.252253 0.822693 0.160199
H14   H     H_    0.547725 0.564428 0.611309 0.159656
H15   H     H_    0.557601 0.564156 0.459804 0.157924
H16   H     H_    0.958679 0.070535 0.551680 0.150882
H17   H     H_    0.966321 0.069823 0.399533 0.155204
H18   H     H_    0.491902 0.666092 0.174022 0.096376
H19   H     H_    0.512440 0.663964 0.823554 0.097362
H20   H     H_    0.987797 0.164302 0.175644 0.099253
H21   H     H_    0.007739 0.165748 0.825134 0.092713
H22   H     H_    0.495786 0.414955 0.292874 0.203513
H23   H     H_    0.753244 0.870944 0.821775 0.215908
H24   H     H_    0.434216 0.414358 0.664775 0.207927
H25   H     H_    0.064899 0.914112 0.334615 0.210139
H26   H     H_    0.010453 0.914906 0.714027 0.203675
H27   H     H_    0.238868 0.588469 0.672113 0.085014
H28   H     H_    0.783604 0.589834 0.247604 0.153922
H29   H     H_    0.738004 0.088517 0.672455 0.082978
H30   H     H_    0.283314 0.089784 0.246280 0.153033
H31   H     H_    0.477333 0.589951 0.263380 0.116483
H32   H     H_    0.444596 0.589817 0.676619 0.118377
H33   H     H_    0.057438 0.089606 0.324004 0.117676
H34   H     H_    0.224285 0.848374 0.174617 0.206254
H35   H     H_    0.025959 0.090310 0.739961 0.117350
H36   H     H_    0.231175 0.413438 0.666867 0.118746
H37   H     H_    0.797690 0.415241 0.288558 0.125734
H38   H     H_    0.730852 0.913446 0.666934 0.111402
H39   H     H_    0.296997 0.914789 0.282359 0.131305
H40   H     H_    0.313917 0.664586 0.823590 0.093989
H41   H     H_    0.683782 0.666934 0.173181 0.113026
H42   H     H_    0.811864 0.164707 0.824629 0.092066
H43   H     H_    0.181668 0.166682 0.174251 0.114690
H44   H     H_    0.111478 0.418188 0.484182 0.157934
H45   H     H_    0.896828 0.599165 0.435826 0.132914
H46   H     H_    0.947474 0.419454 0.324643 0.195516
H47   H     H_    0.611310 0.918263 0.483932 0.138417
H48   H     H_    0.447922 0.919597 0.322659 0.184212
H49   H     H_    0.098214 0.638767 0.541033 0.139647
H50   H     H_    0.395327 0.098368 0.435073 0.138858
H51   H     H_    0.596777 0.138431 0.542456 0.130445
H52   H     H_    0.265306 0.748452 0.821003 0.148664
N1    N     N_R   0.394180 0.396910 0.943210 -0.093537
N2    N     N_R   0.474350 0.471570 0.793850 -0.065127
N3    N     N_R   0.025650 0.971570 0.206150 -0.067310
N4    N     N_R   0.974350 0.971570 0.793850 -0.059401
N5    N     N_R   0.319480 0.528420 0.793810 -0.052351
N6    N     N_R   0.680520 0.528420 0.206190 -0.048216
N7    N     N_R   0.819480 0.028420 0.793810 -0.052429
N8    N     N_R   0.180520 0.028420 0.206190 -0.046913
N9    N     N_R   0.525640 0.528390 0.206120 -0.053329
N10   N     N_R   0.474360 0.528390 0.793880 -0.055149
N11   N     N_R   0.025640 0.028390 0.206120 -0.054494
N12   N     N_R   0.605820 0.396910 0.056790 -0.087525
N13   N     N_R   0.974360 0.028390 0.793880 -0.058553
N14   N     N_R   0.319490 0.471590 0.793840 -0.051891
N15   N     N_R   0.680510 0.471590 0.206160 -0.044465
N16   N     N_R   0.819490 0.971590 0.793840 -0.049859
N17   N     N_R   0.180510 0.971590 0.206160 -0.046784
N18   N     N_R   0.394130 0.603080 0.943110 -0.043792
N19   N     N_R   0.605870 0.603080 0.056890 -0.050106
N20   N     N_R   0.894130 0.103080 0.943110 -0.045848
N21   N     N_R   0.105870 0.103080 0.056890 -0.048674
N22   N     N_R   0.450990 0.396900 0.056840 -0.107484
N23   N     N_R   0.894180 0.896910 0.943210 -0.091029
N24   N     N_R   0.549010 0.396900 0.943160 -0.109924
N25   N     N_R   0.950990 0.896900 0.056840 -0.111239
N26   N     N_R   0.049010 0.896900 0.943160 -0.106908
N27   N     N_R   0.105820 0.896910 0.056790 -0.091390
N28   N     N_R   0.450950 0.603070 0.056740 -0.043284
N29   N     N_R   0.549050 0.603070 0.943260 -0.045966
N30   N     N_R   0.950950 0.103070 0.056740 -0.044973
N31   N     N_R   0.049050 0.103070 0.943260 -0.044134
N32   N     N_R   0.525650 0.471570 0.206150 -0.059053
Ni1   Ni    Ni4+2 0.434860 0.434850 0.869700 0.255515
Ni2   Ni    Ni4+2 0.565140 0.434850 0.130300 0.267924
Ni3   Ni    Ni4+2 0.934860 0.934850 0.869700 0.259237
Ni4   Ni    Ni4+2 0.065140 0.934850 0.130300 0.268509
Ni5   Ni    Ni4+2 0.565130 0.565140 0.130240 0.219121
Ni6   Ni    Ni4+2 0.434870 0.565140 0.869760 0.214577
Ni7   Ni    Ni4+2 0.065130 0.065140 0.130240 0.221543
Ni8   Ni    Ni4+2 0.934870 0.065140 0.869760 0.209677

loop_
_geom_bond_atom_site_label_1
_geom_bond_atom_site_label_2
_ccdc_geom_bond_type
C59   H14   S    
C13   C99   A    
C44   H21   S    
C21   H47   S    
C53   C58   A    
N14   Ni1   S    
C89   N18   A    
C14   C18   A    
C19   C20   A    
C47   C53   A    
C38   C98   S    
N23   N25   A    
N8    N17   A    
C46   C89   A    
C51   C55   A    
C15   C19   A    
C29   C36   A    
C59   C64   A    
C85   N14   A    
C6    C85   A    
N2    N10   A    
C60   C63   A    
C19   H44   S    
N1    N22   A    
N8    Ni7   S    
N18   N28   A    
C84   N13   A    
C36   H8    S    
C86   H37   S    
C79   C93   A    
C41   N28   A    
N12   Ni2   S    
C70   Cl7   S    
C9    C88   A    
C4    C65   S    
C45   F1    S    
C25   Cl2   S    
C84   H35   S    
C7    C86   A    
C30   H3    S    
C94   C98   A    
C95   F6    S    
C40   C49   A    
C96   C100  A    
C27   Cl4   S    
N28   Ni5   S    
C22   H48   S    
C42   C57   A    
C92   H42   S    
C1    N1    A    
N3    Ni4   S    
C93   H43   S    
N2    Ni1   S    
C61   H16   S    
C6    C15   S    
C13   H12   S    
N4    N13   A    
C94   F5    S    
N20   Ni8   S    
C43   C68   A    
C49   C51   A    
N9    N32   A    
C12   C17   A    
N6    Ni5   S    
C41   C46   A    
C31   C33   A    
C96   F7    S    
N5    Ni6   S    
C35   H34   S    
N20   N30   A    
C43   N30   A    
C4    C74   A    
C46   C54   S    
C78   H29   S    
C35   N27   A    
C7    C77   A    
N21   N31   A    
C80   H30   S    
N26   N27   A    
C28   C34   A    
C59   C60   A    
N16   Ni3   S    
C18   C22   A    
C71   Cl8   S    
C8    C78   A    
N15   Ni2   S    
N3    N11   A    
N29   Ni6   S    
C61   C62   A    
N23   Ni3   S    
N7    Ni8   S    
C61   C66   A    
C60   H15   S    
C41   H18   S    
C52   H11   S    
C2    C64   S    
C63   C67   A    
C42   N29   A    
C24   H23   S    
N11   Ni7   S    
C91   H41   S    
C33   H6    S    
N18   Ni6   S    
C12   C27   S    
C34   C39   A    
C88   H39   S    
C36   C40   A    
N13   Ni8   S    
C80   N8    A    
N12   N24   A    
N24   Ni1   S    
C87   N16   A    
C5    C84   A    
C28   C54   A    
N22   Ni2   S    
C89   H40   S    
N27   Ni4   S    
C29   C55   A    
C45   C52   A    
C81   H31   S    
C32   C37   A    
C30   C56   A    
C17   C21   A    
C42   H19   S    
C67   C69   A    
C9    C80   A    
C97   N26   A    
C5    C75   A    
N4    Ni3   S    
C94   N22   A    
C75   H26   S    
C26   Cl3   S    
C72   N32   A    
C65   C70   A    
C72   C90   A    
C11   C16   A    
C3    C97   A    
C66   C71   A    
C3    C35   A    
C16   C20   A    
C20   H46   S    
C82   N10   A    
C38   C47   A    
C87   H38   S    
C50   H9    S    
C1    H1    S    
C64   C69   A    
C14   C26   S    
C97   F8    S    
C6    C76   A    
C48   C50   A    
N25   Ni4   S    
C74   N3    A    
C70   C71   A    
C2    C73   A    
C95   N24   A    
C49   F4    S    
C81   C90   A    
C58   C79   S    
C10   C25   S    
C88   N17   A    
C74   H25   S    
N19   N29   A    
N5    N14   A    
C55   C57   S    
C26   C27   S    
C86   N15   A    
C2    C82   A    
C53   H13   S    
C37   C45   A    
C13   N12   A    
N1    Ni1   S    
C37   C99   S    
C31   C58   A    
C91   N19   A    
C76   N5    A    
C69   Cl6   S    
C57   C91   A    
C62   C65   A    
N30   Ni7   S    
C24   C100  A    
C51   H10   S    
C32   H5    S    
C44   C79   A    
C7    C16   S    
C33   C38   A    
C12   C14   A    
C5    C66   S    
C1    C98   A    
C40   C100  S    
C82   H32   S    
N19   Ni5   S    
C92   N20   A    
C78   N7    A    
C73   H24   S    
C93   N21   A    
C47   F2    S    
C29   H2    S    
C8    C17   S    
C83   N11   A    
C10   C15   A    
C8    C87   A    
C25   H49   S    
C85   H36   S    
C81   N9    A    
C50   C54   A    
C56   C68   S    
C30   C32   A    
C23   Cl1   S    
C4    C83   A    
N21   Ni7   S    
N26   Ni3   S    
N10   Ni6   S    
C63   C90   S    
C11   C23   S    
N31   Ni8   S    
C68   C92   A    
N9    Ni5   S    
C24   N23   A    
C95   C99   A    
C23   C25   S    
C77   N6    A    
C43   H20   S    
C72   H22   S    
C31   H4    S    
C77   H28   S    
C10   C11   A    
C28   H52   S    
C3    C39   S    
C76   H27   S    
C96   N25   A    
C9    C18   S    
C48   F3    S    
C67   Cl5   S    
C44   N31   A    
N32   Ni2   S    
C26   H50   S    
N17   Ni4   S    
C75   N4    A    
C34   H7    S    
C39   C48   A    
C83   H33   S    
C73   N2    A    
C21   C22   A    
N6    N15   A    
C62   H17   S    
C52   C56   A    
C27   H51   S    
N7    N16   A    
C23   H45   S    
