data_mof_unit_61973.cif
_audit_creation_date              2012-12-11T15:59:37-0500
_audit_creation_method            fapswitch 2.2
_symmetry_space_group_name_H-M    P1
_symmetry_Int_Tables_number       1
_space_group_crystal_system       triclinic
_cell_length_a                    6.957857
_cell_length_b                    20.145023
_cell_length_c                    21.710052
_cell_angle_alpha                 92.815159
_cell_angle_beta                  89.230509
_cell_angle_gamma                 90.502407
_cell_volume                      3038.96860445

loop_
_atom_site_label
_atom_site_type_symbol
_atom_type_description
_atom_site_fract_x
_atom_site_fract_y
_atom_site_fract_z
_atom_type_partial_charge
O1    O     O_R   0.505910 0.557140 0.441630 -0.518765
O2    O     O_R   0.175760 0.566370 0.557960 -0.522268
O3    O     O_R   0.005440 0.442860 0.558370 -0.529948
C1    C     C_R   0.344391 0.584139 0.580680 0.718981
O4    O     O_R   0.176200 0.564760 0.442040 -0.520506
O5    O     O_R   0.005880 0.441250 0.441620 -0.519892
C2    C     C_R   0.346740 0.582508 0.419585 0.702646
O6    O     O_R   0.505470 0.558750 0.558380 -0.518929
O7    O     O_3   0.339200 0.459480 0.500000 -0.354266
V1    V     V_3+5 0.064350 0.507520 0.500000 1.410483
O8    O     O_R   0.676160 0.433630 0.442040 -0.522713
C3    C     C_R   0.845478 0.415481 0.419846 0.717092
O9    O     O_R   0.675730 0.435240 0.557960 -0.534396
C4    C     C_R   0.843136 0.420493 0.577714 0.746218
V2    V     V_3+5 0.564340 0.492480 0.500000 1.408652
O10   O     O_3   0.839360 0.540520 0.500000 -0.356110
C5    C     C_3   0.039677 0.310523 0.755042 -0.369889
C6    C     C_3   0.684729 0.285322 0.747207 -0.350710
C7    C     C_3   0.701745 0.235220 0.798256 -0.319831
H1    H     H_    0.008743 0.360828 0.776224 0.164490
H2    H     H_    0.565163 0.269858 0.715931 0.140694
H3    H     H_    0.648734 0.335225 0.768333 0.145473
H4    H     H_    0.673739 0.260924 0.843874 0.175730
H5    H     H_    0.589970 0.195691 0.791734 0.128837
C8    C     C_1   0.928231 0.118371 0.882957 -0.208392
C9    C     C_3   0.876325 0.288616 0.710408 0.255538
C10   C     C_3   0.060157 0.259640 0.805817 0.345881
C11   C     C_3   0.905030 0.204154 0.796297 0.249896
C12   C     C_3   0.937253 0.168398 0.732246 -0.434770
C13   C     C_3   0.922161 0.218773 0.681261 -0.347058
C14   C     C_1   0.918927 0.156979 0.843675 -0.066828
C15   C     C_1   0.860652 0.335367 0.662744 -0.082836
C16   C     C_1   0.850412 0.374150 0.623590 -0.201302
H6    H     H_    0.060063 0.220192 0.654721 0.147021
H7    H     H_    0.807443 0.202418 0.648485 0.155265
H8    H     H_    0.081355 0.144741 0.729723 0.142701
H9    H     H_    0.178274 0.314307 0.729146 0.102012
H10   H     H_    0.203795 0.235420 0.799952 0.026594
H11   H     H_    0.828005 0.128234 0.724534 0.166136
C17   C     C_1   0.921715 0.130598 0.138284 -0.214028
C18   C     C_1   0.910249 0.173983 0.181037 0.001698
C19   C     C_1   0.895603 0.225166 0.231902 -0.000386
C20   C     C_1   0.883028 0.268278 0.274861 -0.000913
C21   C     C_1   0.868387 0.319424 0.325760 0.000169
C22   C     C_1   0.856928 0.362749 0.368569 -0.214701
C23   C     C_1   0.354886 0.635396 0.633665 -0.218577
C24   C     C_1   0.366761 0.677011 0.678113 0.001021
C25   C     C_1   0.382521 0.725968 0.731158 -0.002719
C26   C     C_1   0.396146 0.767126 0.775909 -0.002793
C27   C     C_1   0.411908 0.816086 0.828951 0.000822
C28   C     C_1   0.423784 0.857708 0.873393 -0.218802
C29   C     C_1   0.360092 0.633884 0.368142 -0.209024
C30   C     C_1   0.371005 0.675735 0.325701 0.011662
C31   C     C_1   0.384043 0.725700 0.274794 -0.003283
C32   C     C_1   0.394931 0.767423 0.232241 -0.003267
C33   C     C_1   0.407961 0.817388 0.181334 0.011719
C34   C     C_1   0.418850 0.859240 0.138895 -0.208907
O11   O     O_R   0.273200 0.934350 0.948680 -0.518846
O12   O     O_R   0.602630 0.928390 0.064980 -0.520292
O13   O     O_R   0.772790 0.051930 0.065390 -0.519985
C35   C     C_R   0.432123 0.910620 0.087453 0.703563
O14   O     O_R   0.602920 0.926780 0.949060 -0.522194
O15   O     O_R   0.773080 0.050310 0.948640 -0.528937
C36   C     C_R   0.434283 0.908981 0.926365 0.718931
O16   O     O_R   0.272900 0.935970 0.065430 -0.518605
O17   O     O_3   0.439420 0.033650 0.007040 -0.354372
V3    V     V_3+5 0.714330 0.985650 0.007020 1.409498
O18   O     O_R   0.102790 0.057980 0.949020 -0.536346
C37   C     C_R   0.935380 0.072494 0.929151 0.744410
O19   O     O_R   0.102500 0.059590 0.064940 -0.522285
C38   C     C_R   0.933177 0.077779 0.087092 0.717658
V4    V     V_3+5 0.214320 0.000760 0.006970 1.404546
O20   O     O_3   0.939360 0.952680 0.006990 -0.355556
O21   O     O_3   0.034603 0.292055 0.865000 -0.572802
C39   C     C_3   0.212304 0.306722 0.893808 0.063620
H12   H     H_    0.189109 0.350113 0.926558 0.153548
H13   H     H_    0.326253 0.321879 0.860572 0.096508
C40   C     C_3   0.277796 0.247678 0.930137 -0.312260
H14   H     H_    0.155777 0.229698 0.958590 0.208579
H15   H     H_    0.323700 0.206316 0.897661 0.177991
C41   C     C_3   0.444411 0.266874 0.972612 -0.817186
H16   H     H_    0.566946 0.287061 0.945955 0.234829
H17   H     H_    0.493403 0.222321 0.995964 0.234522
H18   H     H_    0.397566 0.304897 0.008338 0.230842

loop_
_geom_bond_atom_site_label_1
_geom_bond_atom_site_label_2
_ccdc_geom_bond_type
C8    C14   T    
C32   C33   S    
C9    C15   S    
C17   C38   S    
C6    H2    S    
C18   C19   S    
O2    C1    A    
C6    C9    S    
C1    O6    A    
C4    C16   S    
C41   H16   S    
C1    C23   S    
C30   C31   S    
C29   C30   T    
C12   H8    S    
C13   H7    S    
C5    C9    S    
C11   C12   S    
C2    C29   S    
O5    C3    A    
C40   H15   S    
C10   H10   S    
V2    O10   S    
C5    H1    S    
C33   C34   T    
C6    C7    S    
O14   C36   A    
O12   V3    S    
C23   C24   T    
O8    V2    S    
O17   V4    S    
O15   C37   A    
O13   V3    S    
O18   C37   A    
O19   C38   A    
V3    O20   S    
C10   O21   S    
O7    V1    S    
O17   V3    S    
O1    C2    A    
O9    C4    A    
C41   H17   S    
O11   C36   A    
O15   V3    S    
O12   C35   A    
O21   C39   S    
C13   H6    S    
C5    C10   S    
O4    C2    A    
C40   H14   S    
C3    C22   S    
O13   C38   A    
C7    H4    S    
C39   H12   S    
C12   C13   S    
C24   C25   S    
O18   V4    S    
C12   H11   S    
C27   C28   T    
C5    H9    S    
C7    C11   S    
C39   H13   S    
O3    C4    A    
O1    V2    S    
O14   V3    S    
C25   C26   T    
C9    C13   S    
O6    V2    S    
O9    V2    S    
C20   C21   S    
C8    C37   S    
C19   C20   T    
O2    V1    S    
C41   H18   S    
C21   C22   T    
C31   C32   T    
C17   C18   T    
C6    H3    S    
C11   C14   S    
C28   C36   S    
V4    O20   S    
O5    V1    S    
O8    C3    A    
C34   C35   S    
O16   V4    S    
C15   C16   T    
C7    H5    S    
O7    V2    S    
O4    V1    S    
O3    V1    S    
V1    O10   S    
C40   C41   S    
O11   V4    S    
C39   C40   S    
C35   O16   A    
C26   C27   S    
C10   C11   S    
O19   V4    S    
