data_mof_unit_51838.cif
_audit_creation_date              2012-10-26T17:13:09-0400
_audit_creation_method            fapswitch 2.2
_symmetry_space_group_name_H-M    P1
_symmetry_Int_Tables_number       1
_space_group_crystal_system       triclinic
_cell_length_a                    16.841962
_cell_length_b                    16.834935
_cell_length_c                    16.835682
_cell_angle_alpha                 67.828707
_cell_angle_beta                  67.701907
_cell_angle_gamma                 67.745471
_cell_volume                      3932.39637838

loop_
_atom_site_label
_atom_site_type_symbol
_atom_type_description
_atom_site_fract_x
_atom_site_fract_y
_atom_site_fract_z
_atom_type_partial_charge
C1    C     C_R   0.311197 0.003281 0.435433 0.019564
C2    C     C_R   0.679849 0.042368 0.546175 0.032731
C3    C     C_R   0.001284 0.436761 0.312665 0.004912
C4    C     C_R   0.048769 0.546170 0.678004 0.001370
C5    C     C_R   0.439804 0.314683 0.992698 0.003769
C6    C     C_R   0.546713 0.679690 0.041378 0.037607
C7    C     C_R   0.562238 0.006808 0.685188 0.000527
C8    C     C_R   0.451574 0.961175 0.320888 0.041851
C9    C     C_R   0.687416 0.566443 0.998607 -0.001569
C10   C     C_R   0.321717 0.453291 0.956871 0.029769
C11   C     C_R   0.004744 0.685602 0.564726 0.001728
C12   C     C_R   0.967450 0.318565 0.451884 0.045148
C13   C     C_R   0.453480 0.996000 0.448356 -0.033412
C14   C     C_R   0.549134 0.014837 0.542757 -0.040324
C15   C     C_R   0.999746 0.447236 0.454073 -0.031217
C16   C     C_R   0.018542 0.542390 0.549021 -0.036165
C17   C     C_R   0.452330 0.457595 0.984111 -0.034949
C18   C     C_R   0.545888 0.552986 0.004633 -0.035729
C19   C     C_R   0.018334 0.830051 0.568494 0.863144
C20   C     C_R   0.973675 0.171335 0.435045 0.834677
C21   C     C_R   0.830090 0.568650 0.017850 0.852302
C22   C     C_R   0.171437 0.435023 0.973103 0.873340
C23   C     C_R   0.568317 0.018504 0.829917 0.847275
C24   C     C_R   0.435192 0.972658 0.171493 0.843458
C25   C     C_R   0.431660 0.169842 0.982316 0.831581
C26   C     C_R   0.564221 0.828571 0.028595 0.855264
C27   C     C_R   0.983420 0.431308 0.169666 0.822288
C28   C     C_R   0.028449 0.564485 0.828660 0.894484
C29   C     C_R   0.169187 0.984343 0.430937 0.822717
C30   C     C_R   0.828637 0.028191 0.564419 0.863054
C31   C     C_R   0.405410 0.986176 0.401649 0.080862
C32   C     C_R   0.596934 0.022452 0.591277 0.064853
C33   C     C_R   0.989073 0.400687 0.406170 0.069140
C34   C     C_R   0.025296 0.591279 0.596900 0.051443
C35   C     C_R   0.404791 0.408526 0.976831 0.062378
C36   C     C_R   0.593199 0.599521 0.015891 0.065879
C37   C     C_R   0.264071 0.986250 0.391236 -0.107190
C38   C     C_R   0.730907 0.040348 0.598677 -0.068565
C39   C     C_R   0.985263 0.392041 0.264997 -0.095382
C40   C     C_R   0.042645 0.599021 0.730668 -0.031127
C41   C     C_R   0.393246 0.265714 0.981374 -0.082473
C42   C     C_R   0.598523 0.730743 0.040827 -0.071438
C43   C     C_R   0.607390 0.020087 0.733796 -0.084168
C44   C     C_R   0.399926 0.962646 0.269245 -0.070998
C45   C     C_R   0.734472 0.608792 0.017694 -0.082206
C46   C     C_R   0.269474 0.400497 0.961392 -0.033365
C47   C     C_R   0.019757 0.734198 0.608397 -0.075131
C48   C     C_R   0.965422 0.268585 0.400223 -0.072312
C49   C     C_R   0.484222 0.976085 0.726638 -0.091645
C50   C     C_R   0.547275 0.938464 0.293964 -0.177503
C51   C     C_R   0.966444 0.727476 0.491789 -0.089635
C52   C     C_R   0.950341 0.289354 0.547326 -0.095182
C53   C     C_R   0.730882 0.493590 0.959779 -0.086745
C54   C     C_R   0.293750 0.548924 0.936136 -0.124378
C55   C     C_R   0.268019 0.036921 0.512283 -0.151989
C56   C     C_R   0.709807 0.059330 0.450846 -0.155210
C57   C     C_R   0.519870 0.273912 0.020570 -0.078579
C58   C     C_R   0.450937 0.707057 0.062366 -0.155014
C59   C     C_R   0.028547 0.517075 0.271165 -0.068388
C60   C     C_R   0.073091 0.450432 0.704657 -0.090045
C61   C     C_R   0.308810 0.969225 0.307896 -0.211943
C62   C     C_R   0.691531 0.035133 0.689682 -0.212629
C63   C     C_R   0.969745 0.308148 0.309558 -0.216054
C64   C     C_R   0.035803 0.690325 0.692086 -0.231317
C65   C     C_R   0.308352 0.309340 0.968130 -0.244027
C66   C     C_R   0.689417 0.691454 0.036111 -0.210416
C67   C     C_R   0.672599 0.028567 0.408987 0.002184
C68   C     C_R   0.318429 0.022204 0.569482 0.028448
C69   C     C_R   0.043473 0.406486 0.668288 0.009110
C70   C     C_R   0.009737 0.573971 0.323131 0.017403
C71   C     C_R   0.407881 0.669959 0.032516 0.000478
C72   C     C_R   0.577788 0.326003 0.998454 0.022929
C73   C     C_R   0.591072 0.967834 0.330578 0.011412
C74   C     C_R   0.425502 0.998955 0.675528 0.031652
C75   C     C_R   0.328800 0.591020 0.969285 0.031229
C76   C     C_R   0.682008 0.434550 0.976138 0.041284
C77   C     C_R   0.983768 0.324727 0.588777 0.062197
C78   C     C_R   0.986425 0.678284 0.431862 0.044553
C79   C     C_R   0.716885 0.010435 0.325483 -0.136940
C80   C     C_R   0.279944 0.024129 0.659556 -0.174817
C81   C     C_R   0.028169 0.321794 0.712849 -0.116474
C82   C     C_R   0.999604 0.666567 0.287588 -0.145749
C83   C     C_R   0.319387 0.709221 0.025969 -0.194795
C84   C     C_R   0.670097 0.289961 0.989986 -0.131867
C85   C     C_R   0.680005 0.973012 0.291155 -0.179801
C86   C     C_R   0.333792 0.007476 0.713214 -0.093564
C87   C     C_R   0.283677 0.674454 0.987701 -0.115501
C88   C     C_R   0.722460 0.344899 0.974635 -0.118354
C89   C     C_R   0.993969 0.284041 0.675899 -0.144250
C90   C     C_R   0.983646 0.718863 0.342761 -0.118220
C91   C     C_R   0.544214 0.992846 0.410214 0.065572
C92   C     C_R   0.461613 0.008246 0.583948 0.023543
C93   C     C_R   0.003453 0.406906 0.542718 0.046280
C94   C     C_R   0.004387 0.585317 0.464422 0.033003
C95   C     C_R   0.411902 0.546403 0.986947 0.046761
C96   C     C_R   0.589417 0.468173 0.990605 0.025739
C97   C     C_R   0.588802 0.012315 0.453878 0.043412
C98   C     C_R   0.410985 0.008635 0.533926 0.047396
C99   C     C_R   0.455358 0.590404 0.007507 0.057589
C100  C     C_R   0.540059 0.417277 0.990360 0.030844
C101  C     C_R   0.022827 0.451572 0.586468 0.021917
C102  C     C_R   0.004807 0.535432 0.413710 0.033122
Cu1   Cu    Cu3+1 0.995180 0.995180 0.424630 0.992291
Cu2   Cu    Cu3+1 0.004820 0.004820 0.575370 0.976952
Cu3   Cu    Cu3+1 0.995180 0.424630 0.995180 1.009533
Cu4   Cu    Cu3+1 0.004820 0.575370 0.004820 1.025014
Cu5   Cu    Cu3+1 0.424630 0.995180 0.995180 0.991989
Cu6   Cu    Cu3+1 0.575370 0.004820 0.004820 1.011040
H1    H     H_    0.271307 0.963954 0.271022 0.200849
H2    H     H_    0.728783 0.038782 0.727800 0.197944
H3    H     H_    0.963647 0.271601 0.272194 0.200351
H4    H     H_    0.038645 0.728707 0.729616 0.177949
H5    H     H_    0.270424 0.270845 0.966232 0.179162
H6    H     H_    0.726721 0.727805 0.042541 0.200675
H7    H     H_    0.303177 0.004687 0.783238 0.169413
H8    H     H_    0.720406 0.954268 0.230583 0.156260
H9    H     H_    0.972361 0.790369 0.314968 0.164596
H10   H     H_    0.979209 0.221507 0.715464 0.151689
H11   H     H_    0.793586 0.316150 0.966106 0.170897
H12   H     H_    0.217614 0.710525 0.979687 0.192808
H13   H     H_    0.209743 0.032478 0.691445 0.142736
H14   H     H_    0.782857 0.017781 0.288968 0.150029
H15   H     H_    0.702869 0.220801 0.990560 0.188439
H16   H     H_    0.278476 0.769839 0.044353 0.161484
H17   H     H_    0.997961 0.699925 0.219178 0.193732
H18   H     H_    0.034336 0.287742 0.779827 0.192606
O1    O     O_R   0.124540 0.978640 0.385460 -0.577288
O2    O     O_R   0.875460 0.021360 0.614540 -0.562932
O3    O     O_R   0.978640 0.385460 0.124540 -0.580356
O4    O     O_R   0.021360 0.614540 0.875460 -0.587391
O5    O     O_R   0.385460 0.124540 0.978640 -0.589460
O6    O     O_R   0.614540 0.875460 0.021360 -0.559925
O7    O     O_R   0.614540 0.021360 0.875460 -0.578434
O8    O     O_R   0.385460 0.978640 0.124540 -0.560567
O9    O     O_R   0.875460 0.614540 0.021360 -0.576881
O10   O     O_R   0.124540 0.385460 0.978640 -0.591240
O11   O     O_R   0.021360 0.875460 0.614540 -0.589681
O12   O     O_R   0.978640 0.124540 0.385460 -0.565504
O13   O     O_R   0.013780 0.867370 0.487190 -0.590815
O14   O     O_R   0.986220 0.132630 0.512810 -0.583101
O15   O     O_R   0.867370 0.487190 0.013780 -0.592257
O16   O     O_R   0.132630 0.512810 0.986220 -0.601365
O17   O     O_R   0.487190 0.013780 0.867370 -0.595774
O18   O     O_R   0.512810 0.986220 0.132630 -0.604635
O19   O     O_R   0.512810 0.132630 0.986220 -0.587593
O20   O     O_R   0.487190 0.867370 0.013780 -0.600520
O21   O     O_R   0.986220 0.512810 0.132630 -0.581196
O22   O     O_R   0.013780 0.487190 0.867370 -0.591130
O23   O     O_R   0.132630 0.986220 0.512810 -0.609948
O24   O     O_R   0.867370 0.013780 0.487190 -0.604417
C103  C     C_2   0.485505 0.891962 0.800998 0.893066
O25   O     O_2   0.553745 0.848728 0.824355 -0.594399
O26   O     O_R   0.411286 0.858343 0.839558 -0.782394
H19   H     H_    0.424870 0.796326 0.880832 0.340216
C104  C     C_2   0.599262 0.863728 0.251341 0.907179
O27   O     O_2   0.579355 0.793270 0.285829 -0.521970
O28   O     O_R   0.669280 0.871401 0.172868 -0.725897
H20   H     H_    0.671355 0.935129 0.140077 0.298513
C105  C     C_2   0.879845 0.798988 0.501303 0.878843
O29   O     O_2   0.846734 0.826814 0.567507 -0.597283
O30   O     O_R   0.831031 0.827229 0.439874 -0.777281
H21   H     H_    0.767719 0.863030 0.462226 0.342783
C106  C     C_2   0.872693 0.251604 0.602247 0.887842
O31   O     O_2   0.801397 0.289815 0.584301 -0.530366
O32   O     O_R   0.878263 0.173889 0.673042 -0.724826
H22   H     H_    0.941597 0.137728 0.673795 0.309609
C107  C     C_2   0.805564 0.502231 0.875818 0.886872
O33   O     O_2   0.830575 0.570056 0.842597 -0.603974
O34   O     O_R   0.840893 0.437477 0.829512 -0.778790
H23   H     H_    0.880062 0.458230 0.767637 0.337567
C108  C     C_2   0.249315 0.602889 0.862741 0.888073
O35   O     O_2   0.248544 0.566455 0.812505 -0.566165
O36   O     O_R   0.212305 0.695109 0.847645 -0.780412
H24   H     H_    0.185352 0.722925 0.795456 0.335382
C109  C     C_2   0.187845 0.115701 0.511191 0.923441
O37   O     O_2   0.187306 0.177841 0.443618 -0.549507
O38   O     O_R   0.113496 0.121408 0.585327 -0.757669
H25   H     H_    0.109361 0.061429 0.629320 0.281853
C110  C     C_2   0.752659 0.133348 0.395903 0.911591
O39   O     O_2   0.718241 0.205356 0.412854 -0.527830
O40   O     O_R   0.830997 0.123511 0.326007 -0.724416
H26   H     H_    0.864852 0.059139 0.327447 0.294800
C111  C     C_2   0.523751 0.195268 0.100336 0.909622
O41   O     O_2   0.454618 0.179099 0.153712 -0.590669
O42   O     O_R   0.605696 0.140222 0.115036 -0.790576
H27   H     H_    0.598365 0.088898 0.170263 0.329028
C112  C     C_2   0.397442 0.751833 0.135312 0.906323
O43   O     O_2   0.415086 0.718851 0.206878 -0.524884
O44   O     O_R   0.328567 0.830865 0.124537 -0.727191
H28   H     H_    0.328425 0.861910 0.060042 0.298896
C113  C     C_2   0.103145 0.524308 0.188239 0.901897
O45   O     O_2   0.161878 0.457255 0.173100 -0.593764
O46   O     O_R   0.104340 0.606963 0.126025 -0.781066
H29   H     H_    0.151248 0.600934 0.068291 0.333606
C114  C     C_2   0.145731 0.398732 0.750575 0.894011
O47   O     O_2   0.192550 0.437406 0.753838 -0.572784
O48   O     O_R   0.164449 0.306118 0.785698 -0.783605
H30   H     H_    0.215770 0.280029 0.813742 0.334252

loop_
_geom_bond_atom_site_label_1
_geom_bond_atom_site_label_2
_ccdc_geom_bond_type
C68   C80   A    
C83   C87   A    
C108  O35   D    
C9    C45   A    
O32   H22   S    
C81   H18   S    
C104  O28   S    
C18   C96   A    
O34   H23   S    
C6    C58   A    
C11   C47   A    
C106  O31   D    
Cu6   O18   S    
C12   C48   A    
C61   H1    S    
C55   C68   A    
C27   O21   A    
C75   C95   A    
C107  O34   S    
O36   H24   S    
C78   C90   A    
C84   H15   S    
C108  O36   S    
C77   C89   A    
O28   H20   S    
C106  O32   S    
C69   C81   A    
C24   O18   A    
Cu5   O8    S    
C111  O42   S    
Cu3   O15   S    
C19   C47   S    
C58   C71   A    
C64   H4    S    
C3    C33   A    
C95   C99   A    
C20   O12   A    
C96   C100  A    
C1    C31   A    
C23   C43   S    
Cu2   O11   S    
C30   C38   S    
C2    C32   A    
C74   C92   A    
C13   C98   A    
C26   O20   A    
C80   C86   A    
Cu1   Cu2   S    
Cu1   O24   S    
C16   C34   A    
C59   C113  S    
C53   C107  S    
C30   O2    A    
O26   H19   S    
C4    C40   A    
C27   C39   S    
C62   H2    S    
C10   C46   A    
C9    C36   A    
Cu5   Cu6   S    
C105  O30   S    
C10   C35   A    
C17   C95   A    
C7    C43   A    
C83   H16   S    
Cu1   O1    S    
C76   C88   A    
C71   C83   A    
C1    C37   A    
C81   C89   A    
C73   C91   A    
C3    C39   A    
C15   C102  A    
C13   C91   A    
C63   H3    S    
C23   O17   A    
O44   H28   S    
C10   C54   A    
C12   C52   A    
Cu4   O16   S    
C21   C45   S    
C80   H13   S    
C85   H8    S    
C79   H14   S    
C4    C34   A    
C28   O22   A    
Cu6   O6    S    
C60   C114  S    
C49   C103  S    
C92   C98   A    
C113  O45   D    
C90   H9    S    
C8    C44   A    
C67   C79   A    
C7    C49   A    
C46   C65   A    
C109  O38   S    
C50   C73   A    
C25   C41   S    
C107  O33   D    
Cu5   O20   S    
C23   O7    A    
C48   C63   A    
Cu3   O3    S    
C52   C106  S    
O40   H26   S    
Cu3   O22   S    
C71   C99   A    
C91   C97   A    
Cu4   O21   S    
C114  O47   D    
C22   O10   A    
C86   H7    S    
C45   C66   A    
Cu2   O23   S    
C55   C109  S    
C111  O41   D    
C113  O46   S    
C82   H17   S    
Cu1   O13   S    
C2    C38   A    
C105  O29   D    
Cu2   O2    S    
C50   C104  S    
C19   O11   A    
C14   C92   A    
C22   O16   A    
C70   C102  A    
C38   C62   A    
C20   C48   S    
C74   C86   A    
C88   H11   S    
C73   C85   A    
C72   C84   A    
Cu3   O10   S    
C75   C87   A    
Cu4   O9    S    
C22   C46   S    
O38   H25   S    
C29   O1    A    
C24   C44   S    
C15   C33   A    
Cu1   O12   S    
C53   C76   A    
C9    C53   A    
C18   C99   A    
C93   C101  A    
C52   C77   A    
C25   O5    A    
C8    C50   A    
C57   C111  S    
C26   O6    A    
C26   C42   S    
C14   C97   A    
Cu6   O19   S    
C72   C100  A    
C24   O8    A    
Cu4   O4    S    
C5    C41   A    
C25   O19   A    
C7    C32   A    
C66   H6    S    
C30   O24   A    
C58   C112  S    
C8    C31   A    
C65   H5    S    
C54   C108  S    
C13   C31   A    
C11   C34   A    
C84   C88   A    
C14   C32   A    
C4    C60   A    
C82   C90   A    
C15   C93   A    
C37   C61   A    
C47   C64   A    
C69   C101  A    
C44   C61   A    
C56   C67   A    
C39   C63   A    
Cu3   Cu4   S    
C16   C94   A    
C40   C64   A    
C5    C57   A    
C20   O14   A    
Cu5   O5    S    
C1    C55   A    
C51   C78   A    
C21   O15   A    
Cu6   O7    S    
C109  O37   D    
C2    C56   A    
C76   C96   A    
C77   C93   A    
C18   C36   A    
O42   H27   S    
O30   H21   S    
C60   C69   A    
C78   C94   A    
C27   O3    A    
C5    C35   A    
C51   C105  S    
C79   C85   A    
C6    C36   A    
C28   O4    A    
C103  O26   S    
C57   C72   A    
C41   C65   A    
O48   H30   S    
C70   C82   A    
C17   C100  A    
C68   C98   A    
C112  O44   S    
C11   C51   A    
C67   C97   A    
C59   C70   A    
C29   O23   A    
C110  O39   D    
Cu2   O14   S    
C16   C101  A    
C87   H12   S    
C89   H10   S    
C94   C102  A    
C19   O13   A    
O46   H29   S    
C6    C42   A    
C29   C37   S    
C104  O27   D    
C42   C66   A    
C28   C40   S    
C49   C74   A    
C112  O43   D    
C17   C35   A    
C110  O40   S    
C12   C33   A    
Cu5   O17   S    
C103  O25   D    
C21   O9    A    
C43   C62   A    
C54   C75   A    
C114  O48   S    
C56   C110  S    
C3    C59   A    
