data_mof_unit_8343.cif
_audit_creation_date              2013-03-05T16:11:14-0500
_audit_creation_method            fapswitch 2.2
_symmetry_space_group_name_H-M    P1
_symmetry_Int_Tables_number       1
_space_group_crystal_system       triclinic
_cell_length_a                    6.952469
_cell_length_b                    20.528285
_cell_length_c                    24.509735
_cell_angle_alpha                 90.089036
_cell_angle_beta                  90.430931
_cell_angle_gamma                 89.448155
_cell_volume                      3497.81987142

loop_
_atom_site_label
_atom_site_type_symbol
_atom_site_description
_atom_site_fract_x
_atom_site_fract_y
_atom_site_fract_z
_atom_type_partial_charge
O1    O     O_R   0.507280 0.423750 0.460310 -0.574857
O2    O     O_R   0.171030 0.555650 0.437630 -0.592242
O3    O     O_R   0.004080 0.576250 0.539690 -0.597360
C1    C     C_R   0.339041 0.575732 0.421831 1.031073
O4    O     O_R   0.177330 0.422980 0.453960 -0.591146
O5    O     O_R   0.010420 0.442640 0.556140 -0.596249
C2    C     C_R   0.346178 0.399229 0.443028 1.031816
O6    O     O_R   0.500930 0.557360 0.443860 -0.579792
O7    O     O_3   0.340310 0.506600 0.533500 -0.279957
V1    V     V_3+5 0.064140 0.498780 0.493780 1.215877
O8    O     O_R   0.680890 0.444350 0.562370 -0.591127
C3    C     C_R   0.850582 0.424424 0.578142 0.981985
O9    O     O_R   0.674590 0.577020 0.546040 -0.586952
C4    C     C_R   0.842688 0.600882 0.556794 0.973139
V2    V     V_3+5 0.564550 0.501220 0.506220 1.226886
O10   O     O_3   0.838250 0.493400 0.466500 -0.253920
C5    C     C_R   0.975021 0.839563 0.909075 -0.299679
C6    C     C_R   0.847124 0.662074 0.588335 -0.195405
C7    C     C_R   0.020926 0.722647 0.904307 0.543226
C8    C     C_R   0.034182 0.781058 0.932936 -0.293847
C9    C     C_R   0.915491 0.840584 0.853789 0.391740
C10   C     C_R   0.930559 0.782530 0.821215 -0.012494
C11   C     C_R   0.963631 0.722718 0.848896 -0.115627
C12   C     C_R   0.910859 0.780752 0.762773 0.010885
C13   C     C_R   0.885303 0.720156 0.734706 -0.050459
C14   C     C_R   0.871821 0.662930 0.767003 0.433995
C15   C     C_R   0.927351 0.664069 0.821689 -0.138422
C16   C     C_R   0.933168 0.837143 0.731324 -0.174289
C17   C     C_R   0.893914 0.838430 0.675613 0.512313
C18   C     C_R   0.849381 0.780186 0.647492 -0.181500
C19   C     C_R   0.871129 0.719931 0.676040 0.054196
C20   C     C_R   0.794736 0.778832 0.591355 0.572918
C21   C     C_R   0.791216 0.719870 0.563019 -0.273259
C22   C     C_R   0.889703 0.662276 0.644277 -0.107301
H1    H     H_    0.927596 0.618541 0.843905 0.224965
H2    H     H_    0.942754 0.617395 0.661745 0.169477
H3    H     H_    0.747265 0.719221 0.520481 0.156251
H4    H     H_    0.081664 0.780415 0.975171 0.188989
H5    H     H_    0.990630 0.880886 0.749291 0.220474
C23   C     C_R   0.754770 0.293064 0.747259 -0.206402
H6    H     H_    0.632764 0.326274 0.745632 0.184021
C24   C     C_R   0.893938 0.294846 0.706191 0.028586
C25   C     C_R   0.050880 0.251496 0.708900 -0.248256
H7    H     H_    0.159392 0.252373 0.677406 0.175651
C26   C     C_R   0.069158 0.206720 0.752034 0.499008
C27   C     C_R   0.929565 0.204912 0.793493 -0.176455
C28   C     C_R   0.771859 0.248658 0.790705 0.488243
C29   C     C_1   0.876140 0.341004 0.661309 0.103186
C30   C     C_1   0.947708 0.158691 0.838537 0.268593
C31   C     C_1   0.961015 0.120508 0.876281 -0.189410
C32   C     C_1   0.863080 0.379258 0.623598 -0.272276
H8    H     H_    0.678004 0.730735 0.315373 0.141810
C33   C     C_R   0.582645 0.783141 0.243909 -0.149028
H9    H     H_    0.717664 0.808528 0.239991 0.188660
C34   C     C_R   0.432748 0.794679 0.206272 0.002577
C35   C     C_R   0.258279 0.760959 0.212712 0.481964
C36   C     C_R   0.235983 0.716748 0.256106 -0.247325
H10   H     H_    0.101122 0.691329 0.260530 0.169843
C37   C     C_R   0.386404 0.705252 0.293539 0.104129
C38   C     C_R   0.559876 0.738799 0.287027 -0.139783
C39   C     C_1   0.458682 0.840939 0.161571 0.166647
C40   C     C_1   0.363681 0.659203 0.338441 0.053666
C41   C     C_1   0.348828 0.620994 0.376187 -0.244051
C42   C     C_1   0.475028 0.879214 0.123933 -0.202613
C43   C     C_R   0.466997 0.161717 0.088676 -0.140063
C44   C     C_R   0.349698 0.339061 0.409801 -0.259121
C45   C     C_R   0.451858 0.279322 0.090633 -0.130588
C46   C     C_R   0.469288 0.221345 0.061467 -0.150299
C47   C     C_R   0.445251 0.160439 0.145644 -0.117582
C48   C     C_R   0.411286 0.218640 0.175823 0.134141
C49   C     C_R   0.424686 0.278515 0.147338 0.151647
C50   C     C_R   0.369353 0.219846 0.233281 -0.107715
C51   C     C_R   0.383801 0.280415 0.262546 0.056792
C52   C     C_R   0.389800 0.338332 0.231727 -0.047359
C53   C     C_R   0.408243 0.337311 0.175402 -0.213228
C54   C     C_R   0.301304 0.164439 0.261980 0.335342
C55   C     C_R   0.275662 0.167523 0.318302 -0.259894
C56   C     C_R   0.306400 0.224725 0.347667 0.083216
C57   C     C_R   0.369710 0.281862 0.321104 -0.024292
C58   C     C_R   0.262609 0.225626 0.403354 -0.084232
C59   C     C_R   0.276122 0.282788 0.433315 -0.196599
C60   C     C_R   0.409496 0.338024 0.354527 0.276623
H11   H     H_    0.411409 0.383221 0.153630 0.157702
H12   H     H_    0.230986 0.282943 0.475551 0.134570
H13   H     H_    0.219179 0.125259 0.339075 0.183784
H14   H     H_    0.458078 0.325046 0.068691 0.148236
H15   H     H_    0.485902 0.222980 0.017569 0.146291
H16   H     H_    0.459494 0.113755 0.165496 0.143645
H17   H     H_    0.368017 0.385565 0.249960 0.174466
H18   H     H_    0.209355 0.182421 0.423394 0.143930
O11   O     O_R   0.323320 0.942780 0.056240 -0.583817
O12   O     O_R   0.647300 0.077050 0.046060 -0.591163
O13   O     O_R   0.813840 0.057330 0.943840 -0.575414
C61   C     C_R   0.478117 0.100929 0.056825 0.944296
O14   O     O_R   0.653250 0.944380 0.062400 -0.585836
O15   O     O_R   0.819830 0.923720 0.960300 -0.569954
C62   C     C_R   0.485169 0.924473 0.078310 0.968961
O16   O     O_R   0.317330 0.076390 0.039790 -0.584954
O17   O     O_3   0.483830 0.993470 0.966560 -0.249695
V3    V     V_3+5 0.760140 0.001210 0.006210 1.256522
O18   O     O_R   0.149290 0.922840 0.953850 -0.595220
C63   C     C_R   0.980960 0.899289 0.942814 1.064152
O19   O     O_R   0.143340 0.055500 0.937510 -0.582686
C64   C     C_R   0.973636 0.075441 0.921771 0.989475
V4    V     V_3+5 0.259690 0.998600 0.993650 1.256795
O20   O     O_3   0.986130 0.006520 0.033440 -0.271047
Cl1   Cl    Cl    0.705964 0.846885 0.554887 -0.497791
Cl2   Cl    Cl    0.593034 0.249235 0.841235 -0.591296
Cl3   Cl    Cl    0.268877 0.153302 0.752822 -0.527029
Cl4   Cl    Cl    0.064762 0.772977 0.166957 -0.646696
N1    N     N_R   0.527759 0.390021 0.335187 0.217258
O21   O     O_R   0.692968 0.376840 0.312906 -0.382746
O22   O     O_R   0.474111 0.450525 0.340996 -0.436415
N2    N     N_R   0.223239 0.108799 0.234381 0.223912
O23   O     O_R   0.091333 0.116921 0.196964 -0.394390
O24   O     O_R   0.256690 0.050514 0.253235 -0.381487
Cl5   Cl    Cl    0.937470 0.913540 0.643242 -0.440921
Cl6   Cl    Cl    0.081567 0.650463 0.939708 -0.559295
Cl7   Cl    Cl    0.789608 0.911214 0.831136 -0.614769
Cl8   Cl    Cl    0.754992 0.590968 0.745881 -0.633469

loop_
_geom_bond_atom_site_label_1
_geom_bond_atom_site_label_2
_geom_bond_distance
_ccdc_geom_bond_type
C13   C19   1.440522 A    
C23   C28   1.406427 A    
C49   C53   1.392454 A    
C34   C35   1.412379 A    
C31   C64   1.451514 S    
O18   C63   1.297025 A    
O15   C63   1.298425 A    
C51   C52   1.410704 A    
C4    C6    1.474409 S    
O2    C1    1.304182 A    
C7    C8    1.391830 A    
C50   C54   1.424839 A    
C3    C32   1.452136 S    
C56   C58   1.400693 A    
N2    O23   1.301814 A    
C26   C27   1.411212 A    
C27   C30   1.460781 S    
C14   C15   1.392252 A    
C40   C41   1.219443 T    
O16   V4    1.997363 S    
C52   H17   1.076868 S    
C16   C17   1.390705 A    
C14   Cl8   1.767633 S    
O5    C3    1.297386 A    
C18   C19   1.428263 A    
C26   Cl3   1.761029 S    
C36   C37   1.404500 A    
C61   O16   1.296493 A    
V2    O10   2.148489 S    
C34   C39   1.464308 S    
C5    C8    1.393794 A    
C35   C36   1.409646 A    
O11   V4    1.961533 S    
H8    C38   1.083399 S    
O8    V2    1.970078 S    
C29   C32   1.216064 T    
N1    O21   1.301446 A    
C7    Cl6   1.764322 S    
C37   C40   1.462356 S    
C20   Cl1   1.763645 S    
C54   N2    1.435525 S    
C48   C49   1.418717 A    
O1    V2    1.988400 S    
C11   C15   1.399532 A    
O7    V1    2.153486 S    
C22   H2    1.077262 S    
C1    O6    1.297643 A    
C23   C24   1.402198 A    
C55   H13   1.084943 S    
C37   C38   1.404832 A    
O1    C2    1.300153 A    
O9    C4    1.296636 A    
O13   C64   1.297189 A    
C35   Cl4   1.760797 S    
C33   C38   1.406689 A    
C54   C55   1.394493 A    
C33   C34   1.405208 A    
O18   V4    1.991592 S    
O17   V4    1.700737 S    
C48   C50   1.440422 A    
C52   C53   1.387522 A    
C45   C46   1.392155 A    
C12   C13   1.432452 A    
O19   V4    1.970297 S    
O4    C2    1.296488 A    
C56   C57   1.417731 A    
C50   C51   1.438434 A    
C16   H5    1.078367 S    
C15   H1    1.082357 S    
C13   C14   1.421815 A    
C55   C56   1.393737 A    
C17   Cl5   1.764919 S    
C21   H3    1.084330 S    
C39   C42   1.219346 T    
C7    C11   1.412434 A    
C5    C63   1.478528 S    
C17   C18   1.414872 A    
C44   C60   1.420159 A    
C8    H4    1.084227 S    
O17   V3    2.153453 S    
C1    C41   1.457775 S    
C43   C46   1.395146 A    
O12   C61   1.298696 A    
C51   C57   1.439559 A    
C19   C22   1.421018 A    
N1    O22   1.301301 A    
C24   C29   1.456776 S    
O11   C62   1.297437 A    
C6    C22   1.400530 A    
O13   V3    1.955961 S    
C47   H16   1.078815 S    
C42   C62   1.457493 S    
C30   C31   1.215868 T    
O6    V2    1.960964 S    
O9    V2    1.991504 S    
C25   H7    1.083684 S    
C10   C12   1.438350 A    
C24   C25   1.402601 A    
O2    V1    1.961193 S    
C59   H12   1.083949 S    
O12   V3    1.994125 S    
C27   C28   1.411878 A    
C43   C61   1.472613 S    
C45   H14   1.083899 S    
O14   V3    1.961389 S    
C12   C16   1.402241 A    
C58   C59   1.386886 A    
O5    V1    1.956038 S    
C57   C60   1.441054 A    
N2    O24   1.301540 A    
O8    C3    1.301143 A    
O14   C62   1.304290 A    
C33   H9    1.083022 S    
O3    C4    1.298452 A    
V4    O20   2.148553 S    
V3    O20   1.706822 S    
C60   N1    1.436807 S    
O7    V2    1.703509 S    
O4    V1    1.994075 S    
C25   C26   1.406221 A    
O3    V1    1.989568 S    
V1    O10   1.706758 S    
C20   C21   1.394887 A    
C2    C44   1.478511 S    
C18   C20   1.424933 A    
C53   H11   1.084242 S    
C36   H10   1.083645 S    
C43   C47   1.405877 A    
O15   V3    1.989368 S    
C45   C49   1.404142 A    
C58   H18   1.084162 S    
C47   C48   1.422958 A    
C6    C21   1.390530 A    
C5    C9    1.414002 A    
C9    Cl7   1.774040 S    
C28   Cl2   1.761388 S    
O19   C64   1.301071 A    
C46   H15   1.083583 S    
C10   C11   1.419702 A    
C23   H6    1.083659 S    
C9    C10   1.436850 A    
C44   C59   1.395035 A    
