data_mof_unit_15203.cif
_audit_creation_date              2013-03-05T15:47:05-0500
_audit_creation_method            fapswitch 2.2
_symmetry_space_group_name_H-M    P1
_symmetry_Int_Tables_number       1
_space_group_crystal_system       triclinic
_cell_length_a                    23.493871
_cell_length_b                    11.0566
_cell_length_c                    9.863598
_cell_angle_alpha                 111.87726
_cell_angle_beta                  97.664221
_cell_angle_gamma                 91.629058
_cell_volume                      2347.915415

loop_
_atom_site_label
_atom_site_type_symbol
_atom_site_description
_atom_site_fract_x
_atom_site_fract_y
_atom_site_fract_z
_atom_type_partial_charge
O1    O     O_R   0.505330 0.332340 0.577400 -0.556765
O2    O     O_R   0.494670 0.667660 0.422600 -0.567692
O3    O     O_R   0.488470 0.295500 0.332650 -0.520017
O4    O     O_R   0.511530 0.704500 0.667350 -0.521964
C1    C     C_R   0.495471 0.253530 0.439299 0.749757
C2    C     C_R   0.504477 0.746372 0.560727 0.749547
O5    O     O_R   0.426310 0.518390 0.622390 -0.523611
O6    O     O_R   0.573690 0.481610 0.377610 -0.516712
O7    O     O_R   0.409450 0.481550 0.377650 -0.566034
O8    O     O_R   0.590550 0.518450 0.622350 -0.561174
C3    C     C_R   0.391321 0.504039 0.502685 0.810998
C4    C     C_R   0.608676 0.495877 0.497312 0.812602
Cu1   Cu    Cu3+1 0.509980 0.521810 0.644910 1.072516
Cu2   Cu    Cu3+1 0.490020 0.478190 0.355090 1.073821
C5    C     C_R   0.885146 0.595938 0.597318 0.665668
C6    C     C_R   0.114848 0.399994 0.406582 0.623811
N1    N     N_R   0.850898 0.494057 0.491406 -0.466563
N2    N     N_R   0.149028 0.502966 0.510972 -0.497478
C7    C     C_R   0.872997 0.393884 0.388944 0.649754
C8    C     C_R   0.126964 0.602690 0.614093 0.612453
C9    C     C_R   0.933238 0.391799 0.390542 -0.141553
C10   C     C_R   0.066800 0.603423 0.614380 -0.136230
C11   C     C_R   0.969772 0.496771 0.500228 -0.115883
C12   C     C_R   0.030278 0.498233 0.505000 -0.115838
C13   C     C_R   0.945669 0.600407 0.605015 -0.080401
C14   C     C_R   0.054379 0.394616 0.400185 -0.074961
C15   C     C_R   0.957679 0.288128 0.286692 0.231503
C16   C     C_R   0.042402 0.706262 0.719396 0.232788
C17   C     C_R   0.018079 0.289096 0.291601 0.371871
C18   C     C_R   0.982019 0.704977 0.714957 0.368438
O9    O     O_2   0.860149 0.691961 0.694754 -0.408044
O10   O     O_2   0.139842 0.304129 0.308948 -0.401743
O11   O     O_2   0.836271 0.296915 0.286829 -0.428997
O12   O     O_2   0.163631 0.700819 0.714565 -0.419929
C19   C     C_R   0.234853 0.567665 0.424017 0.476211
C20   C     C_R   0.765331 0.431160 0.575858 0.471306
C21   C     C_R   0.294634 0.572379 0.426086 0.396987
C22   C     C_R   0.705023 0.425903 0.573687 0.287999
C23   C     C_R   0.329366 0.512646 0.508570 -0.233304
C24   C     C_R   0.670614 0.486533 0.491447 -0.174456
C25   C     C_R   0.304051 0.456603 0.594593 -0.207841
C26   C     C_R   0.696184 0.542832 0.405959 -0.209163
H1    H     H_    0.329988 0.411438 0.658969 0.210074
H2    H     H_    0.670476 0.588697 0.342058 0.208010
C27   C     C_R   0.244895 0.454678 0.595138 -0.100300
C28   C     C_R   0.755327 0.544158 0.405436 -0.167956
H3    H     H_    0.225838 0.409840 0.660976 0.192809
H4    H     H_    0.774648 0.589035 0.340010 0.189351
C29   C     C_R   0.210006 0.508362 0.509569 0.120558
C30   C     C_R   0.789829 0.489958 0.490948 0.226002
H5    H     H_    0.476566 0.862422 0.379343 0.215183
H6    H     H_    0.518119 0.138666 0.624040 0.216240
C31   C     C_2   0.491993 0.112338 0.402219 0.159667
C32   C     C_2   0.507929 0.887436 0.598307 0.163750
C33   C     C_2   0.503076 0.069152 0.512558 -0.199849
C34   C     C_2   0.493951 0.931379 0.489615 -0.194373
N3    N     N_2   0.475010 0.445410 0.137370 -0.264794
N4    N     N_2   0.524990 0.554590 0.862630 -0.266849
C35   C     C_2   0.510210 0.497924 0.078369 0.415238
C36   C     C_2   0.499143 0.478215 0.914170 0.394723
H7    H     H_    0.550139 0.636199 0.936417 0.202922
H8    H     H_    0.436691 0.397408 0.074019 0.190589
N5    N     N_R   0.921581 0.181102 0.175241 0.151120
O13   O     O_R   0.908799 0.076886 0.200398 -0.259956
O14   O     O_R   0.907077 0.181845 0.043583 -0.265811
N6    N     N_R   0.078523 0.812987 0.831236 0.152115
O15   O     O_R   0.088115 0.921023 0.810861 -0.261589
O16   O     O_R   0.096390 0.807380 0.959288 -0.257691
O17   O     O_3   0.042834 0.188369 0.191536 -0.607006
H9    H     H_    0.013422 0.118642 0.124661 0.374530
O18   O     O_3   0.957316 0.804531 0.816676 -0.608563
H10   H     H_    0.986946 0.870336 0.889306 0.374271
O19   O     O_3   0.202613 0.624502 0.339501 -0.621863
H11   H     H_    0.161351 0.615483 0.347762 0.335630
O20   O     O_3   0.801711 0.377679 0.656596 -0.673310
H12   H     H_    0.779450 0.342634 0.714255 0.391574
O21   O     O_3   0.317312 0.638363 0.348306 -0.632735
H13   H     H_    0.357513 0.672322 0.394879 0.319712
O22   O     O_3   0.681366 0.359312 0.649607 -0.705395
H14   H     H_    0.641469 0.324664 0.600562 0.334749
N7    N     N_R   0.526825 0.974676 0.749274 0.144390
O23   O     O_R   0.571445 0.950913 0.825989 -0.283451
O24   O     O_R   0.493918 0.063026 0.817062 -0.336374
N8    N     N_R   0.476681 0.024171 0.250116 0.145038
O25   O     O_R   0.435004 0.047861 0.164909 -0.277653
O26   O     O_R   0.509850 0.932765 0.191211 -0.315983
O27   O     O_3   0.460725 0.377553 0.815456 -0.683944
H15   H     H_    0.457891 0.307957 0.855089 0.325342
O28   O     O_3   0.558542 0.573095 0.169018 -0.677832
H16   H     H_    0.588460 0.573104 0.107310 0.298012

loop_
_geom_bond_atom_site_label_1
_geom_bond_atom_site_label_2
_geom_bond_distance
_ccdc_geom_bond_type
N6    O16   1.301441 A    
O27   H15   0.988730 S    
N5    O14   1.301031 A    
C15   C17   1.412966 A    
O19   H11   0.988935 S    
C33   C34   1.459177 S    
C18   O18   1.386962 S    
N3    H8    1.028721 S    
C23   C25   1.401115 A    
O21   H13   0.989743 S    
O5    C3    1.299645 A    
C31   N8    1.441085 S    
O1    C1    1.299330 A    
C1    C31   1.461762 S    
C19   C21   1.401107 A    
N8    O26   1.301602 A    
C35   O28   1.378898 S    
N3    C35   1.308657 D    
C22   O22   1.382172 S    
N4    C36   1.308956 D    
H5    C34   1.084875 S    
C26   C28   1.389865 A    
C27   H3    1.082967 S    
O4    Cu1   1.947027 S    
C19   C29   1.415896 A    
C11   C12   1.415449 A    
H6    C33   1.084362 S    
C8    O12   1.348788 S    
N4    H7    1.028861 S    
C24   C26   1.401577 A    
N6    O15   1.301431 A    
C9    C15   1.418514 A    
C35   C36   1.536110 S    
C10   C16   1.418470 A    
Cu1   Cu2   2.688234 S    
C25   H1    1.083652 S    
O2    C2    1.299205 A    
C26   H2    1.083186 S    
C2    C32   1.459634 S    
N7    O24   1.301181 A    
C36   O27   1.379238 S    
N7    O23   1.301062 A    
C17   O17   1.386908 S    
C31   C33   1.341281 D    
C6    C14   1.412182 A    
C32   C34   1.340388 D    
N8    O25   1.301088 A    
O4    C2    1.291733 A    
C7    O11   1.348821 S    
O7    Cu2   1.934981 S    
Cu1   N4    2.019449 S    
C21   O21   1.381577 S    
N5    O13   1.301062 A    
C4    C24   1.469051 S    
C16   N6    1.432748 S    
O20   H12   0.989513 S    
C20   O20   1.382924 S    
C27   C29   1.397500 A    
O6    C4    1.299804 A    
C3    C23   1.468801 S    
O7    C3    1.296865 A    
O3    Cu2   1.947027 S    
O8    C4    1.296710 A    
C8    C10   1.414122 A    
C9    C11   1.419209 A    
C10   C12   1.419192 A    
O1    Cu1   1.942144 S    
C20   C30   1.403005 A    
C13   C18   1.415810 A    
C5    N1    1.361958 A    
Cu2   N3    2.019449 S    
C19   O19   1.382970 S    
O6    Cu2   1.946258 S    
C7    C9    1.414211 A    
C12   C14   1.418572 A    
O3    C1    1.292654 A    
O8    Cu1   1.934986 S    
N1    C30   1.433522 S    
C5    O9    1.349563 S    
C6    O10   1.349520 S    
C28   C30   1.396267 A    
C20   C22   1.413387 A    
O18   H10   0.988392 S    
C21   C23   1.420551 A    
C22   C24   1.421985 A    
C16   C18   1.412981 A    
N1    C7    1.362406 A    
N2    C8    1.362497 A    
C11   C13   1.418573 A    
O17   H9    0.987985 S    
O2    Cu2   1.942144 S    
C5    C13   1.412240 A    
O22   H14   0.989895 S    
C28   H4    1.082892 S    
O5    Cu1   1.946258 S    
C14   C17   1.415696 A    
C6    N2    1.362021 A    
C25   C27   1.390110 A    
C15   N5    1.432774 S    
O28   H16   0.989279 S    
C32   N7    1.440065 S    
N2    C29   1.434284 S    
