data_mof_unit_42040.cif
_audit_creation_date              2012-12-10T19:29:24-0500
_audit_creation_method            fapswitch 2.2
_symmetry_space_group_name_H-M    P1
_symmetry_Int_Tables_number       1
_space_group_crystal_system       triclinic
_cell_length_a                    22.422041
_cell_length_b                    22.191399
_cell_length_c                    14.944282
_cell_angle_alpha                 90.021304
_cell_angle_beta                  90.035388
_cell_angle_gamma                 90.004791
_cell_volume                      7435.92094981

loop_
_atom_site_label
_atom_site_type_symbol
_atom_type_description
_atom_site_fract_x
_atom_site_fract_y
_atom_site_fract_z
_atom_type_partial_charge
C1    C     C_R   0.419103 0.918522 0.499955 0.900409
C2    C     C_R   0.580883 0.081492 0.500049 0.900449
C3    C     C_R   0.581017 0.918654 0.500025 0.901491
C4    C     C_R   0.418976 0.081340 0.499979 0.901353
C5    C     C_R   0.919117 0.418508 0.499951 0.900448
C6    C     C_R   0.080897 0.581478 0.500045 0.900411
C7    C     C_R   0.081023 0.418660 0.500021 0.901351
C8    C     C_R   0.918983 0.581346 0.499975 0.901490
C9    C     C_1   0.337789 0.163680 0.499969 0.031469
C10   C     C_1   0.662169 0.836280 0.500108 0.031306
C11   C     C_1   0.661364 0.164575 0.500277 0.039902
C12   C     C_1   0.338562 0.835499 0.499800 0.039980
C13   C     C_1   0.837833 0.663721 0.499888 0.031305
C14   C     C_1   0.162198 0.336308 0.500034 0.031466
C15   C     C_1   0.161435 0.664503 0.500202 0.039986
C16   C     C_1   0.838641 0.335419 0.499721 0.039888
C17   C     C_1   0.500018 1.000000 0.189691 0.035130
C18   C     C_1   0.499983 1.000000 0.810309 0.035724
C19   C     C_1   0.000017 0.500000 0.189691 0.035731
C20   C     C_1   0.999982 0.500000 0.810309 0.035138
C21   C     C_3   0.471098 0.951070 0.969839 -0.149144
C22   C     C_3   0.528903 0.048929 0.030160 -0.149410
C23   C     C_3   0.527493 0.950248 0.030107 -0.149675
C24   C     C_3   0.472508 0.049751 0.969893 -0.149554
C25   C     C_3   0.968390 0.452805 0.969839 -0.149585
C26   C     C_3   0.031608 0.547195 0.030161 -0.149320
C27   C     C_3   0.024651 0.448748 0.030103 -0.149284
C28   C     C_3   0.975348 0.551252 0.969897 -0.149398
C29   C     C_3   0.696921 0.722716 0.512172 0.456740
C30   C     C_3   0.303356 0.277514 0.492681 0.456440
C31   C     C_3   0.302295 0.722420 0.481926 0.438028
C32   C     C_3   0.698193 0.277193 0.522081 0.438135
C33   C     C_3   0.196626 0.222469 0.507324 0.456441
C34   C     C_3   0.803082 0.777287 0.487822 0.456738
C35   C     C_3   0.801815 0.222800 0.477915 0.438120
C36   C     C_3   0.197701 0.777584 0.518078 0.438039
C37   C     C_3   0.241413 0.212908 0.430386 0.065337
C38   C     C_3   0.760378 0.788947 0.566752 0.065080
C39   C     C_3   0.763259 0.207347 0.560111 0.087447
C40   C     C_3   0.238047 0.791208 0.437113 0.087452
C41   C     C_3   0.739625 0.711056 0.433242 0.065088
C42   C     C_3   0.258570 0.287075 0.569619 0.065348
C43   C     C_3   0.261949 0.708796 0.562891 0.087454
C44   C     C_3   0.736748 0.292646 0.439885 0.087427
C45   C     C_1   0.375077 0.125986 0.499959 -0.179648
C46   C     C_1   0.624894 0.873987 0.500073 -0.179653
C47   C     C_1   0.624340 0.126602 0.500168 -0.179605
C48   C     C_1   0.375607 0.873451 0.499863 -0.179512
C49   C     C_1   0.875107 0.626014 0.499926 -0.179654
C50   C     C_1   0.124916 0.374007 0.500042 -0.179654
C51   C     C_1   0.124391 0.626551 0.500138 -0.179511
C52   C     C_1   0.875663 0.373395 0.499831 -0.179609
C53   C     C_3   0.247288 0.219018 0.576902 0.079989
C54   C     C_3   0.750594 0.778854 0.421214 0.080226
C55   C     C_3   0.745819 0.225650 0.418147 0.067677
C56   C     C_3   0.252337 0.776234 0.580725 0.067699
C57   C     C_3   0.749408 0.721148 0.578780 0.080218
C58   C     C_3   0.252695 0.280965 0.423103 0.079979
C59   C     C_3   0.247659 0.723770 0.419279 0.067709
C60   C     C_3   0.754189 0.274343 0.581849 0.067712
C61   C     C_3   0.292347 0.208752 0.500012 -0.128969
C62   C     C_3   0.707616 0.791214 0.500070 -0.129104
C63   C     C_3   0.706954 0.209517 0.500247 -0.122963
C64   C     C_3   0.292989 0.790541 0.499837 -0.122983
C65   C     C_3   0.792387 0.708789 0.499924 -0.129094
C66   C     C_3   0.207636 0.291231 0.499993 -0.128958
C67   C     C_3   0.207007 0.709462 0.500167 -0.122978
C68   C     C_3   0.793054 0.290476 0.499750 -0.122963
C69   C     C_3   0.443616 0.000821 0.030074 -0.151710
C70   C     C_3   0.556385 0.999178 0.969925 -0.151756
C71   C     C_3   0.943749 0.504057 0.030076 -0.151810
C72   C     C_3   0.056250 0.495943 0.969924 -0.151771
C73   C     C_3   0.500011 0.999999 0.089228 0.117950
C74   C     C_3   0.499991 1.000000 0.910772 0.117901
C75   C     C_3   0.000009 0.500000 0.089228 0.117907
C76   C     C_3   0.999989 0.500000 0.910772 0.117957
H1    H     H_    0.603051 0.998498 0.945199 0.129808
H2    H     H_    0.396950 0.001501 0.054801 0.129828
H3    H     H_    0.102805 0.492585 0.945200 0.129740
H4    H     H_    0.897193 0.507415 0.054800 0.129719
H5    H     H_    0.550251 0.909073 0.054859 0.131911
H6    H     H_    0.449750 0.090926 0.945141 0.132004
H7    H     H_    0.447174 0.910574 0.945041 0.132326
H8    H     H_    0.552827 0.089425 0.054958 0.132153
H9    H     H_    0.045055 0.406331 0.054851 0.132120
H10   H     H_    0.954944 0.593669 0.945149 0.132036
H11   H     H_    0.942228 0.413746 0.945044 0.132052
H12   H     H_    0.057770 0.586254 0.054955 0.132236
N1    N     N_1   0.500020 0.000000 0.268010 -0.088973
N2    N     N_1   0.499980 0.000000 0.731990 -0.088828
N3    N     N_1   0.000020 0.500000 0.268010 -0.088828
N4    N     N_1   0.999980 0.500000 0.731990 -0.088973
O1    O     O_R   0.438390 0.938390 0.574460 -0.611670
O2    O     O_R   0.561610 0.061610 0.425540 -0.612213
O3    O     O_R   0.561610 0.938390 0.425540 -0.611123
O4    O     O_R   0.438390 0.061610 0.574460 -0.610604
O5    O     O_R   0.938390 0.438390 0.574460 -0.612216
O6    O     O_R   0.061610 0.561610 0.425540 -0.611672
O7    O     O_R   0.061610 0.438390 0.425540 -0.610601
O8    O     O_R   0.938390 0.561610 0.574460 -0.611119
O9    O     O_R   0.438400 0.938390 0.425520 -0.608339
O10   O     O_R   0.561600 0.061610 0.574480 -0.607897
O11   O     O_R   0.561600 0.938390 0.574480 -0.611111
O12   O     O_R   0.438400 0.061610 0.425520 -0.611623
O13   O     O_R   0.938400 0.438390 0.425520 -0.607895
O14   O     O_R   0.061600 0.561610 0.574480 -0.608336
O15   O     O_R   0.061600 0.438390 0.574480 -0.611626
O16   O     O_R   0.938400 0.561610 0.425520 -0.611114
Zn1   Zn    Zn3+2 0.500000 0.000000 0.599450 0.983047
Zn2   Zn    Zn3+2 0.500000 1.000000 0.400550 0.982072
Zn3   Zn    Zn3+2 1.000000 0.500000 0.599450 0.982074
Zn4   Zn    Zn3+2 1.000000 0.500000 0.400550 0.983047
N5    N     N_2   0.234435 0.171192 0.356503 -0.317010
H13   H     H_    0.273994 0.159548 0.326005 0.233726
C77   C     C_3   0.187109 0.185142 0.293976 -0.763391
H14   H     H_    0.178021 0.145037 0.251733 0.224379
H15   H     H_    0.200370 0.222961 0.249768 0.260953
H16   H     H_    0.145434 0.197395 0.329730 0.269160
N6    N     N_2   0.769270 0.832631 0.637592 -0.317129
H17   H     H_    0.730536 0.845133 0.669684 0.233596
C78   C     C_3   0.818202 0.820329 0.698065 -0.763520
H18   H     H_    0.828386 0.861544 0.737281 0.224370
H19   H     H_    0.858905 0.807038 0.660647 0.269023
H20   H     H_    0.806115 0.783775 0.745274 0.261052
N7    N     N_2   0.774287 0.160381 0.625386 -0.296691
H21   H     H_    0.763416 0.117736 0.603499 0.211624
C79   C     C_3   0.831106 0.163439 0.671013 -0.735415
H22   H     H_    0.831061 0.131415 0.728040 0.220090
H23   H     H_    0.839343 0.209410 0.697528 0.270759
H24   H     H_    0.867795 0.150999 0.624956 0.254602
N8    N     N_2   0.228437 0.836612 0.368968 -0.296670
H25   H     H_    0.238778 0.879759 0.389198 0.211730
C80   C     C_3   0.172666 0.832383 0.320710 -0.735363
H26   H     H_    0.173974 0.863028 0.262070 0.220171
H27   H     H_    0.134967 0.845858 0.364220 0.254493
H28   H     H_    0.165039 0.785798 0.296227 0.270749
N9    N     N_2   0.730729 0.667370 0.362407 -0.317130
H29   H     H_    0.769462 0.654859 0.330320 0.233557
C81   C     C_3   0.681801 0.679674 0.301930 -0.763464
H30   H     H_    0.671588 0.638447 0.262755 0.224346
H31   H     H_    0.693906 0.716199 0.254679 0.260997
H32   H     H_    0.641105 0.693007 0.339337 0.269031
N10   N     N_2   0.265549 0.328791 0.643501 -0.317015
H33   H     H_    0.225991 0.340438 0.673998 0.233696
C82   C     C_3   0.312875 0.314840 0.706030 -0.763419
H34   H     H_    0.321967 0.354947 0.748267 0.224372
H35   H     H_    0.354548 0.302582 0.670276 0.269173
H36   H     H_    0.299610 0.277025 0.750242 0.260940
N11   N     N_2   0.271558 0.663391 0.631035 -0.296642
H37   H     H_    0.261220 0.620243 0.610804 0.211744
C83   C     C_3   0.327327 0.667621 0.679298 -0.735347
H38   H     H_    0.326021 0.636970 0.737931 0.220181
H39   H     H_    0.334949 0.714205 0.703791 0.270735
H40   H     H_    0.365029 0.654156 0.635788 0.254494
N12   N     N_2   0.725722 0.339609 0.374606 -0.296666
H41   H     H_    0.736602 0.382254 0.396483 0.211628
C84   C     C_3   0.668899 0.336556 0.328987 -0.735431
H42   H     H_    0.668953 0.368562 0.271937 0.220110
H43   H     H_    0.632216 0.349022 0.375038 0.254559
H44   H     H_    0.660646 0.290580 0.302503 0.270751
O17   O     O_3   0.638933 0.699580 0.525737 -0.592422
C85   C     C_3   0.640126 0.635954 0.525992 0.103509
H45   H     H_    0.675825 0.617648 0.569820 0.128965
H46   H     H_    0.646601 0.618274 0.457295 0.176111
C86   C     C_3   0.580618 0.612554 0.560025 -0.846986
H47   H     H_    0.544111 0.629197 0.516397 0.269530
H48   H     H_    0.580508 0.562513 0.559244 0.202701
H49   H     H_    0.572798 0.628387 0.629527 0.254940
O18   O     O_3   0.361680 0.300882 0.484080 -0.592307
C87   C     C_3   0.360517 0.364473 0.487346 0.103182
H50   H     H_    0.351685 0.380416 0.556387 0.176085
H51   H     H_    0.326376 0.383930 0.441865 0.129010
C88   C     C_3   0.421140 0.388590 0.459303 -0.847163
H52   H     H_    0.431397 0.374414 0.389726 0.255374
H53   H     H_    0.421204 0.438584 0.462714 0.202512
H54   H     H_    0.456061 0.370885 0.504893 0.269487
O19   O     O_3   0.359818 0.698880 0.465412 -0.586002
C89   C     C_3   0.356396 0.636978 0.443895 0.095534
H55   H     H_    0.342377 0.630951 0.373386 0.149931
H56   H     H_    0.325015 0.611889 0.487702 0.122975
C90   C     C_3   0.417824 0.608764 0.453991 -0.839343
H57   H     H_    0.433202 0.612569 0.524368 0.251102
H58   H     H_    0.415913 0.560345 0.435422 0.201144
H59   H     H_    0.450187 0.631946 0.409529 0.264033
O20   O     O_3   0.641133 0.300431 0.542659 -0.585949
C91   C     C_3   0.645206 0.361795 0.567130 0.095531
H60   H     H_    0.675688 0.387828 0.523109 0.123027
H61   H     H_    0.660769 0.366163 0.637177 0.149992
C92   C     C_3   0.583684 0.390348 0.561496 -0.839561
H62   H     H_    0.552252 0.366233 0.606364 0.263725
H63   H     H_    0.586153 0.438317 0.582353 0.201298
H64   H     H_    0.566756 0.388168 0.491771 0.251738
O21   O     O_3   0.138302 0.199103 0.515923 -0.592300
C93   C     C_3   0.139464 0.135511 0.512663 0.103145
H65   H     H_    0.173591 0.116056 0.558167 0.129021
H66   H     H_    0.148315 0.119565 0.443629 0.176082
C94   C     C_3   0.078832 0.111397 0.540669 -0.847140
H67   H     H_    0.043924 0.129103 0.495057 0.269483
H68   H     H_    0.078767 0.061404 0.537262 0.202511
H69   H     H_    0.068556 0.125576 0.610240 0.255393
O22   O     O_3   0.861069 0.800424 0.474257 -0.592412
C95   C     C_3   0.859874 0.864050 0.473992 0.103480
H70   H     H_    0.853364 0.881734 0.542680 0.176097
H71   H     H_    0.824194 0.882346 0.430123 0.128973
C96   C     C_3   0.919402 0.887453 0.440020 -0.846920
H72   H     H_    0.927247 0.871636 0.370516 0.254932
H73   H     H_    0.919516 0.937495 0.440822 0.202688
H74   H     H_    0.955890 0.870801 0.483675 0.269531
O23   O     O_3   0.858875 0.199561 0.457342 -0.585964
C97   C     C_3   0.854800 0.138201 0.432847 0.095567
H75   H     H_    0.839263 0.133849 0.362784 0.150018
H76   H     H_    0.824294 0.112167 0.476830 0.123000
C98   C     C_3   0.916313 0.109633 0.438521 -0.839597
H77   H     H_    0.933214 0.111790 0.508261 0.251731
H78   H     H_    0.913842 0.061670 0.417633 0.201306
H79   H     H_    0.947769 0.133752 0.393695 0.263717
O24   O     O_3   0.140178 0.801121 0.534594 -0.585999
C99   C     C_3   0.143597 0.863024 0.556104 0.095494
H80   H     H_    0.174958 0.888116 0.512271 0.123004
H81   H     H_    0.157637 0.869058 0.626601 0.149925
C100  C     C_3   0.082162 0.891226 0.546047 -0.839371
H82   H     H_    0.049816 0.868036 0.590530 0.264036
H83   H     H_    0.084068 0.939644 0.564616 0.201153
H84   H     H_    0.066766 0.887417 0.475681 0.251124
N13   N     N_2   0.747850 0.811100 0.336986 -0.290554
H85   H     H_    0.739372 0.856501 0.343911 0.216619
C101  C     C_3   0.794938 0.797941 0.273823 -0.758421
H86   H     H_    0.783496 0.817863 0.207896 0.225253
H87   H     H_    0.800475 0.748656 0.264990 0.250241
H88   H     H_    0.837754 0.817579 0.296786 0.256258
N14   N     N_2   0.247778 0.184505 0.659233 -0.290621
H89   H     H_    0.256409 0.139310 0.650104 0.216235
C102  C     C_3   0.199067 0.196043 0.720301 -0.758637
H90   H     H_    0.208719 0.174276 0.785581 0.225321
H91   H     H_    0.156855 0.177206 0.693630 0.256159
H92   H     H_    0.193378 0.245059 0.731819 0.250292
N15   N     N_2   0.258116 0.805979 0.666618 -0.294494
H93   H     H_    0.259168 0.852290 0.661804 0.207622
C103  C     C_3   0.219483 0.783851 0.736881 -0.750545
H94   H     H_    0.225020 0.812158 0.797596 0.220107
H95   H     H_    0.231270 0.736921 0.754839 0.273269
H96   H     H_    0.172043 0.785218 0.715833 0.251325
N16   N     N_2   0.738074 0.197923 0.331117 -0.294414
H97   H     H_    0.737035 0.151529 0.333606 0.207808
C104  C     C_3   0.775166 0.221638 0.260127 -0.750827
H98   H     H_    0.768242 0.194751 0.198317 0.220092
H99   H     H_    0.823043 0.219761 0.278716 0.251336
H100  H     H_    0.763067 0.268961 0.245161 0.273229
N17   N     N_2   0.252206 0.315478 0.340772 -0.290600
H101  H     H_    0.243573 0.360673 0.349901 0.216255
C105  C     C_3   0.300918 0.303941 0.279706 -0.758594
H102  H     H_    0.291265 0.325707 0.214425 0.225339
H103  H     H_    0.306608 0.254926 0.268189 0.250292
H104  H     H_    0.343128 0.322782 0.306377 0.256146
N18   N     N_2   0.752151 0.688900 0.663005 -0.290544
H105  H     H_    0.760627 0.643498 0.656076 0.216646
C106  C     C_3   0.705063 0.702056 0.726170 -0.758390
H106  H     H_    0.716500 0.682125 0.792093 0.225276
H107  H     H_    0.662246 0.682427 0.703199 0.256258
H108  H     H_    0.699532 0.751341 0.735015 0.250239
N19   N     N_2   0.761934 0.302068 0.668881 -0.294429
H109  H     H_    0.762982 0.348462 0.666393 0.207794
C107  C     C_3   0.724836 0.278360 0.739867 -0.750880
H110  H     H_    0.731784 0.305227 0.801689 0.220080
H111  H     H_    0.736907 0.231025 0.754806 0.273225
H112  H     H_    0.676958 0.280271 0.721291 0.251352
N20   N     N_2   0.241881 0.694023 0.333387 -0.294506
H113  H     H_    0.240835 0.647712 0.338202 0.207598
C108  C     C_3   0.280510 0.716155 0.263123 -0.750597
H114  H     H_    0.274977 0.687845 0.202409 0.220082
H115  H     H_    0.327950 0.714796 0.284170 0.251342
H116  H     H_    0.268715 0.763081 0.245160 0.273266

loop_
_geom_bond_atom_site_label_1
_geom_bond_atom_site_label_2
_ccdc_geom_bond_type
C107  H112  S    
C93   H66   S    
N18   C106  S    
C9    C45   T    
C86   H47   S    
C39   N7    S    
C2    O2    A    
N12   C84   S    
C26   C72   S    
O22   C95   S    
C11   C47   T    
C103  H94   S    
C41   C65   S    
C72   C76   S    
C82   H36   S    
O17   C85   S    
C95   H71   S    
C36   C67   S    
C107  H110  S    
C54   N13   S    
C5    O13   A    
C90   H57   S    
C94   H69   S    
O21   C93   S    
C20   N4    T    
N17   H101  S    
C84   H42   S    
C31   C43   S    
C32   O20   S    
C31   O19   S    
C9    C61   S    
C6    O6    A    
C22   C24   S    
N5    H13   S    
C72   H3    S    
C11   C63   S    
N11   C83   S    
C42   C53   S    
N19   H109  S    
C12   C64   S    
C81   H32   S    
C89   H56   S    
C105  H103  S    
C93   C94   S    
C37   N5    S    
C87   H50   S    
C39   C60   S    
C34   O22   S    
N16   H97   S    
C38   C57   S    
C4    O12   A    
N18   H105  S    
C25   H11   S    
C84   H44   S    
C20   C76   S    
C92   H63   S    
C106  H106  S    
O18   C87   S    
C83   H40   S    
C31   C59   S    
C27   H9    S    
C24   H6    S    
C78   H20   S    
C59   C67   S    
C4    O4    A    
C53   C61   S    
C58   C66   S    
O20   C91   S    
C21   H7    S    
N16   C104  S    
C95   C96   S    
C55   C63   S    
C70   C74   S    
C80   H28   S    
C83   H38   S    
C56   C64   S    
C5    C52   S    
C69   C73   S    
C25   C71   S    
C15   C51   T    
C6    C51   S    
C94   H67   S    
C78   H19   S    
C102  H90   S    
C104  H100  S    
C41   N9    S    
C37   C58   S    
C43   N11   S    
C12   C48   T    
O14   Zn3   S    
C43   C67   S    
C88   H53   S    
C93   H65   S    
C33   O21   S    
C84   H43   S    
C40   C59   S    
C71   C75   S    
C108  H114  S    
C70   H1    S    
C17   C73   S    
C23   C70   S    
C69   H2    S    
C10   C62   S    
C23   C73   S    
C14   C50   T    
C27   C75   S    
C8    O16   A    
C34   C65   S    
C71   H4    S    
C82   H35   S    
C24   C69   S    
C82   H34   S    
N2    Zn1   S    
C85   H46   S    
C4    C45   S    
C90   H58   S    
C21   C23   S    
C33   C53   S    
N13   C101  S    
N17   C105  S    
O6    Zn4   S    
C95   H70   S    
C29   C57   S    
C35   C55   S    
C18   N2    T    
C29   O17   S    
C56   N15   S    
C105  H102  S    
C17   N1    T    
C7    C50   S    
O23   C97   S    
N19   C107  S    
C108  H115  S    
C105  H104  S    
C13   C65   S    
C54   C62   S    
C77   H15   S    
O9    Zn2   S    
C88   H52   S    
C38   C62   S    
N1    Zn2   S    
O2    Zn2   S    
C33   C37   S    
O16   Zn4   S    
C21   C69   S    
C106  H107  S    
C103  H95   S    
C22   H8    S    
N3    Zn4   S    
C57   N18   S    
C92   H64   S    
C35   C39   S    
C79   H23   S    
C30   O18   S    
C10   C46   T    
C100  H82   S    
C36   C56   S    
C85   C86   S    
N9    C81   S    
C18   C74   S    
C99   H81   S    
C101  H86   S    
N14   H89   S    
C98   H77   S    
N6    H17   S    
C77   H16   S    
C15   C67   S    
C33   C66   S    
N13   H85   S    
C14   C66   S    
N14   C102  S    
C94   H68   S    
C6    O14   A    
C60   C68   S    
C78   H18   S    
C31   C64   S    
N6    C78   S    
C7    O7    A    
C53   N14   S    
C55   N16   S    
C16   C68   S    
C38   N6    S    
C96   H72   S    
C1    O1    A    
C101  H87   S    
C40   N8    S    
C5    O5    A    
O19   C89   S    
C86   H49   S    
C97   H76   S    
C104  H99   S    
C1    C48   S    
C28   H10   S    
C80   H26   S    
C13   C49   T    
C108  H116  S    
C28   C71   S    
C25   C27   S    
C32   C60   S    
C91   H61   S    
N8    H25   S    
C21   C74   S    
C1    O9    A    
N12   H41   S    
C36   C40   S    
N20   C108  S    
C99   C100  S    
C42   C66   S    
C85   H45   S    
O4    Zn1   S    
C90   H59   S    
C3    O11   A    
N10   C82   S    
C98   H79   S    
C29   C62   S    
C23   H5    S    
C29   C41   S    
C34   C38   S    
C44   N12   S    
O15   Zn3   S    
C60   N19   S    
O13   Zn4   S    
C16   C52   T    
C32   C63   S    
C57   C65   S    
N8    C80   S    
O3    Zn2   S    
C36   O24   S    
C37   C61   S    
C81   H30   S    
N4    Zn3   S    
C34   C54   S    
C79   H22   S    
C2    C47   S    
C100  H84   S    
C97   C98   S    
C39   C63   S    
N9    H29   S    
C3    C46   S    
C26   C28   S    
C40   C64   S    
C59   N20   S    
C102  H91   S    
O11   Zn1   S    
C106  H108  S    
C26   C75   S    
C25   C76   S    
C91   C92   S    
N15   C103  S    
O24   C99   S    
C98   H78   S    
C100  H83   S    
C107  H111  S    
N11   H37   S    
O12   Zn2   S    
C81   H31   S    
C44   C55   S    
C24   C74   S    
C99   H80   S    
N7    H21   S    
C87   H51   S    
C35   C68   S    
O5    Zn3   S    
O7    Zn4   S    
C30   C58   S    
C58   N17   S    
C19   C75   S    
C88   H54   S    
C35   O23   S    
C103  H96   S    
C7    O15   A    
C83   H39   S    
C8    O8    A    
C92   H62   S    
C102  H92   S    
N15   H93   S    
C41   C54   S    
C79   H24   S    
C89   C90   S    
C19   N3    T    
C26   H12   S    
C43   C56   S    
C101  H88   S    
C32   C44   S    
O8    Zn3   S    
C86   H48   S    
C97   H75   S    
C30   C61   S    
N20   H113  S    
C42   N10   S    
N7    C79   S    
C80   H27   S    
C2    O10   A    
C44   C68   S    
C30   C42   S    
O10   Zn1   S    
C3    O3    A    
C96   H74   S    
C22   C73   S    
C77   H14   S    
C91   H60   S    
C104  H98   S    
C96   H73   S    
C8    C49   S    
C22   C70   S    
C27   C72   S    
N10   H33   S    
O1    Zn1   S    
C89   H55   S    
N5    C77   S    
C87   C88   S    
C28   C76   S    
