data_mof_unit_58545.cif
_audit_creation_date              2012-12-11T16:51:30-0500
_audit_creation_method            fapswitch 2.2
_symmetry_space_group_name_H-M    P1
_symmetry_Int_Tables_number       1
_space_group_crystal_system       triclinic
_cell_length_a                    24.440337
_cell_length_b                    17.183015
_cell_length_c                    15.547547
_cell_angle_alpha                 89.999983
_cell_angle_beta                  129.475111
_cell_angle_gamma                 90.00002
_cell_volume                      5039.9930746

loop_
_atom_site_label
_atom_site_type_symbol
_atom_type_description
_atom_site_fract_x
_atom_site_fract_y
_atom_site_fract_z
_atom_type_partial_charge
Br1   Br    Br    0.821368 0.316763 0.266671 -0.568507
Br2   Br    Br    0.271849 0.048429 0.729018 -0.601019
Br3   Br    Br    0.228152 0.548428 0.270982 -0.601020
Br4   Br    Br    0.771848 0.548427 0.729017 -0.601021
Br5   Br    Br    0.178631 0.316763 0.733329 -0.568507
Br6   Br    Br    0.321368 0.816763 0.266671 -0.568507
Br7   Br    Br    0.678632 0.816763 0.733329 -0.568507
Br8   Br    Br    0.849500 0.245619 0.003652 -0.560657
Br9   Br    Br    0.150500 0.245619 0.996348 -0.560658
Br10  Br    Br    0.349500 0.745619 0.003652 -0.560658
Br11  Br    Br    0.650499 0.745620 0.996346 -0.560657
Br12  Br    Br    0.728151 0.048428 0.270982 -0.601019
C1    C     C_R   0.831982 0.892315 0.198293 -0.095247
C2    C     C_R   0.185812 0.114815 0.503727 -0.002491
C3    C     C_R   0.314188 0.614815 0.496273 -0.002490
C4    C     C_R   0.685812 0.614815 0.503727 -0.002489
C5    C     C_R   0.879479 0.179780 0.201086 0.079540
C6    C     C_R   0.120521 0.179780 0.798914 0.079540
C7    C     C_R   0.379479 0.679780 0.201086 0.079540
C8    C     C_R   0.620521 0.679780 0.798914 0.079539
C9    C     C_R   0.847369 0.723366 0.608592 0.144567
C10   C     C_R   0.152632 0.723367 0.391408 0.144566
C11   C     C_R   0.347368 0.223368 0.608592 0.144565
C12   C     C_R   0.168018 0.892315 0.801707 -0.095247
C13   C     C_R   0.652632 0.223367 0.391408 0.144566
C14   C     C_R   0.834069 0.740712 0.509001 0.028333
C15   C     C_R   0.165931 0.740712 0.490998 0.028333
C16   C     C_R   0.334069 0.240712 0.509002 0.028333
C17   C     C_R   0.665931 0.240712 0.490998 0.028333
C18   C     C_R   0.784607 0.695308 0.414151 -0.159765
C19   C     C_R   0.215392 0.695308 0.585848 -0.159765
C20   C     C_R   0.284608 0.195307 0.414153 -0.159765
C21   C     C_R   0.715392 0.195308 0.585848 -0.159765
C22   C     C_R   0.239851 0.144658 0.414661 -0.152583
C23   C     C_R   0.331982 0.392315 0.198293 -0.095247
C24   C     C_R   0.760149 0.144658 0.585340 -0.152584
C25   C     C_R   0.739851 0.644658 0.414659 -0.152584
C26   C     C_R   0.260149 0.644658 0.585340 -0.152584
C27   C     C_R   0.244961 0.140109 0.509939 0.045664
C28   C     C_R   0.755039 0.140109 0.490061 0.045665
C29   C     C_R   0.744961 0.640108 0.509939 0.045664
C30   C     C_R   0.255039 0.640109 0.490061 0.045664
C31   C     C_R   0.303272 0.174168 0.608865 0.223388
C32   C     C_R   0.696728 0.174167 0.391135 0.223388
C33   C     C_R   0.803273 0.674165 0.608865 0.223388
C34   C     C_R   0.668018 0.392315 0.801707 -0.095247
C35   C     C_R   0.196728 0.674167 0.391135 0.223388
C36   C     C_3   0.805275 0.724169 0.689982 -0.417967
C37   C     C_3   0.194727 0.724172 0.310021 -0.417969
C38   C     C_3   0.305271 0.224174 0.689978 -0.417967
C39   C     C_3   0.694727 0.224172 0.310021 -0.417969
C40   C     C_R   0.085373 0.855741 0.406402 -0.133656
C41   C     C_R   0.914626 0.855741 0.593598 -0.133656
C42   C     C_R   0.585373 0.355741 0.406402 -0.133656
C43   C     C_R   0.414627 0.355741 0.593598 -0.133656
C44   C     C_3   0.853830 0.777728 0.690228 -0.539656
C45   C     C_R   0.883944 0.102688 0.590324 -0.162029
C46   C     C_3   0.146173 0.777730 0.309775 -0.539654
C47   C     C_3   0.353826 0.277732 0.690224 -0.539651
C48   C     C_3   0.646173 0.277730 0.309775 -0.539653
C49   C     C_2   0.197204 0.847865 0.982172 -0.182543
C50   C     C_2   0.802796 0.847865 0.017828 -0.182544
C51   C     C_2   0.697204 0.347865 0.982172 -0.182544
C52   C     C_2   0.302796 0.347865 0.017828 -0.182543
C53   C     C_2   0.267470 0.856506 0.043828 -0.076558
C54   C     C_2   0.732530 0.856506 0.956172 -0.076558
C55   C     C_2   0.767470 0.356506 0.043828 -0.076558
C56   C     C_R   0.116056 0.102688 0.409676 -0.162030
C57   C     C_2   0.232530 0.356506 0.956172 -0.076557
C58   C     C_2   0.849268 0.247817 0.127567 0.197962
C59   C     C_2   0.150731 0.247817 0.872433 0.197962
C60   C     C_2   0.349268 0.747817 0.127567 0.197962
C61   C     C_2   0.650731 0.747817 0.872433 0.197962
C62   C     C_2   0.815027 0.304182 0.137530 0.250338
C63   C     C_2   0.184973 0.304182 0.862470 0.250337
C64   C     C_2   0.315027 0.804182 0.137530 0.250337
C65   C     C_2   0.684973 0.804182 0.862470 0.250338
C66   C     C_R   0.163356 0.856164 0.592003 -0.053804
C67   C     C_R   0.383944 0.602688 0.590324 -0.162030
C68   C     C_R   0.836643 0.856164 0.407997 -0.053803
C69   C     C_R   0.663356 0.356164 0.592003 -0.053803
C70   C     C_R   0.336644 0.356164 0.407997 -0.053804
C71   C     C_R   0.077954 0.893590 0.804322 -0.145751
C72   C     C_R   0.922046 0.893590 0.195678 -0.145750
C73   C     C_R   0.577954 0.393590 0.804322 -0.145750
C74   C     C_R   0.422046 0.393590 0.195678 -0.145750
C75   C     C_R   0.851136 0.874101 0.134113 0.132073
C76   C     C_R   0.148864 0.874102 0.865887 0.132073
C77   C     C_R   0.351136 0.374102 0.134113 0.132073
C78   C     C_R   0.616056 0.602688 0.409676 -0.162029
C79   C     C_R   0.648864 0.374102 0.865887 0.132073
C80   C     C_R   0.138086 0.812859 0.497872 0.050357
C81   C     C_R   0.861914 0.812859 0.502128 0.050358
C82   C     C_R   0.638086 0.312859 0.497872 0.050357
C83   C     C_R   0.361914 0.312859 0.502128 0.050357
C84   C     C_R   0.809370 0.095328 0.405858 0.294084
C85   C     C_R   0.190630 0.095328 0.594142 0.294084
C86   C     C_R   0.309370 0.595328 0.405858 0.294084
C87   C     C_R   0.690630 0.595327 0.594142 0.294084
C88   C     C_R   0.939341 0.138221 0.236006 -0.056646
C89   C     C_R   0.814188 0.114815 0.496273 -0.002491
C90   C     C_R   0.060659 0.138220 0.763994 -0.056646
C91   C     C_R   0.439341 0.638220 0.236006 -0.056646
C92   C     C_R   0.560659 0.638221 0.763994 -0.056646
C93   C     C_R   0.151983 0.139024 0.763415 -0.067094
C94   C     C_R   0.848017 0.139023 0.236584 -0.067094
C95   C     C_R   0.651983 0.639024 0.763415 -0.067094
C96   C     C_R   0.348017 0.639023 0.236584 -0.067093
H1    H     H_    0.197022 0.116338 0.337752 0.146936
H2    H     H_    0.091624 0.778838 0.228174 0.202103
H3    H     H_    0.408374 0.278840 0.771826 0.202102
H4    H     H_    0.591624 0.278839 0.228173 0.202102
H5    H     H_    0.289719 0.890320 0.013714 0.159509
H6    H     H_    0.710281 0.890320 0.986286 0.159509
H7    H     H_    0.789719 0.390320 0.013714 0.159509
H8    H     H_    0.210281 0.390320 0.986286 0.159509
H9    H     H_    0.175551 0.813815 0.013275 0.163035
H10   H     H_    0.824449 0.813814 0.986725 0.163035
H11   H     H_    0.675551 0.313815 0.013275 0.163035
H12   H     H_    0.802979 0.116339 0.662248 0.146936
H13   H     H_    0.324449 0.313815 0.986725 0.163035
H14   H     H_    0.052772 0.839159 0.320080 0.115956
H15   H     H_    0.947228 0.839159 0.679920 0.115957
H16   H     H_    0.552772 0.339159 0.320080 0.115956
H17   H     H_    0.447228 0.339159 0.679920 0.115956
H18   H     H_    0.049680 0.897340 0.836454 0.105842
H19   H     H_    0.950320 0.897340 0.163546 0.105842
H20   H     H_    0.549680 0.397340 0.836454 0.105842
H21   H     H_    0.450320 0.397340 0.163546 0.105842
H22   H     H_    0.975165 0.151948 0.219735 0.138473
H23   H     H_    0.697020 0.616340 0.337751 0.146936
H24   H     H_    0.024835 0.151948 0.780265 0.138473
H25   H     H_    0.475165 0.651948 0.219735 0.138474
H26   H     H_    0.524835 0.651948 0.780265 0.138474
H27   H     H_    0.775201 0.704981 0.336902 0.159722
H28   H     H_    0.224798 0.704980 0.663097 0.159722
H29   H     H_    0.275203 0.204979 0.336904 0.159722
H30   H     H_    0.724798 0.204980 0.663097 0.159722
H31   H     H_    0.778931 0.894217 0.171306 0.142415
H32   H     H_    0.221069 0.894217 0.828694 0.142415
H33   H     H_    0.278931 0.394217 0.171306 0.142415
H34   H     H_    0.302979 0.616339 0.662248 0.146936
H35   H     H_    0.721069 0.394217 0.828694 0.142415
H36   H     H_    0.753153 0.751050 0.652882 0.234452
H37   H     H_    0.246850 0.751053 0.347123 0.234453
H38   H     H_    0.253148 0.251054 0.652874 0.234452
H39   H     H_    0.746850 0.251052 0.347123 0.234453
H40   H     H_    0.832478 0.696393 0.772535 0.238560
H41   H     H_    0.167525 0.696397 0.227467 0.238560
H42   H     H_    0.332473 0.196400 0.772532 0.238559
H43   H     H_    0.667525 0.196397 0.227467 0.238560
H44   H     H_    0.205347 0.840534 0.677797 0.125562
H45   H     H_    0.829789 0.835894 0.654463 0.224067
H46   H     H_    0.794653 0.840534 0.322202 0.125561
H47   H     H_    0.705347 0.340534 0.677797 0.125562
H48   H     H_    0.294653 0.340534 0.322203 0.125562
H49   H     H_    0.201370 0.152255 0.780882 0.163352
H50   H     H_    0.798630 0.152255 0.219117 0.163352
H51   H     H_    0.701370 0.652255 0.780882 0.163352
H52   H     H_    0.298630 0.652255 0.219118 0.163352
H53   H     H_    0.904384 0.101455 0.675685 0.119247
H54   H     H_    0.095616 0.101455 0.324315 0.119248
H55   H     H_    0.404384 0.601455 0.675685 0.119247
H56   H     H_    0.170213 0.835896 0.345541 0.224066
H57   H     H_    0.595616 0.601455 0.324315 0.119247
H58   H     H_    0.329785 0.335898 0.654456 0.224066
H59   H     H_    0.670214 0.335897 0.345542 0.224067
H60   H     H_    0.908379 0.778835 0.771828 0.202103
N1    N     N_R   0.888400 0.921830 0.294620 -0.050074
N2    N     N_R   0.874350 0.922400 0.443380 -0.036681
N3    N     N_R   0.625650 0.422400 0.556620 -0.036681
N4    N     N_R   0.374350 0.422400 0.443380 -0.036681
N5    N     N_R   0.054230 0.922730 0.705400 -0.049623
N6    N     N_R   0.945770 0.922730 0.294600 -0.049623
N7    N     N_R   0.554230 0.422730 0.705400 -0.049623
N8    N     N_R   0.445770 0.422730 0.294600 -0.049623
N9    N     N_R   0.873790 0.077030 0.443380 -0.061124
N10   N     N_R   0.126210 0.077030 0.556620 -0.061124
N11   N     N_R   0.373790 0.577030 0.443380 -0.061124
N12   N     N_R   0.111600 0.921830 0.705380 -0.050074
N13   N     N_R   0.626210 0.577030 0.556620 -0.061123
N14   N     N_R   0.945200 0.076700 0.294600 -0.058119
N15   N     N_R   0.054800 0.076700 0.705400 -0.058119
N16   N     N_R   0.445200 0.576700 0.294600 -0.058119
N17   N     N_R   0.554800 0.576700 0.705400 -0.058119
N18   N     N_R   0.111030 0.077600 0.705380 -0.044668
N19   N     N_R   0.888970 0.077600 0.294620 -0.044668
N20   N     N_R   0.611030 0.577600 0.705380 -0.044668
N21   N     N_R   0.388970 0.577600 0.294620 -0.044668
N22   N     N_R   0.919490 0.077280 0.556590 -0.057418
N23   N     N_R   0.388400 0.421830 0.294620 -0.050074
N24   N     N_R   0.080510 0.077280 0.443410 -0.057418
N25   N     N_R   0.419490 0.577280 0.556590 -0.057418
N26   N     N_R   0.580510 0.577280 0.443410 -0.057418
N27   N     N_R   0.611600 0.421830 0.705380 -0.050074
N28   N     N_R   0.079940 0.922160 0.443410 -0.047821
N29   N     N_R   0.920060 0.922160 0.556590 -0.047821
N30   N     N_R   0.579940 0.422160 0.443410 -0.047821
N31   N     N_R   0.420060 0.422160 0.556590 -0.047821
N32   N     N_R   0.125650 0.922400 0.556620 -0.036681
Ni1   Ni    Ni4+2 0.882160 0.999430 0.370180 0.274802
Ni2   Ni    Ni4+2 0.117840 0.999430 0.629820 0.274802
Ni3   Ni    Ni4+2 0.382160 0.499430 0.370180 0.274802
Ni4   Ni    Ni4+2 0.617840 0.499430 0.629820 0.274802
Ni5   Ni    Ni4+2 0.012460 0.999430 0.370180 0.221163
Ni6   Ni    Ni4+2 0.987540 0.999430 0.629820 0.221163
Ni7   Ni    Ni4+2 0.512460 0.499430 0.370180 0.221163
Ni8   Ni    Ni4+2 0.487540 0.499430 0.629820 0.221163

loop_
_geom_bond_atom_site_label_1
_geom_bond_atom_site_label_2
_ccdc_geom_bond_type
C9    C14   A    
C57   H8    S    
C4    C78   A    
C71   C76   A    
N24   Ni5   S    
C40   N28   A    
C72   C75   A    
C68   N2    A    
N28   N32   A    
N23   Ni3   S    
C46   H56   S    
C92   N17   A    
N10   N24   A    
C73   C79   A    
C66   H44   S    
C34   N27   A    
C35   C37   S    
N21   Ni3   S    
C11   C47   S    
N26   Ni7   S    
C36   H36   S    
C53   C64   S    
C92   H26   S    
C16   C83   S    
Br1   C62   S    
C1    H31   S    
N8    Ni7   S    
C90   H24   S    
C94   N19   A    
C26   C30   A    
N3    N30   A    
N12   Ni2   S    
C17   C82   S    
C88   H22   S    
C56   N24   A    
C52   H13   S    
C17   C21   A    
N3    Ni4   S    
C21   C24   A    
C11   C31   A    
N18   Ni2   S    
N4    N31   A    
C6    C90   A    
N28   Ni5   S    
C55   H7    S    
N2    Ni1   S    
C28   C89   S    
C7    C91   A    
N22   Ni6   S    
C93   H49   S    
C43   H17   S    
Br2   C85   S    
N14   N19   A    
C12   N12   A    
N6    Ni5   S    
C47   H3    S    
N1    N6    A    
N5    Ni6   S    
N9    N22   A    
C13   C48   S    
C39   H39   S    
C84   N9    A    
C88   N14   A    
C96   H52   S    
C28   C32   A    
C60   C64   D    
Br7   C65   S    
C8    C95   A    
C70   H48   S    
C7    C96   A    
C38   H38   S    
C14   C81   S    
C1    N1    A    
C10   C35   A    
C2    C27   S    
C39   H43   S    
C5    C58   S    
N25   Ni8   S    
C84   C89   A    
C26   H34   S    
N17   Ni8   S    
C1    C75   A    
N29   Ni6   S    
C66   N32   A    
N7    Ni8   S    
C72   N6    A    
C13   C32   A    
N7    N27   A    
C9    C33   A    
C13   C17   A    
C3    C67   A    
C48   H59   S    
C42   C82   A    
C50   C54   D    
C49   H9    S    
C91   N16   A    
C86   N11   A    
C16   C20   A    
C7    C60   S    
C43   C83   A    
Br11  C61   S    
N15   N18   A    
C19   H28   S    
N17   N20   A    
C27   C31   A    
N27   Ni4   S    
N5    N12   A    
C66   C80   A    
C94   H50   S    
C15   C19   A    
C95   N20   A    
N20   Ni4   S    
C12   H32   S    
C37   C46   S    
C22   C27   A    
C18   C25   A    
C20   C22   A    
C93   N18   A    
Br5   C63   S    
N4    Ni3   S    
C51   C55   D    
C58   C62   D    
C48   H4    S    
C49   C76   S    
C49   C53   D    
C51   H11   S    
C38   H42   S    
C95   H51   S    
C78   N26   A    
C24   C28   A    
C21   H30   S    
C22   H1    S    
C44   H60   S    
C52   C57   D    
C37   H37   S    
C15   C80   S    
C4    C87   A    
C55   C62   S    
C11   C16   A    
Br6   C64   S    
N13   N26   A    
N16   Ni7   S    
C47   H58   S    
C23   H33   S    
C70   N4    A    
C8    C92   A    
C23   C77   A    
C32   C39   S    
N11   Ni3   S    
C14   C18   A    
C10   C15   A    
N10   Ni2   S    
C78   H57   S    
C41   H15   S    
N9    Ni1   S    
C96   N21   A    
C40   C80   A    
N13   Ni4   S    
C90   N15   A    
C71   H18   S    
C31   C38   S    
C2    C85   A    
N11   N25   A    
C33   C36   S    
C52   C77   S    
C6    C59   S    
C36   C44   S    
C54   C65   S    
C42   H16   S    
C41   C81   A    
C23   N23   A    
C70   C83   A    
C54   H6    S    
N30   Ni7   S    
C46   H2    S    
C53   H5    S    
C12   C76   A    
C42   N30   A    
Br9   C59   S    
C3    C30   S    
C67   H55   S    
C44   H45   S    
N8    N23   A    
C74   C77   A    
C69   H47   S    
C10   C46   S    
C9    C44   S    
C40   H14   S    
C74   H21   S    
C68   H46   S    
C34   H35   S    
C34   C79   A    
C56   H54   S    
C45   C89   A    
C50   C75   S    
N19   Ni1   S    
Br8   C58   S    
C67   N25   A    
C19   C26   A    
C37   H41   S    
N14   Ni5   S    
C41   N29   A    
C71   N5    A    
C38   C47   S    
C91   H25   S    
C6    C93   A    
C45   N22   A    
C29   C33   A    
C5    C94   A    
C59   C63   D    
C69   C82   A    
Br3   C86   S    
C85   N10   A    
C72   H19   S    
C36   H40   S    
N31   Ni8   S    
C73   N7    A    
C8    C61   S    
C57   C63   S    
C74   N8    A    
C30   C35   A    
C69   N3    A    
C25   C29   A    
C24   H12   S    
C5    C88   A    
C87   N13   A    
N1    Ni1   S    
C25   H23   S    
C20   H29   S    
C45   H53   S    
C61   C65   D    
N32   Ni2   S    
C18   H27   S    
Br4   C87   S    
C51   C79   S    
N15   Ni6   S    
C2    C56   A    
N16   N21   A    
Br12  C84   S    
C73   H20   S    
C39   C48   S    
C3    C86   A    
C68   C81   A    
C4    C29   S    
N2    N29   A    
C50   H10   S    
C43   N31   A    
Br10  C60   S    
