data_mof_unit_60333.cif
_audit_creation_date              2013-03-05T16:34:03-0500
_audit_creation_method            fapswitch 2.2
_symmetry_space_group_name_H-M    P1
_symmetry_Int_Tables_number       1
_space_group_crystal_system       triclinic
_cell_length_a                    35.496703
_cell_length_b                    35.52362
_cell_length_c                    21.900758
_cell_angle_alpha                 90.739523
_cell_angle_beta                  89.826174
_cell_angle_gamma                 89.956936
_cell_volume                      27613.7932002

loop_
_atom_site_label
_atom_site_type_symbol
_atom_site_description
_atom_site_fract_x
_atom_site_fract_y
_atom_site_fract_z
_atom_type_partial_charge
O1    O     O_R   0.055450 0.468680 0.499980 -0.579738
O2    O     O_R   0.468680 0.944550 0.499980 -0.580595
O3    O     O_R   0.944550 0.531320 0.499980 -0.577683
O4    O     O_R   0.531320 0.055450 0.499980 -0.578327
O5    O     O_R   0.944550 0.468680 0.500020 -0.580869
O6    O     O_R   0.531320 0.944550 0.500020 -0.583309
O7    O     O_R   0.055450 0.531320 0.500020 -0.576409
O8    O     O_R   0.468680 0.055450 0.500020 -0.578288
O9    O     O_R   0.555450 0.968680 0.999980 -0.584475
O10   O     O_R   0.968680 0.444550 0.999980 -0.583990
O11   O     O_R   0.444550 0.031320 0.999980 -0.579322
O12   O     O_R   0.031320 0.555450 0.999980 -0.572500
O13   O     O_R   0.444550 0.968680 0.000020 -0.577643
O14   O     O_R   0.031320 0.444550 0.000020 -0.582893
O15   O     O_R   0.555450 0.031320 0.000020 -0.579775
O16   O     O_R   0.968680 0.555450 0.000020 -0.573678
C1    C     C_R   0.073456 0.500080 0.501143 0.960202
C2    C     C_R   0.499985 0.926509 0.499579 0.940352
C3    C     C_R   0.926515 0.500099 0.498801 0.953849
C4    C     C_R   0.499981 0.073362 0.499870 0.982133
C5    C     C_R   0.573470 0.000018 0.000509 0.940876
C6    C     C_R   0.000007 0.426414 0.999964 0.937785
C7    C     C_R   0.426656 0.000018 0.000014 0.983532
C8    C     C_R   0.999974 0.573383 0.000127 0.980469
O17   O     O_R   0.000010 0.468680 0.408370 -0.623954
O18   O     O_R   0.468680 0.999990 0.408370 -0.596208
O19   O     O_R   0.999990 0.531320 0.408370 -0.631069
O20   O     O_R   0.531320 0.000010 0.408370 -0.623463
O21   O     O_R   0.999990 0.468680 0.591630 -0.621385
O22   O     O_R   0.531320 0.999990 0.591630 -0.615151
O23   O     O_R   0.000010 0.531320 0.591630 -0.629789
O24   O     O_R   0.468680 0.000010 0.591630 -0.616993
O25   O     O_R   0.500010 0.968680 0.908370 -0.613486
O26   O     O_R   0.968680 0.499990 0.908370 -0.624910
O27   O     O_R   0.499990 0.031320 0.908370 -0.616627
O28   O     O_R   0.031320 0.500010 0.908370 -0.628131
O29   O     O_R   0.499990 0.968680 0.091630 -0.622020
O30   O     O_R   0.031320 0.499990 0.091630 -0.627846
O31   O     O_R   0.500010 0.031320 0.091630 -0.599326
O32   O     O_R   0.968680 0.500010 0.091630 -0.628714
C9    C     C_R   0.001207 0.500074 0.379711 0.872794
C10   C     C_R   0.499664 0.998390 0.379724 0.844352
C11   C     C_R   0.998394 0.500446 0.620281 0.869165
C12   C     C_R   0.500484 0.000398 0.620389 0.879182
C13   C     C_R   0.499551 0.999284 0.879677 0.878307
C14   C     C_R   0.000179 0.498617 0.879624 0.868584
C15   C     C_R   0.501547 0.000608 0.120256 0.844638
C16   C     C_R   0.999878 0.498690 0.120286 0.870469
Zn1   Zn    Zn3+2 1.000000 0.458180 0.500000 1.126758
Zn2   Zn    Zn3+2 0.458180 0.000000 0.500000 1.152904
Zn3   Zn    Zn3+2 0.000000 0.541820 0.500000 1.121720
Zn4   Zn    Zn3+2 0.541820 0.000000 0.500000 1.134534
Zn5   Zn    Zn3+2 0.500000 0.958180 0.000000 1.134862
Zn6   Zn    Zn3+2 0.958180 0.500000 0.000000 1.124079
Zn7   Zn    Zn3+2 0.500000 0.041820 0.000000 1.152217
Zn8   Zn    Zn3+2 0.041820 0.500000 0.000000 1.123557
C17   C     C_R   0.966592 0.561601 0.307198 -0.198634
C18   C     C_R   0.536843 0.058392 0.318309 -0.198665
C19   C     C_R   0.047904 0.445926 0.311112 -0.215860
C20   C     C_R   0.444510 0.955040 0.307980 -0.197554
C21   C     C_R   0.033099 0.561674 0.695340 -0.199822
C22   C     C_R   0.455357 0.053670 0.689505 -0.215848
C23   C     C_R   0.950848 0.447173 0.686331 -0.213419
C24   C     C_R   0.560211 0.961052 0.690863 -0.194067
C25   C     C_R   0.444736 0.042629 0.813527 -0.212293
C26   C     C_R   0.059155 0.536686 0.806038 -0.202905
C27   C     C_R   0.540002 0.940457 0.807199 -0.197234
C28   C     C_R   0.944843 0.453216 0.811576 -0.210761
C29   C     C_R   0.543652 0.057099 0.192397 -0.194523
C30   C     C_R   0.941378 0.537783 0.194486 -0.208520
C31   C     C_R   0.441825 0.963251 0.182586 -0.197569
C32   C     C_R   0.056720 0.454910 0.187173 -0.208806
C33   C     C_R   0.937893 0.581858 0.278744 0.302844
C34   C     C_R   0.556860 0.087121 0.289955 0.237549
C35   C     C_R   0.073708 0.423261 0.279366 0.286648
C36   C     C_R   0.415506 0.937721 0.274654 0.276086
C37   C     C_R   0.062426 0.581259 0.724150 0.309261
C38   C     C_R   0.428633 0.075559 0.721047 0.249336
C39   C     C_R   0.926167 0.423443 0.717320 0.280283
C40   C     C_R   0.580907 0.933062 0.720101 0.294244
C41   C     C_R   0.422048 0.068727 0.783385 0.248848
C42   C     C_R   0.077847 0.566443 0.777553 0.310668
C43   C     C_R   0.568493 0.920405 0.776831 0.296740
C44   C     C_R   0.920529 0.429162 0.779678 0.279287
C45   C     C_R   0.560873 0.086049 0.226246 0.277971
C46   C     C_R   0.922881 0.567698 0.224087 0.306204
C47   C     C_R   0.413722 0.942417 0.211259 0.235997
C48   C     C_R   0.080811 0.430605 0.218112 0.284641
C49   C     C_R   0.973769 0.520223 0.219924 0.017399
C50   C     C_R   0.520983 0.029301 0.220401 0.009894
C51   C     C_R   0.027568 0.475544 0.217516 0.022445
C52   C     C_R   0.471268 0.980959 0.215888 0.046162
C53   C     C_R   0.026216 0.519952 0.780560 0.019405
C54   C     C_R   0.473288 0.022058 0.782514 0.034564
C55   C     C_R   0.972735 0.475126 0.781556 0.021517
C56   C     C_R   0.521614 0.971900 0.780542 0.015508
C57   C     C_R   0.476641 0.025558 0.719035 0.031465
C58   C     C_R   0.017764 0.528104 0.720004 0.021863
C59   C     C_R   0.528128 0.978566 0.718481 0.019361
C60   C     C_R   0.973434 0.474384 0.717387 0.019710
C61   C     C_R   0.519185 0.029022 0.284481 0.047891
C62   C     C_R   0.981725 0.527825 0.281139 0.025129
C63   C     C_R   0.471595 0.978553 0.279818 0.009988
C64   C     C_R   0.025812 0.473725 0.281479 0.017638
C65   C     C_R   0.999664 0.497140 0.186551 -0.102842
C66   C     C_R   0.499014 0.002763 0.186505 -0.083365
C67   C     C_R   0.000537 0.496815 0.813205 -0.103387
C68   C     C_R   0.497262 0.996874 0.813395 -0.077236
C69   C     C_R   0.502489 0.002318 0.686805 -0.081383
C70   C     C_R   0.995556 0.501673 0.686550 -0.104756
C71   C     C_R   0.497956 0.000758 0.313573 -0.082194
C72   C     C_R   0.003452 0.500815 0.313490 -0.103262
H1    H     H_    0.976720 0.574020 0.348836 0.229656
H2    H     H_    0.533036 0.061147 0.367053 0.201923
H3    H     H_    0.047634 0.441897 0.359461 0.228182
H4    H     H_    0.444970 0.949648 0.356143 0.221214
H5    H     H_    0.022578 0.574226 0.654511 0.228486
H6    H     H_    0.460524 0.060213 0.642146 0.201170
H7    H     H_    0.949892 0.444555 0.637560 0.225788
H8    H     H_    0.570823 0.968237 0.646765 0.232894
H9    H     H_    0.438558 0.037373 0.861027 0.200517
H10   H     H_    0.071867 0.527161 0.847380 0.230322
H11   H     H_    0.533082 0.929931 0.851396 0.232166
H12   H     H_    0.941850 0.452329 0.860176 0.228858
H13   H     H_    0.548534 0.057272 0.143987 0.223885
H14   H     H_    0.928916 0.528977 0.152209 0.231562
H15   H     H_    0.438544 0.967621 0.134215 0.202986
H16   H     H_    0.061164 0.455187 0.138896 0.231914
C73   C     C_R   0.327620 0.506162 0.560003 -0.114810
C74   C     C_R   0.502351 0.673390 0.557409 -0.110302
C75   C     C_R   0.674291 0.506480 0.550517 -0.104183
C76   C     C_R   0.501568 0.326560 0.552983 -0.108074
C77   C     C_R   0.672220 0.506875 0.439807 -0.116157
C78   C     C_R   0.500998 0.673160 0.446622 -0.112443
C79   C     C_R   0.325765 0.505616 0.449261 -0.104168
C80   C     C_R   0.500129 0.326474 0.442242 -0.103565
C81   C     C_R   0.826619 0.998010 0.055576 -0.111413
C82   C     C_R   0.999863 0.173349 0.056964 -0.108882
C83   C     C_R   0.173427 0.000453 0.055054 -0.104894
C84   C     C_R   0.998424 0.826851 0.054034 -0.111585
C85   C     C_R   0.173545 0.998995 0.944261 -0.107972
C86   C     C_R   0.998231 0.172872 0.946151 -0.111188
C87   C     C_R   0.826820 0.996700 0.944751 -0.110333
C88   C     C_R   0.999748 0.826286 0.943259 -0.108875
H17   H     H_    0.313284 0.507053 0.603765 0.170655
H18   H     H_    0.503087 0.688595 0.600609 0.171210
H19   H     H_    0.690231 0.507085 0.592642 0.172605
H20   H     H_    0.502247 0.311492 0.595683 0.170917
H21   H     H_    0.686461 0.507797 0.396003 0.169979
H22   H     H_    0.500663 0.688181 0.403864 0.169839
H23   H     H_    0.309906 0.506071 0.407071 0.173060
H24   H     H_    0.499673 0.311340 0.398967 0.173345
H25   H     H_    0.811412 0.998212 0.098565 0.169697
H26   H     H_    0.000403 0.188669 0.100070 0.170855
H27   H     H_    0.188495 0.000995 0.098022 0.173221
H28   H     H_    0.997792 0.811977 0.096924 0.172826
H29   H     H_    0.188711 0.998386 0.901235 0.170973
H30   H     H_    0.997481 0.187805 0.903323 0.170812
H31   H     H_    0.811777 0.995865 0.901766 0.171545
H32   H     H_    0.000165 0.810951 0.900161 0.172959
C89   C     C_R   0.366660 0.503722 0.558048 -0.165279
C90   C     C_R   0.501633 0.634246 0.556898 -0.169157
C91   C     C_R   0.635164 0.503753 0.552755 -0.169237
C92   C     C_R   0.501193 0.365723 0.553838 -0.165082
C93   C     C_R   0.633215 0.504108 0.441867 -0.165514
C94   C     C_R   0.500303 0.634044 0.445942 -0.168626
C95   C     C_R   0.364914 0.503214 0.447132 -0.168502
C96   C     C_R   0.499778 0.365653 0.442932 -0.165821
C97   C     C_R   0.865762 0.999105 0.055654 -0.168524
C98   C     C_R   0.000234 0.134226 0.056661 -0.167585
C99   C     C_R   0.134247 0.000558 0.055218 -0.166221
C100  C     C_R   0.998810 0.865990 0.054415 -0.167524
C101  C     C_R   0.134356 0.999123 0.944258 -0.166496
C102  C     C_R   0.998629 0.133789 0.945672 -0.167281
C103  C     C_R   0.865952 0.997820 0.944658 -0.167989
C104  C     C_R   0.000108 0.865468 0.943474 -0.168069
H33   H     H_    0.381903 0.503058 0.600778 0.176340
H34   H     H_    0.501919 0.619690 0.600036 0.175503
H35   H     H_    0.621298 0.502623 0.596803 0.175273
H36   H     H_    0.501636 0.380370 0.597502 0.176155
H37   H     H_    0.617911 0.503264 0.399174 0.176167
H38   H     H_    0.499514 0.619354 0.402330 0.175481
H39   H     H_    0.378866 0.502138 0.403103 0.175605
H40   H     H_    0.499082 0.380256 0.399852 0.176439
H41   H     H_    0.880320 0.000020 0.099027 0.175354
H42   H     H_    0.001022 0.119758 0.099860 0.175993
H43   H     H_    0.119572 0.001177 0.098642 0.176605
H44   H     H_    0.998418 0.880802 0.097941 0.176130
H45   H     H_    0.119760 0.998587 0.900909 0.175833
H46   H     H_    0.998119 0.119010 0.902124 0.176411
H47   H     H_    0.880652 0.997696 0.901257 0.176145
H48   H     H_    0.000766 0.879904 0.900235 0.175670
C105  C     C_R   0.385642 0.502184 0.501591 -0.054424
C106  C     C_R   0.500601 0.614289 0.501107 -0.052800
C107  C     C_R   0.614347 0.502473 0.498357 -0.053956
C108  C     C_R   0.500300 0.385589 0.498783 -0.056082
C109  C     C_R   0.885709 0.999042 0.000148 -0.053291
C110  C     C_R   0.999640 0.114187 0.000954 -0.053394
C111  C     C_R   0.114403 0.999901 0.999782 -0.055256
C112  C     C_R   0.999658 0.885619 0.999112 -0.054038
C113  C     C_R   0.307302 0.507098 0.505694 0.112346
C114  C     C_R   0.502031 0.692662 0.502293 0.114012
C115  C     C_R   0.692633 0.508050 0.494042 0.112879
C116  C     C_R   0.501034 0.307072 0.497239 0.111982
C117  C     C_R   0.807340 0.996799 0.000163 0.113940
C118  C     C_R   0.998859 0.192450 0.001729 0.113934
C119  C     C_R   0.192922 0.999665 0.999622 0.112338
C120  C     C_R   0.998901 0.807139 0.998522 0.111383
C121  C     C_1   0.267334 0.507851 0.507973 0.020823
C122  C     C_1   0.502286 0.732580 0.502697 0.020139
C123  C     C_1   0.732597 0.508903 0.491549 0.020171
C124  C     C_1   0.501215 0.267062 0.496607 0.027195
C125  C     C_1   0.767421 0.996404 0.000146 0.020570
C126  C     C_1   0.998762 0.232285 0.001893 0.021594
C127  C     C_1   0.232923 0.999621 0.999590 0.026963
C128  C     C_1   0.998762 0.767154 0.998445 0.020228
C129  C     C_1   0.233703 0.507287 0.509187 0.200077
C130  C     C_1   0.502163 0.766166 0.502449 0.199484
C131  C     C_1   0.766228 0.508261 0.490165 0.199729
C132  C     C_1   0.501226 0.233418 0.496553 0.209528
C133  C     C_1   0.733822 0.996583 0.000205 0.199395
C134  C     C_1   0.998862 0.265822 0.001606 0.199132
C135  C     C_1   0.266570 0.999641 0.999652 0.209215
C136  C     C_1   0.998810 0.733527 0.998740 0.200365
C137  C     C_R   0.172177 0.524946 0.552036 0.329478
C138  C     C_R   0.524260 0.826687 0.542234 0.329483
C139  C     C_R   0.823571 0.482625 0.533670 0.334359
C140  C     C_R   0.526399 0.174141 0.534632 0.324172
C141  C     C_R   0.827953 0.525888 0.448784 0.329242
C142  C     C_R   0.477891 0.824677 0.460682 0.335467
C143  C     C_R   0.176118 0.482559 0.464099 0.333951
C144  C     C_R   0.475108 0.173464 0.460699 0.326702
C145  C     C_R   0.674862 0.021552 0.041311 0.335823
C146  C     C_R   0.023259 0.325498 0.040371 0.336608
C147  C     C_R   0.325993 0.025479 0.037344 0.326725
C148  C     C_R   0.980020 0.674271 0.045555 0.329374
C149  C     C_R   0.326379 0.974198 0.962106 0.324156
C150  C     C_R   0.975630 0.324976 0.961067 0.336450
C151  C     C_R   0.673747 0.974890 0.959010 0.328870
C152  C     C_R   0.018565 0.673504 0.953296 0.329331
C153  C     C_R   0.132779 0.522733 0.550272 0.235856
C154  C     C_R   0.523354 0.866036 0.541833 0.237901
C155  C     C_R   0.862874 0.480281 0.535700 0.227493
C156  C     C_R   0.525945 0.134737 0.536039 0.229234
C157  C     C_R   0.867335 0.523362 0.450618 0.236618
C158  C     C_R   0.477113 0.864088 0.459871 0.221050
C159  C     C_R   0.136803 0.480461 0.462272 0.228185
C160  C     C_R   0.474427 0.134044 0.461666 0.213302
C161  C     C_R   0.635427 0.022782 0.041345 0.221161
C162  C     C_R   0.023351 0.364887 0.040292 0.235389
C163  C     C_R   0.365445 0.025795 0.037528 0.216609
C164  C     C_R   0.980312 0.634866 0.045907 0.229222
C165  C     C_R   0.365831 0.974246 0.961886 0.225814
C166  C     C_R   0.976281 0.364346 0.960184 0.234293
C167  C     C_R   0.634395 0.976237 0.958663 0.237494
C168  C     C_R   0.019003 0.634117 0.953768 0.231655
C169  C     C_R   0.114859 0.500741 0.504892 -0.402558
C170  C     C_R   0.500078 0.885053 0.500325 -0.401197
C171  C     C_R   0.885074 0.500854 0.494672 -0.403014
C172  C     C_R   0.500025 0.114598 0.499271 -0.377503
C173  C     C_R   0.614926 0.999853 0.000168 -0.400767
C174  C     C_R   0.999960 0.384763 0.000053 -0.405976
C175  C     C_R   0.385426 0.000033 0.999825 -0.376409
C176  C     C_R   0.999855 0.614665 0.000034 -0.404076
C177  C     C_R   0.193604 0.505081 0.508550 -0.206351
C178  C     C_R   0.501590 0.806245 0.501608 -0.205814
C179  C     C_R   0.806316 0.505754 0.490755 -0.206501
C180  C     C_R   0.501040 0.193236 0.497055 -0.172864
C181  C     C_R   0.693734 0.997445 0.000458 -0.205995
C182  C     C_R   0.999202 0.305828 0.001064 -0.213263
C183  C     C_R   0.306752 0.999738 0.999759 -0.173489
C184  C     C_R   0.999088 0.693378 0.999181 -0.202415
O33   O     O_R   0.500050 0.555340 0.448290 -0.616606
O34   O     O_R   0.555340 0.499950 0.448290 -0.617621
O35   O     O_R   0.499950 0.444660 0.448290 -0.614678
O36   O     O_R   0.444660 0.500050 0.448290 -0.613584
O37   O     O_R   0.499950 0.555340 0.551710 -0.616826
O38   O     O_R   0.444660 0.499950 0.551710 -0.617142
O39   O     O_R   0.500050 0.444660 0.551710 -0.614277
O40   O     O_R   0.555340 0.500050 0.551710 -0.613761
O41   O     O_R   0.000050 0.055340 0.948290 -0.615986
O42   O     O_R   0.055340 0.999950 0.948290 -0.615385
O43   O     O_R   0.999950 0.944660 0.948290 -0.615618
O44   O     O_R   0.944660 0.000050 0.948290 -0.616078
O45   O     O_R   0.999950 0.055340 0.051710 -0.615949
O46   O     O_R   0.944660 0.999950 0.051710 -0.616235
O47   O     O_R   0.000050 0.944660 0.051710 -0.615762
O48   O     O_R   0.055340 0.000050 0.051710 -0.615122
C185  C     C_R   0.500089 0.573102 0.500353 0.866846
C186  C     C_R   0.573136 0.500387 0.499768 0.868380
C187  C     C_R   0.500045 0.426857 0.499635 0.871202
C188  C     C_R   0.426865 0.500344 0.500231 0.869285
C189  C     C_R   0.999943 0.073067 0.000335 0.870606
C190  C     C_R   0.073138 0.999984 0.999922 0.869674
C191  C     C_R   0.999947 0.926867 0.999671 0.868034
C192  C     C_R   0.926898 0.999857 0.000068 0.868756
Zn9   Zn    Zn3+2 0.500000 0.500000 0.430910 1.010005
Zn10  Zn    Zn3+2 0.500000 0.500000 0.569090 1.010179
Zn11  Zn    Zn3+2 1.000000 0.000000 0.930910 1.010004
Zn12  Zn    Zn3+2 1.000000 1.000000 0.069090 1.010004
N1    N     N_R   0.093365 0.393972 0.310736 0.271507
O49   O     O_R   0.074924 0.371593 0.346658 -0.284573
O50   O     O_R   0.129875 0.391205 0.307268 -0.206054
N2    N     N_R   0.387896 0.915723 0.306011 0.273323
O51   O     O_R   0.371146 0.929338 0.354380 -0.271057
O52   O     O_R   0.379979 0.881754 0.287201 -0.228187
N3    N     N_R   0.922841 0.615030 0.308230 0.266493
O53   O     O_R   0.945192 0.638023 0.337334 -0.302959
O54   O     O_R   0.886598 0.619572 0.313727 -0.210578
N4    N     N_R   0.571166 0.118002 0.326230 0.238948
O55   O     O_R   0.580583 0.112857 0.382911 -0.337375
O56   O     O_R   0.570014 0.152197 0.305707 -0.275359
N5    N     N_R   0.906314 0.394506 0.684346 0.271563
O57   O     O_R   0.924512 0.372523 0.646508 -0.283766
O58   O     O_R   0.869924 0.391193 0.689334 -0.207110
N6    N     N_R   0.612829 0.916332 0.689587 0.267563
O59   O     O_R   0.635605 0.937233 0.658024 -0.295788
O60   O     O_R   0.616484 0.879901 0.686382 -0.208510
N7    N     N_R   0.077582 0.614429 0.696257 0.267219
O61   O     O_R   0.055237 0.637805 0.668863 -0.300687
O62   O     O_R   0.113824 0.618630 0.690323 -0.209764
N8    N     N_R   0.409591 0.105360 0.689709 0.245011
O63   O     O_R   0.403414 0.102592 0.631270 -0.325431
O64   O     O_R   0.403274 0.137415 0.717316 -0.269915
N9    N     N_R   0.585845 0.888836 0.806101 0.268571
O65   O     O_R   0.565358 0.865637 0.837503 -0.293032
O66   O     O_R   0.622361 0.885797 0.808127 -0.208122
N10   N     N_R   0.891140 0.409911 0.811833 0.271694
O67   O     O_R   0.869678 0.428478 0.849938 -0.284550
O68   O     O_R   0.887080 0.373625 0.806165 -0.205881
N11   N     N_R   0.391763 0.086904 0.816136 0.244592
O69   O     O_R   0.394392 0.092978 0.874706 -0.327665
O70   O     O_R   0.359513 0.092433 0.789597 -0.270885
N12   N     N_R   0.110725 0.582592 0.805742 0.268083
O71   O     O_R   0.134855 0.560998 0.833039 -0.298836
O72   O     O_R   0.113976 0.618931 0.811936 -0.210794
N13   N     N_R   0.382764 0.927905 0.175755 0.239805
O73   O     O_R   0.387509 0.919378 0.118260 -0.337321
O74   O     O_R   0.348772 0.927892 0.198173 -0.272817
N14   N     N_R   0.111055 0.412301 0.185638 0.270673
O75   O     O_R   0.132113 0.431544 0.148661 -0.288262
O76   O     O_R   0.115592 0.376005 0.188443 -0.203952
N15   N     N_R   0.582242 0.114203 0.195130 0.272756
O77   O     O_R   0.568539 0.130194 0.146917 -0.273668
O78   O     O_R   0.616062 0.122834 0.213269 -0.227435
N16   N     N_R   0.890585 0.584621 0.195930 0.268178
O79   O     O_R   0.866351 0.563646 0.166825 -0.298674
O80   O     O_R   0.887927 0.621050 0.191948 -0.211170
Cl1   Cl    Cl    0.194429 0.553201 0.608336 -0.417169
Cl2   Cl    Cl    0.554052 0.803194 0.594027 -0.419264
Cl3   Cl    Cl    0.795989 0.455871 0.584810 -0.423658
Cl4   Cl    Cl    0.557692 0.199668 0.582345 -0.439135
Cl5   Cl    Cl    0.805990 0.554789 0.394209 -0.418881
Cl6   Cl    Cl    0.448230 0.798434 0.411188 -0.427991
Cl7   Cl    Cl    0.203399 0.456235 0.410823 -0.422497
Cl8   Cl    Cl    0.444377 0.198068 0.411767 -0.426882
Cl9   Cl    Cl    0.700620 0.051198 0.091594 -0.427084
Cl10  Cl    Cl    0.053761 0.300893 0.089771 -0.413330
Cl11  Cl    Cl    0.300626 0.056364 0.086433 -0.427598
Cl12  Cl    Cl    0.954949 0.699512 0.102779 -0.425824
Cl13  Cl    Cl    0.301492 0.943185 0.912890 -0.440430
Cl14  Cl    Cl    0.944862 0.299783 0.911935 -0.415677
Cl15  Cl    Cl    0.697795 0.944788 0.906994 -0.419442
Cl16  Cl    Cl    0.043243 0.697805 0.895610 -0.422944
N17   N     N_R   0.111082 0.541710 0.596143 0.234254
O81   O     O_R   0.112751 0.530442 0.652316 -0.365928
O82   O     O_R   0.094508 0.573307 0.583561 -0.312261
N18   N     N_R   0.544155 0.886547 0.586715 0.232930
O83   O     O_R   0.534032 0.884485 0.643664 -0.362538
O84   O     O_R   0.576748 0.900685 0.572508 -0.302924
N19   N     N_R   0.880089 0.457904 0.581116 0.219704
O85   O     O_R   0.874674 0.466567 0.638335 -0.352076
O86   O     O_R   0.893011 0.424848 0.565851 -0.294851
N20   N     N_R   0.550679 0.115338 0.576775 0.261577
O87   O     O_R   0.536893 0.093705 0.618857 -0.386025
O88   O     O_R   0.587004 0.119525 0.572304 -0.243836
N21   N     N_R   0.889188 0.542511 0.405981 0.234907
O89   O     O_R   0.904831 0.574545 0.419965 -0.308443
O90   O     O_R   0.887976 0.531204 0.349325 -0.366980
N22   N     N_R   0.453277 0.882530 0.417264 0.221125
O91   O     O_R   0.458810 0.877029 0.359091 -0.344014
O92   O     O_R   0.421343 0.896408 0.436135 -0.284380
N23   N     N_R   0.119262 0.458537 0.415688 0.221087
O93   O     O_R   0.124151 0.467705 0.358930 -0.353721
O94   O     O_R   0.105886 0.425612 0.429135 -0.299847
N24   N     N_R   0.448498 0.113909 0.423111 0.265136
O95   O     O_R   0.412439 0.119781 0.428230 -0.239003
O96   O     O_R   0.460888 0.090251 0.381901 -0.374382
N25   N     N_R   0.616491 0.046986 0.083943 0.220533
O97   O     O_R   0.621355 0.041977 0.142118 -0.345378
O98   O     O_R   0.602821 0.078738 0.065121 -0.286096
N26   N     N_R   0.045643 0.384437 0.084022 0.219637
O99   O     O_R   0.038248 0.379693 0.141576 -0.360053
O100  O     O_R   0.078233 0.397560 0.067460 -0.297379
N27   N     N_R   0.385055 0.051460 0.077404 0.264767
O101  O     O_R   0.379452 0.087543 0.073485 -0.237525
O102  O     O_R   0.408141 0.038812 0.118355 -0.374653
N28   N     N_R   0.961399 0.615421 0.093687 0.233374
O103  O     O_R   0.929652 0.598521 0.082467 -0.315009
O104  O     O_R   0.973345 0.618708 0.149577 -0.354699
N29   N     N_R   0.385863 0.949186 0.921311 0.261916
O105  O     O_R   0.408934 0.962527 0.880712 -0.390345
O106  O     O_R   0.380742 0.912998 0.924318 -0.244495
N30   N     N_R   0.954272 0.383270 0.916112 0.219698
O107  O     O_R   0.962227 0.377958 0.858666 -0.357642
O108  O     O_R   0.921489 0.396496 0.932069 -0.294042
N31   N     N_R   0.614383 0.955545 0.913049 0.233839
O109  O     O_R   0.616607 0.966127 0.856559 -0.362756
O110  O     O_R   0.600260 0.922838 0.926006 -0.300924
N32   N     N_R   0.037995 0.613900 0.906103 0.232317
O111  O     O_R   0.026108 0.616335 0.850187 -0.360621
O112  O     O_R   0.069765 0.597209 0.917435 -0.317545

loop_
_geom_bond_atom_site_label_1
_geom_bond_atom_site_label_2
_geom_bond_distance
_ccdc_geom_bond_type
N8    O64   1.301369 A    
C74   H18   1.083771 S    
O25   C13   1.262834 A    
C87   C103  1.389653 A    
C162  N26   1.419122 S    
C146  C162  1.399287 A    
N13   O73   1.301726 A    
N1    O49   1.301247 A    
C17   C62   1.425981 A    
O39   Zn10  1.997561 S    
C150  C166  1.399149 A    
C19   C64   1.424699 A    
C154  N18   1.424431 S    
O18   Zn2   2.039971 S    
C3    C171  1.474296 S    
C43   N9    1.437995 S    
C140  Cl4   1.769814 S    
C147  C183  1.401831 A    
C56   C59   1.401207 A    
C148  C184  1.401666 A    
O40   Zn10  1.999798 S    
C48   N14   1.436496 S    
C113  C121  1.419697 S    
O34   C186  1.293912 A    
C166  N30   1.419304 S    
C126  C134  1.191451 T    
N29   O106  1.300939 A    
C9    C72   1.452820 S    
C26   H10   1.071488 S    
C83   C99   1.390757 A    
C11   C70   1.454624 S    
O48   C190  1.296590 A    
C88   H32   1.083743 S    
C20   C63   1.418923 A    
C120  C128  1.420403 S    
C73   H17   1.083881 S    
C74   C114  1.395428 A    
C13   C68   1.455557 S    
C118  C126  1.415054 S    
C56   C68   1.424992 A    
C154  C170  1.408878 A    
O5    Zn1   2.003045 S    
O33   C185  1.296028 A    
C86   H30   1.083907 S    
C40   C43   1.396924 A    
C93   C107  1.406930 A    
N18   O83   1.299905 A    
C159  C169  1.405117 A    
C146  C182  1.395818 A    
C141  C179  1.399967 A    
N4    O56   1.301305 A    
C28   C55   1.424329 A    
O47   Zn12  1.997561 S    
C151  C181  1.398327 A    
N14   O75   1.301245 A    
N26   O100  1.299927 A    
O17   C9    1.287444 A    
C32   C51   1.425433 A    
C124  C132  1.195138 T    
C54   C57   1.402102 A    
C20   C36   1.401841 A    
C146  Cl10  1.771136 S    
N6    O59   1.301353 A    
N24   O96   1.300681 A    
C128  C136  1.194636 T    
C135  C183  1.426351 S    
C26   C42   1.400827 A    
C16   C65   1.453023 S    
C140  C156  1.400592 A    
C7    C175  1.463526 S    
C116  C124  1.421205 S    
O48   Zn12  1.999798 S    
O46   C192  1.296495 A    
C8    C176  1.466524 S    
C18   C61   1.419191 A    
C84   H28   1.083843 S    
C52   C66   1.412157 A    
O26   Zn6   2.039971 S    
C168  C176  1.407423 A    
C151  C167  1.397701 A    
N25   O97   1.300714 A    
C89   H33   1.082897 S    
N23   O93   1.300202 A    
O27   C13   1.293014 A    
O8    Zn2   2.005003 S    
C36   N2    1.433062 S    
O31   C15   1.266532 A    
O32   C16   1.275676 A    
C81   H25   1.083792 S    
C161  N25   1.426909 S    
C143  C159  1.398267 A    
C27   H11   1.070112 S    
C151  Cl15  1.769511 S    
O44   Zn11  1.999790 S    
C24   H8    1.069597 S    
C121  C129  1.194201 T    
C40   N6    1.438017 S    
C158  N22   1.426732 S    
N17   O81   1.300140 A    
O9    C5    1.284269 A    
O38   Zn10  2.002060 S    
C37   C42   1.401387 A    
C6    C174  1.479630 S    
C160  N24   1.435914 S    
O11   C7    1.281014 A    
C130  C178  1.424239 S    
O47   C191  1.296084 A    
C86   C118  1.394309 A    
O16   Zn6   2.005003 S    
O4    C4    1.281170 A    
O43   Zn11  2.007210 S    
O6    Zn4   2.005017 S    
O35   Zn9   2.007210 S    
C163  C175  1.413639 A    
N22   O91   1.300727 A    
C77   C115  1.393404 A    
N7    O62   1.301492 A    
C27   C43   1.398254 A    
C51   C65   1.430338 A    
C21   C58   1.423389 A    
C94   H38   1.082925 S    
C139  C179  1.398660 A    
N29   O105  1.301095 A    
C79   C113  1.397543 A    
O21   Zn1   2.036397 S    
O23   C11   1.271838 A    
C158  C170  1.411525 A    
C63   C71   1.426383 A    
C156  N20   1.435768 S    
C39   C44   1.391948 A    
N5    O58   1.301534 A    
O37   C185  1.296740 A    
C23   H7    1.071612 S    
O13   C7    1.281299 A    
C141  Cl5   1.768205 S    
C148  Cl12  1.769080 S    
C17   C33   1.399353 A    
N9    O66   1.301537 A    
N20   O87   1.302121 A    
C162  C174  1.408590 A    
O2    Zn2   2.004455 S    
O41   C189  1.295073 A    
C24   C59   1.426526 A    
C31   C52   1.419050 A    
C167  C173  1.408288 A    
O43   C191  1.297752 A    
O7    C1    1.280785 A    
C159  N23   1.420985 S    
O28   C14   1.274432 A    
O26   C14   1.282103 A    
O29   C15   1.290126 A    
C140  C180  1.402025 A    
O30   C16   1.279926 A    
C73   C113  1.393609 A    
C74   C90   1.390694 A    
N2    O52   1.301249 A    
C44   N10   1.435586 S    
C95   C105  1.404156 A    
C115  C123  1.419816 S    
C148  C164  1.399963 A    
C138  Cl2   1.769714 S    
C137  C177  1.400355 A    
O19   Zn3   2.036401 S    
O42   Zn11  2.002062 S    
N20   O88   1.301620 A    
C152  C168  1.399422 A    
C22   H6    1.081006 S    
C89   C105  1.406748 A    
N30   O107  1.299925 A    
O34   Zn9   2.002062 S    
C64   C72   1.423234 A    
N12   O71   1.301326 A    
C17   H1    1.071123 S    
C111  C190  1.464770 S    
C144  C160  1.400986 A    
O15   Zn7   2.003046 S    
C22   C57   1.415934 A    
C57   C69   1.414745 A    
N16   O80   1.301521 A    
C83   H27   1.083799 S    
C88   C104  1.391916 A    
C73   C89   1.388935 A    
O3    C3    1.281032 A    
C47   N13   1.440014 S    
C36   C47   1.402130 A    
N32   O111  1.300377 A    
C83   C119  1.395511 A    
C26   C53   1.424167 A    
C4    C172  1.465064 S    
O32   Zn6   2.042192 S    
N15   O78   1.301276 A    
O45   Zn12  2.007205 S    
C91   H35   1.082897 S    
N28   O104  1.300477 A    
C20   H4    1.074668 S    
C30   C49   1.425931 A    
C1    C169  1.472369 S    
C33   N3    1.438224 S    
C29   C45   1.401747 A    
O18   C10   1.265416 A    
C97   C109  1.404916 A    
C142  C178  1.399518 A    
C5    C173  1.471551 S    
O22   Zn4   2.039978 S    
C25   C54   1.415754 A    
C22   C38   1.400963 A    
C94   C106  1.405059 A    
O23   Zn3   2.045865 S    
N10   O67   1.301165 A    
C142  C158  1.400640 A    
C141  C157  1.401472 A    
C92   C108  1.405353 A    
O38   C188  1.294219 A    
O12   C8    1.281691 A    
O1    C1    1.286031 A    
O14   C6    1.285140 A    
C107  C186  1.465060 S    
C30   H14   1.070532 S    
C100  C112  1.405595 A    
N31   O110  1.300119 A    
C34   C45   1.402117 A    
O33   Zn9   1.997562 S    
N21   O90   1.300105 A    
C164  C176  1.407797 A    
C117  C125  1.417067 S    
O37   Zn10  2.007205 S    
O30   Zn8   2.039978 S    
C166  C174  1.408548 A    
C46   N16   1.438286 S    
C49   C65   1.425074 A    
C18   H2    1.078823 S    
C79   C95   1.392795 A    
C82   H26   1.083803 S    
C149  Cl13  1.769891 S    
C60   C70   1.423844 A    
C58   C70   1.423588 A    
C101  C111  1.405335 A    
C62   C72   1.427295 A    
C168  N32   1.426754 S    
C31   H15   1.079284 S    
N18   O84   1.300110 A    
C82   C118  1.395138 A    
C145  C161  1.400442 A    
C123  C131  1.194272 T    
O10   C6    1.284742 A    
C164  N28   1.427561 S    
C131  C179  1.425831 S    
C149  C165  1.400423 A    
N14   O76   1.301544 A    
O2    C2    1.282344 A    
O44   C192  1.295905 A    
C137  C153  1.401353 A    
N19   O85   1.300223 A    
C59   C69   1.428014 A    
N6    O60   1.301539 A    
C103  C109  1.405170 A    
C80   H24   1.083742 S    
C160  C172  1.414019 A    
C125  C133  1.192652 T    
O31   Zn7   2.045865 S    
C156  C172  1.413288 A    
C78   C94   1.389671 A    
C18   C34   1.395288 A    
C144  Cl8   1.769807 S    
C25   H9    1.081126 S    
C75   C115  1.397793 A    
C92   H36   1.082902 S    
C12   C69   1.457237 S    
N8    O63   1.301624 A    
C29   H13   1.073855 S    
C41   N11   1.438555 S    
O21   C11   1.285191 A    
C24   C40   1.398773 A    
O22   C12   1.261177 A    
C104  C112  1.405271 A    
C84   C120  1.395206 A    
N13   O74   1.301292 A    
O13   Zn5   2.003045 S    
N1    O50   1.301555 A    
C76   C116  1.395854 A    
C21   H5    1.072338 S    
N3    O53   1.301325 A    
C28   C44   1.397290 A    
C50   C66   1.426372 A    
O3    Zn3   2.003598 S    
C55   C60   1.405396 A    
O42   C190  1.296957 A    
C23   C39   1.396811 A    
C152  Cl16  1.769536 S    
O40   C186  1.299704 A    
C145  Cl9   1.770721 S    
N11   O69   1.301652 A    
C76   C92   1.391174 A    
O28   Zn8   2.042203 S    
C77   C93   1.388748 A    
C25   C41   1.400646 A    
C91   C107  1.404046 A    
C15   C66   1.454452 S    
C28   H12   1.070220 S    
C98   H42   1.082929 S    
C119  C127  1.419898 S    
C155  C171  1.405699 A    
C55   C67   1.428115 A    
C102  H46   1.082941 S    
C31   C47   1.395186 A    
O4    Zn4   2.004464 S    
C129  C177  1.425699 S    
C143  C177  1.399053 A    
O9    Zn5   2.003594 S    
C143  Cl7   1.771220 S    
O11   Zn7   2.003598 S    
N22   O92   1.299938 A    
N4    O55   1.301696 A    
N26   O99   1.299860 A    
N27   O101  1.300969 A    
C87   H31   1.083805 S    
O5    C3    1.286879 A    
C61   C71   1.413012 A    
N24   O95   1.300972 A    
O7    Zn3   2.003046 S    
O35   C187  1.297244 A    
C145  C181  1.399406 A    
C38   C41   1.408602 A    
N5    O57   1.301182 A    
C87   C117  1.394876 A    
C79   H23   1.083725 S    
N9    O65   1.301357 A    
C157  C171  1.410506 A    
O17   Zn1   2.045866 S    
C2    C170  1.472956 S    
C138  C154  1.398317 A    
C97   H41   1.082892 S    
N7    O61   1.301322 A    
C144  C180  1.401990 A    
C38   N8    1.438450 S    
N25   O98   1.300010 A    
C45   N15   1.433747 S    
C39   N5    1.435212 S    
C167  N31   1.424441 S    
C88   C120  1.396221 A    
C142  Cl6   1.770532 S    
C78   H22   1.083858 S    
O14   Zn8   2.005017 S    
N15   O77   1.300910 A    
C49   C62   1.393948 A    
C82   C98   1.389773 A    
O20   Zn4   2.042203 S    
O16   C8    1.280954 A    
C147  C163  1.400473 A    
C51   C64   1.404357 A    
O41   Zn11  1.997562 S    
C139  Cl3   1.771583 S    
C85   C119  1.395727 A    
C86   C102  1.388335 A    
C81   C117  1.395252 A    
C54   C68   1.414183 A    
O8    C4    1.280813 A    
C153  C169  1.409724 A    
C32   H16   1.068715 S    
C155  N19   1.420561 S    
N30   O108  1.299838 A    
N17   O82   1.299946 A    
C103  H47   1.082897 S    
N12   O72   1.301516 A    
C104  H48   1.082897 S    
C136  C184  1.426426 S    
C37   N7    1.438258 S    
C101  H45   1.082905 S    
C99   C111  1.405397 A    
C52   C63   1.403893 A    
C95   H39   1.082898 S    
C96   H40   1.082895 S    
N31   O109  1.299850 A    
C75   C91   1.393079 A    
N32   O112  1.299781 A    
C153  N17   1.426161 S    
C109  C192  1.462368 S    
C84   C100  1.390344 A    
C85   C101  1.391102 A    
O46   Zn12  2.002060 S    
C114  C122  1.417978 S    
C105  C188  1.464896 S    
C32   C48   1.397596 A    
C78   C114  1.395109 A    
O25   Zn5   2.045866 S    
O6    C2    1.284117 A    
C102  C110  1.404974 A    
C90   H34   1.082911 S    
O27   Zn7   2.036401 S    
C139  C155  1.398420 A    
C76   H20   1.083795 S    
C42   N12   1.438247 S    
C77   H21   1.083886 S    
N10   O68   1.301528 A    
C21   C37   1.399864 A    
C157  N21   1.426005 S    
C80   C96   1.391699 A    
N19   O86   1.299654 A    
N3    O54   1.301503 A    
C134  C182  1.421432 S    
C10   C71   1.453713 S    
N23   O94   1.299630 A    
C50   C61   1.404823 A    
C23   C60   1.423808 A    
C34   N4    1.439875 S    
C147  Cl11  1.769907 S    
O19   C9    1.268696 A    
C14   C67   1.455218 S    
C90   C106  1.405271 A    
O24   C12   1.294423 A    
C149  C183  1.401704 A    
C165  N29   1.436162 S    
C75   H19   1.083712 S    
N11   O70   1.301364 A    
C80   C116  1.395870 A    
O24   Zn2   2.042192 S    
N21   O89   1.300007 A    
O12   Zn8   2.004464 S    
C138  C178  1.398229 A    
C30   C46   1.399737 A    
C19   H3    1.070372 S    
N2    O51   1.300807 A    
O39   C187  1.296921 A    
C27   C56   1.425668 A    
C112  C191  1.465222 S    
C35   N1    1.435834 S    
C29   C50   1.418653 A    
C132  C180  1.427614 S    
C19   C35   1.396866 A    
C98   C110  1.404783 A    
C133  C181  1.423312 S    
C108  C187  1.465895 S    
C85   H29   1.083774 S    
C81   C97   1.390020 A    
C127  C135  1.194360 T    
C122  C130  1.193201 T    
C99   H43   1.082906 S    
C93   H37   1.082894 S    
C152  C184  1.401050 A    
O29   Zn5   2.036397 S    
C53   C67   1.424750 A    
O36   Zn9   1.999790 S    
N27   O102  1.300797 A    
C165  C175  1.413537 A    
N16   O79   1.301349 A    
C100  H44   1.082908 S    
O20   C10   1.289574 A    
C137  Cl1   1.768293 S    
O10   Zn6   2.004455 S    
C33   C46   1.399503 A    
O36   C188  1.299395 A    
C163  N27   1.436172 S    
C35   C48   1.392251 A    
O15   C5    1.282582 A    
C150  C182  1.396095 A    
C96   C108  1.405659 A    
C110  C189  1.460672 S    
O45   C189  1.296456 A    
N28   O103  1.299842 A    
C161  C173  1.411462 A    
O1    Zn1   2.003594 S    
C53   C58   1.394599 A    
C150  Cl14  1.770670 S    
C106  C185  1.463119 S    
