data_mof_unit_12980.cif
_audit_creation_date              2012-12-10T17:57:49-0500
_audit_creation_method            fapswitch 2.2
_symmetry_space_group_name_H-M    P1
_symmetry_Int_Tables_number       1
_space_group_crystal_system       triclinic
_cell_length_a                    10.820819
_cell_length_b                    9.524428
_cell_length_c                    14.989957
_cell_angle_alpha                 90.142784
_cell_angle_beta                  90.009985
_cell_angle_gamma                 89.858909
_cell_volume                      1544.88711618

loop_
_atom_site_label
_atom_site_type_symbol
_atom_type_description
_atom_site_fract_x
_atom_site_fract_y
_atom_site_fract_z
_atom_type_partial_charge
C1    C     C_R   0.262089 0.500098 0.499953 0.786715
C2    C     C_R   0.737911 0.499902 0.500047 0.786708
C3    C     C_R   0.280366 0.447919 0.048308 -0.247500
C4    C     C_R   0.719615 0.552161 0.951694 -0.247531
C5    C     C_R   0.064188 0.372440 0.500139 -0.170147
C6    C     C_R   0.935811 0.627560 0.499861 -0.170158
C7    C     C_R   0.936412 0.372327 0.500212 -0.164797
C8    C     C_R   0.063588 0.627673 0.499789 -0.164795
C9    C     C_R   0.871756 0.499882 0.500053 -0.016671
C10   C     C_R   0.128244 0.500118 0.499947 -0.016661
C11   C     C_R   0.420969 0.074407 0.446313 -0.012853
C12   C     C_R   0.579031 0.925593 0.553687 -0.012854
C13   C     C_R   0.579041 0.074383 0.553679 -0.013508
C14   C     C_R   0.420959 0.925616 0.446321 -0.013506
C15   C     C_R   0.500318 0.499792 0.328939 0.808947
C16   C     C_R   0.499682 0.500208 0.671061 0.808959
C17   C     C_R   0.607543 0.531506 0.813109 -0.224782
C18   C     C_R   0.392446 0.468533 0.186892 -0.224794
C19   C     C_R   0.498981 0.501093 0.767361 -0.059743
C20   C     C_R   0.501016 0.498910 0.232640 -0.059701
C21   C     C_R   0.389630 0.472315 0.812937 -0.196579
C22   C     C_R   0.610366 0.527681 0.187062 -0.196612
C23   C     C_R   0.386242 0.476813 0.906562 0.036759
C24   C     C_R   0.613742 0.523221 0.093436 0.036733
C25   C     C_R   0.498674 0.501572 0.953181 0.053285
C26   C     C_R   0.501310 0.498469 0.046818 0.053308
C27   C     C_R   0.608839 0.529450 0.905979 0.099409
C28   C     C_R   0.391146 0.470602 0.094021 0.099370
C29   C     C_R   0.275384 0.453802 0.955130 -0.024190
C30   C     C_R   0.724591 0.546269 0.044870 -0.024088
Cu1   Cu    Cu3+1 0.500000 0.640660 0.500000 0.956371
Cu2   Cu    Cu3+1 0.500000 0.359340 0.500000 0.956369
H1    H     H_    0.691476 0.553323 0.776070 0.133497
H2    H     H_    0.308512 0.446730 0.223931 0.133494
H3    H     H_    0.308815 0.445534 0.774121 0.167377
H4    H     H_    0.691194 0.554423 0.225874 0.167288
H5    H     H_    0.196183 0.429997 0.085883 0.189780
H6    H     H_    0.803797 0.570115 0.914124 0.189636
H7    H     H_    0.112503 0.272690 0.500242 0.150477
H8    H     H_    0.887497 0.727310 0.499758 0.150479
H9    H     H_    0.888570 0.272552 0.500394 0.150620
H10   H     H_    0.111430 0.727448 0.499607 0.150619
H11   H     H_    0.357664 0.130452 0.403271 0.123245
H12   H     H_    0.642336 0.869548 0.596729 0.123245
H13   H     H_    0.642368 0.130410 0.596702 0.123327
H14   H     H_    0.357632 0.869590 0.403298 0.123323
N1    N     N_R   0.500000 0.852070 0.500000 -0.161221
N2    N     N_R   0.500000 0.147930 0.500000 -0.161221
O1    O     O_R   0.319640 0.618740 0.499990 -0.588622
O2    O     O_R   0.680360 0.381260 0.500010 -0.588621
O3    O     O_R   0.680360 0.618740 0.500010 -0.592539
O4    O     O_R   0.319640 0.381260 0.499990 -0.592539
O5    O     O_R   0.499970 0.618800 0.370260 -0.578997
O6    O     O_R   0.500030 0.381200 0.629740 -0.579001
O7    O     O_R   0.500030 0.618800 0.629740 -0.571506
O8    O     O_R   0.499970 0.381200 0.370260 -0.571510
C31   C     C_2   0.151644 0.441009 0.912756 0.852774
O9    O     O_2   0.123661 0.514558 0.849091 -0.600463
O10   O     O_R   0.064130 0.349931 0.949360 -0.743213
H15   H     H_    0.982263 0.352862 0.916481 0.334780
C32   C     C_2   0.848314 0.559124 0.087253 0.852826
O11   O     O_2   0.876386 0.485423 0.150823 -0.600359
O12   O     O_R   0.935700 0.650463 0.050778 -0.743232
H16   H     H_    0.017568 0.647562 0.083656 0.334797

loop_
_geom_bond_atom_site_label_1
_geom_bond_atom_site_label_2
_ccdc_geom_bond_type
C13   N2    A    
C5    C7    A    
C11   H11   S    
C14   N1    A    
C21   H3    S    
C25   C27   A    
Cu2   N2    S    
C26   C28   A    
Cu1   Cu2   S    
C8    H10   S    
Cu2   O2    S    
C15   O8    A    
C4    C27   A    
C6    C9    A    
C5    H7    S    
C31   O9    D    
C16   O7    A    
C18   C28   A    
O10   H15   S    
C14   H14   S    
Cu1   N1    S    
Cu1   O5    S    
C13   H13   S    
C18   H2    S    
C3    C29   A    
C11   N2    A    
C32   O11   D    
C17   H1    S    
Cu1   O1    S    
C12   N1    A    
C23   C29   A    
Cu2   O6    S    
C3    C28   A    
C11   C14   A    
C20   C22   A    
C22   C24   A    
C23   C25   A    
C21   C23   A    
C16   C19   S    
C15   C20   S    
C1    O4    A    
C16   O6    A    
C31   O10   S    
C24   C30   A    
C2    O3    A    
C29   C31   S    
C17   C19   A    
O12   H16   S    
C17   C27   A    
C15   O5    A    
C5    C10   A    
C6    H8    S    
C22   H4    S    
C12   C13   A    
C3    H5    S    
C18   C20   A    
C12   H12   S    
C30   C32   S    
Cu1   O3    S    
C32   O12   S    
C7    C9    A    
Cu2   O4    S    
C6    C8    A    
C2    O2    A    
Cu1   O7    S    
C25   C26   A    
C2    C9    S    
C1    O1    A    
Cu2   O8    S    
C8    C10   A    
C4    C30   A    
C1    C10   S    
C24   C26   A    
C7    H9    S    
C4    H6    S    
C19   C21   A    
