data_mof_unit_24491.cif
_audit_creation_date              2012-12-10T17:12:28-0500
_audit_creation_method            fapswitch 2.2
_symmetry_space_group_name_H-M    P1
_symmetry_Int_Tables_number       1
_space_group_crystal_system       triclinic
_cell_length_a                    11.690681
_cell_length_b                    13.060262
_cell_length_c                    11.85666
_cell_angle_alpha                 99.872012
_cell_angle_beta                  93.695655
_cell_angle_gamma                 92.721515
_cell_volume                      1776.64379431

loop_
_atom_site_label
_atom_site_type_symbol
_atom_type_description
_atom_site_fract_x
_atom_site_fract_y
_atom_site_fract_z
_atom_type_partial_charge
C1    C     C_R   0.501060 0.299713 0.478628 0.872205
C2    C     C_R   0.496981 0.700198 0.521031 0.811712
C3    C     C_R   0.380980 0.407169 0.024303 0.074658
C4    C     C_R   0.610749 0.599291 0.976576 0.161080
C5    C     C_R   0.389840 0.421278 0.145523 0.131527
C6    C     C_R   0.603121 0.586171 0.855326 0.109721
C7    C     C_R   0.555856 0.535058 0.155228 0.092803
C8    C     C_R   0.447840 0.459704 0.842854 0.101336
C9    C     C_R   0.542335 0.533413 0.033099 -0.047174
C10   C     C_R   0.456829 0.464940 0.965738 -0.076671
C11   C     C_R   0.284297 0.499707 0.500102 0.828051
C12   C     C_R   0.715707 0.500283 0.499897 0.809326
C13   C     C_1   0.162542 0.499890 0.500281 -0.181466
C14   C     C_1   0.837482 0.500258 0.499674 -0.099516
C15   C     C_1   0.059970 0.500052 0.500099 0.011910
C16   C     C_1   0.940061 0.500194 0.499795 0.037090
C17   C     C_R   0.490647 0.813412 0.532354 -0.120887
C18   C     C_R   0.497411 0.186140 0.466298 -0.109330
C19   C     C_R   0.434440 0.018881 0.351543 0.006315
C20   C     C_R   0.528221 0.983215 0.651227 0.000430
C21   C     C_R   0.451583 0.126096 0.363765 -0.219668
C22   C     C_R   0.525246 0.875460 0.637669 -0.243633
C23   C     C_R   0.536566 0.138435 0.557381 0.219421
C24   C     C_R   0.447450 0.859643 0.440216 0.199376
C25   C     C_R   0.508650 0.030981 0.553377 -0.023632
C26   C     C_R   0.461216 0.969021 0.447403 0.002997
Cu1   Cu    Cu3+1 0.508350 0.507730 0.615930 0.970417
Cu2   Cu    Cu3+1 0.491650 0.492270 0.384070 0.965744
H1    H     H_    0.546037 0.839686 0.711628 0.188858
H2    H     H_    0.428257 0.163022 0.291403 0.239729
N1    N     N_R   0.520920 0.519350 0.790130 -0.264881
N2    N     N_R   0.479080 0.480650 0.209870 -0.257221
O1    O     O_R   0.505930 0.354460 0.582000 -0.539469
O2    O     O_R   0.494070 0.645540 0.418000 -0.611595
O3    O     O_R   0.491820 0.341410 0.386200 -0.546233
O4    O     O_R   0.508180 0.658590 0.613800 -0.619297
O5    O     O_R   0.344250 0.506540 0.597900 -0.603870
O6    O     O_R   0.655750 0.493460 0.402100 -0.581054
O7    O     O_R   0.330140 0.493480 0.402100 -0.587690
O8    O     O_R   0.669860 0.506520 0.597900 -0.555113
N3    N     N_2   0.386519 0.796863 0.342862 -0.456196
H3    H     H_    0.433775 0.755328 0.282222 0.255608
C27   C     C_3   0.273533 0.752990 0.358222 -0.664753
H4    H     H_    0.210478 0.773817 0.293175 0.222711
H5    H     H_    0.245218 0.782610 0.445000 0.226900
H6    H     H_    0.273890 0.667007 0.345609 0.243078
N4    N     N_2   0.619097 0.196209 0.641207 -0.426258
H7    H     H_    0.592474 0.227947 0.719986 0.280871
C28   C     C_3   0.736156 0.165344 0.637489 -0.639528
H8    H     H_    0.744314 0.089553 0.666667 0.240425
H9    H     H_    0.793729 0.225058 0.694792 0.237449
H10   H     H_    0.763815 0.159074 0.548763 0.229844
C29   C     C_2   0.387141 0.965392 0.236377 0.370243
H11   H     H_    0.308330 0.916752 0.226170 0.105848
O9    O     O_2   0.433732 0.979679 0.150648 -0.534162
C30   C     C_2   0.539350 0.042270 0.770188 0.382319
H12   H     H_    0.494114 0.112472 0.791181 0.083445
O10   O     O_2   0.595690 0.011102 0.846453 -0.535416
C31   C     C_2   0.357173 0.392628 0.770392 0.546435
H13   H     H_    0.273700 0.422633 0.755134 0.048802
O11   O     O_2   0.372386 0.301585 0.733535 -0.577813
C32   C     C_2   0.656316 0.591360 0.223685 0.526731
H14   H     H_    0.645851 0.656489 0.291263 0.059180
O12   O     O_2   0.752940 0.564864 0.204331 -0.539428
C33   C     C_2   0.685411 0.646902 0.800105 0.441543
H15   H     H_    0.658659 0.711673 0.761515 0.065995
O13   O     O_2   0.786325 0.626660 0.801454 -0.552365
C34   C     C_2   0.294874 0.375558 0.200136 0.455708
H16   H     H_    0.211232 0.407967 0.196040 0.034509
O14   O     O_2   0.306564 0.298940 0.244460 -0.565516
N5    N     N_2   0.294030 0.334931 0.962509 -0.457800
H17   H     H_    0.211371 0.349736 0.983187 0.235439
C35   C     C_3   0.318797 0.226373 0.954066 -0.532473
H18   H     H_    0.264039 0.179206 0.881946 0.229492
H19   H     H_    0.300359 0.197677 0.034155 0.238442
H20   H     H_    0.410226 0.215529 0.937730 0.240971
N6    N     N_2   0.678857 0.685843 0.041194 -0.443281
H21   H     H_    0.759707 0.697726 0.014243 0.298095
C36   C     C_3   0.618633 0.780513 0.065049 -0.645188
H22   H     H_    0.674249 0.840945 0.123583 0.251523
H23   H     H_    0.538905 0.766327 0.107603 0.223844
H24   H     H_    0.596414 0.809745 0.984183 0.248425

loop_
_geom_bond_atom_site_label_1
_geom_bond_atom_site_label_2
_ccdc_geom_bond_type
C22   H1    S    
C18   C21   A    
C35   H19   S    
N3    H3    S    
C20   C30   S    
C1    O1    A    
N4    C28   S    
N6    H21   S    
Cu1   O1    S    
C1    C18   S    
C19   C21   A    
C24   C26   A    
C8    C31   S    
C20   C25   A    
C15   C16   S    
C30   H12   S    
C35   H18   S    
C11   O5    A    
C19   C26   A    
C32   O12   D    
C6    C33   S    
Cu2   O3    S    
C34   H16   S    
C28   H9    S    
C9    C10   A    
C5    N2    A    
C19   C29   S    
N6    C36   S    
C6    N1    A    
Cu2   O2    S    
C31   H13   S    
C2    C17   S    
C24   N3    S    
N3    C27   S    
C5    C34   S    
C29   O9    D    
C31   O11   D    
C17   C24   A    
C23   N4    S    
Cu1   N1    S    
C18   C23   A    
Cu2   N2    S    
C4    C6    A    
C36   H23   S    
Cu2   O7    S    
C33   O13   D    
C25   C26   A    
C29   H11   S    
C12   O8    A    
C3    N5    S    
C27   H4    S    
C7    C32   S    
C32   H14   S    
N4    H7    S    
Cu2   O6    S    
Cu1   O8    S    
C28   H10   S    
C11   O7    A    
C27   H5    S    
C34   O14   D    
C20   C22   A    
C28   H8    S    
C13   C15   T    
C35   H20   S    
C14   C16   T    
C1    O3    A    
N5    C35   S    
C2    O4    A    
C7    C9    A    
C7    N2    A    
C8    N1    A    
C12   C14   S    
C3    C5    A    
C36   H24   S    
Cu1   O4    S    
C21   H2    S    
C17   C22   A    
C4    N6    S    
C3    C10   A    
C11   C13   S    
C2    O2    A    
Cu1   O5    S    
C30   O10   D    
C23   C25   A    
C12   O6    A    
C27   H6    S    
C36   H22   S    
N5    H17   S    
C8    C10   A    
C33   H15   S    
Cu1   Cu2   S    
C4    C9    A    
