data_mof_unit_62677.cif
_audit_creation_date              2012-12-10T18:26:21-0500
_audit_creation_method            fapswitch 2.2
_symmetry_space_group_name_H-M    P1
_symmetry_Int_Tables_number       1
_space_group_crystal_system       triclinic
_cell_length_a                    21.460451
_cell_length_b                    21.460278
_cell_length_c                    47.098167
_cell_angle_alpha                 89.907279
_cell_angle_beta                  89.694488
_cell_angle_gamma                 89.981004
_cell_volume                      21690.5931378

loop_
_atom_site_label
_atom_site_type_symbol
_atom_type_description
_atom_site_fract_x
_atom_site_fract_y
_atom_site_fract_z
_atom_type_partial_charge
C1    C     C_R   0.997619 0.121485 0.000092 0.833789
C2    C     C_R   0.878523 0.997571 0.000216 0.833960
C3    C     C_R   0.002573 0.878527 0.000165 0.833264
C4    C     C_R   0.121489 0.002218 0.000041 0.833235
C5    C     C_R   0.497593 0.621484 0.500092 0.833523
C6    C     C_R   0.378523 0.497569 0.500216 0.833911
C7    C     C_R   0.502564 0.378526 0.500165 0.833527
C8    C     C_R   0.621480 0.502413 0.500044 0.833266
C9    C     C_3   0.189592 0.002132 0.000066 0.174809
C10   C     C_3   0.997746 0.189591 0.000158 0.174842
C11   C     C_3   0.810424 0.997682 0.000254 0.174401
C12   C     C_3   0.002417 0.810425 0.000161 0.174897
C13   C     C_3   0.689581 0.502300 0.500060 0.174928
C14   C     C_3   0.497724 0.689590 0.500157 0.174977
C15   C     C_3   0.310425 0.497680 0.500254 0.174424
C16   C     C_3   0.502410 0.310425 0.500161 0.174807
C17   C     C_3   0.310374 0.000238 0.000826 0.160631
C18   C     C_3   0.999785 0.310380 0.000813 0.159895
C19   C     C_3   0.689641 0.999738 0.999613 0.156906
C20   C     C_3   0.000233 0.689637 0.999625 0.156980
C21   C     C_3   0.810364 0.500254 0.500745 0.160122
C22   C     C_3   0.499783 0.810378 0.500802 0.159826
C23   C     C_3   0.189641 0.499737 0.499614 0.156893
C24   C     C_3   0.500233 0.189636 0.499621 0.156977
C25   C     C_3   0.283804 0.934452 0.007839 -0.370978
C26   C     C_3   0.065925 0.283769 0.006856 -0.370235
C27   C     C_3   0.716267 0.065936 0.993508 -0.370567
C28   C     C_3   0.933746 0.716304 0.994457 -0.369811
C29   C     C_3   0.783740 0.434088 0.506930 -0.370402
C30   C     C_3   0.565970 0.783759 0.506734 -0.370130
C31   C     C_3   0.216267 0.565939 0.493517 -0.370563
C32   C     C_3   0.433763 0.216301 0.494406 -0.369811
C33   C     C_3   0.287748 0.020256 0.971069 -0.410029
C34   C     C_3   0.978064 0.287456 0.971385 -0.409909
C35   C     C_3   0.714330 0.954300 0.976578 -0.397649
C36   C     C_3   0.044431 0.713983 0.975936 -0.398414
C37   C     C_3   0.787676 0.522108 0.471259 -0.409535
C38   C     C_3   0.477817 0.787446 0.471412 -0.409860
C39   C     C_3   0.214329 0.454314 0.476573 -0.397651
C40   C     C_3   0.544510 0.213989 0.475963 -0.398369
C41   C     C_R   0.501101 0.999698 0.145825 0.190644
C42   C     C_R   0.999074 0.500365 0.145828 0.190667
C43   C     C_R   0.001086 0.499699 0.645824 0.190662
C44   C     C_R   0.499075 0.000372 0.645827 0.190689
C45   C     C_R   0.001229 0.499619 0.854101 0.318081
C46   C     C_R   0.499525 0.000279 0.854103 0.318128
C47   C     C_R   0.501232 0.999619 0.354101 0.318074
C48   C     C_R   0.999526 0.500278 0.354104 0.318126
C49   C     C_R   0.544729 0.104295 0.234988 -0.162659
C50   C     C_R   0.894293 0.543205 0.235446 -0.162582
C51   C     C_R   0.458718 0.894586 0.235347 -0.162587
C52   C     C_R   0.104105 0.457311 0.234897 -0.162662
C53   C     C_R   0.044690 0.604308 0.734987 -0.162658
C54   C     C_R   0.394269 0.043151 0.735446 -0.162582
C55   C     C_R   0.958728 0.394580 0.735347 -0.162587
C56   C     C_R   0.604131 0.957378 0.734896 -0.162663
C57   C     C_R   0.944559 0.500135 0.868928 -0.104765
C58   C     C_R   0.499201 0.943749 0.868946 -0.104594
C59   C     C_R   0.057552 0.499251 0.868929 -0.104307
C60   C     C_R   0.499989 0.056742 0.868915 -0.104501
C61   C     C_R   0.444562 0.000141 0.368928 -0.104761
C62   C     C_R   0.999174 0.443748 0.368946 -0.104613
C63   C     C_R   0.557554 0.999244 0.368929 -0.104311
C64   C     C_R   0.000019 0.556742 0.368915 -0.104510
C65   C     C_R   0.522797 0.051015 0.190268 0.519925
C66   C     C_R   0.947578 0.521494 0.190492 0.520013
C67   C     C_R   0.480239 0.948043 0.190446 0.519977
C68   C     C_R   0.050603 0.478997 0.190229 0.519883
C69   C     C_R   0.022766 0.551023 0.690267 0.519925
C70   C     C_R   0.447567 0.021472 0.690492 0.520009
C71   C     C_R   0.980234 0.448041 0.690446 0.519973
C72   C     C_R   0.550617 0.979035 0.690228 0.519883
C73   C     C_R   0.944137 0.500253 0.898481 -0.221978
C74   C     C_R   0.499373 0.943605 0.898497 -0.222287
C75   C     C_R   0.057275 0.499403 0.898483 -0.222519
C76   C     C_R   0.500129 0.056744 0.898468 -0.222211
C77   C     C_R   0.444138 0.000258 0.398480 -0.221986
C78   C     C_R   0.999346 0.443605 0.398497 -0.222293
C79   C     C_R   0.557276 0.999396 0.398483 -0.222522
C80   C     C_R   0.000158 0.556744 0.398469 -0.222231
C81   C     C_R   0.501712 0.999445 0.235007 -0.021761
C82   C     C_R   0.999199 0.500261 0.235012 -0.021757
C83   C     C_R   0.001698 0.499448 0.735007 -0.021758
C84   C     C_R   0.499200 0.000267 0.735011 -0.021756
C85   C     C_R   0.000527 0.499892 0.913501 -0.046766
C86   C     C_R   0.499839 0.000137 0.913502 -0.046741
C87   C     C_R   0.500528 0.999891 0.413501 -0.046753
C88   C     C_R   0.999840 0.500137 0.413502 -0.046689
C89   C     C_R   0.500052 0.999954 0.055433 0.994164
C90   C     C_R   0.999847 0.500045 0.055433 0.994222
C91   C     C_R   0.000050 0.499954 0.555433 0.994446
C92   C     C_R   0.499847 0.000045 0.555433 0.994340
C93   C     C_R   0.378523 0.999986 0.000863 0.844280
C94   C     C_R   0.000027 0.378528 0.000809 0.844567
C95   C     C_R   0.621489 0.000018 0.999550 0.842770
C96   C     C_R   0.999967 0.621485 0.999601 0.842694
C97   C     C_R   0.878517 0.499982 0.500776 0.844197
C98   C     C_R   0.500027 0.878527 0.500797 0.844569
C99   C     C_R   0.121489 0.500018 0.499551 0.842788
C100  C     C_R   0.499967 0.121485 0.499596 0.842700
C101  C     C_R   0.499971 0.000045 0.944660 0.870144
C102  C     C_R   0.000156 0.499979 0.944660 0.870141
C103  C     C_R   0.999972 0.500045 0.444660 0.869917
C104  C     C_R   0.500156 0.999979 0.444660 0.870091
C105  C     C_R   0.540827 0.959804 0.130863 -0.208360
C106  C     C_R   0.039018 0.540300 0.130965 -0.208528
C107  C     C_R   0.461030 0.039684 0.131239 -0.208254
C108  C     C_R   0.959268 0.460423 0.131142 -0.208040
C109  C     C_R   0.040831 0.459822 0.630863 -0.208337
C110  C     C_R   0.538991 0.040333 0.630963 -0.208553
C111  C     C_R   0.960998 0.539667 0.631238 -0.208255
C112  C     C_R   0.459295 0.960402 0.631142 -0.208040
C113  C     C_R   0.539623 0.958269 0.101155 0.423771
C114  C     C_R   0.040846 0.539384 0.101252 0.423917
C115  C     C_R   0.461517 0.041376 0.101522 0.423185
C116  C     C_R   0.957869 0.461193 0.101426 0.422893
C117  C     C_R   0.039632 0.458287 0.601156 0.423754
C118  C     C_R   0.540820 0.039416 0.601250 0.423931
C119  C     C_R   0.961488 0.541358 0.601520 0.423155
C120  C     C_R   0.457895 0.961169 0.601426 0.422869
C121  C     C_R   0.980672 0.447853 0.809664 0.499911
C122  C     C_R   0.551053 0.979402 0.809442 0.499858
C123  C     C_R   0.022625 0.551069 0.809489 0.499888
C124  C     C_R   0.447774 0.021267 0.809718 0.499946
C125  C     C_R   0.480667 0.947856 0.309664 0.499911
C126  C     C_R   0.051042 0.479370 0.309442 0.499861
C127  C     C_R   0.522643 0.051063 0.309489 0.499888
C128  C     C_R   0.947787 0.521294 0.309718 0.499941
C129  C     C_R   0.023286 0.552069 0.779755 -0.014987
C130  C     C_R   0.446655 0.021816 0.779988 -0.015078
C131  C     C_R   0.980182 0.446789 0.779935 -0.015085
C132  C     C_R   0.552001 0.978806 0.779710 -0.015005
C133  C     C_R   0.523307 0.052063 0.279756 -0.014986
C134  C     C_R   0.946667 0.521843 0.279989 -0.015073
C135  C     C_R   0.480180 0.946792 0.279935 -0.015082
C136  C     C_R   0.051989 0.478772 0.279710 -0.015007
C137  C     C_R   0.001739 0.499429 0.764923 -0.018868
C138  C     C_R   0.499284 0.000296 0.764927 -0.018866
C139  C     C_R   0.501750 0.999426 0.264924 -0.018869
C140  C     C_R   0.999284 0.500291 0.264928 -0.018867
C141  C     C_R   0.500372 0.999846 0.086482 -0.271107
C142  C     C_R   0.999501 0.500214 0.086482 -0.271040
C143  C     C_R   0.000365 0.499846 0.586481 -0.271174
C144  C     C_R   0.499501 0.000217 0.586481 -0.271003
C145  C     C_R   0.044687 0.604307 0.764584 -0.160515
C146  C     C_R   0.394335 0.043137 0.765044 -0.160485
C147  C     C_R   0.958812 0.394542 0.764943 -0.160512
C148  C     C_R   0.604232 0.957450 0.764491 -0.160542
C149  C     C_R   0.544722 0.104295 0.264585 -0.160516
C150  C     C_R   0.894360 0.543192 0.265044 -0.160487
C151  C     C_R   0.458800 0.894549 0.264943 -0.160513
C152  C     C_R   0.104207 0.457384 0.264492 -0.160542
C153  C     C_R   0.523253 0.052091 0.219996 -0.024038
C154  C     C_R   0.946507 0.521803 0.220227 -0.024078
C155  C     C_R   0.480083 0.946839 0.220176 -0.024016
C156  C     C_R   0.051811 0.478693 0.219954 -0.023985
C157  C     C_R   0.023225 0.552099 0.719995 -0.024040
C158  C     C_R   0.446495 0.021780 0.720226 -0.024080
C159  C     C_R   0.980080 0.446837 0.720176 -0.024019
C160  C     C_R   0.551824 0.978731 0.719953 -0.023988
C161  C     C_3   0.214071 0.049594 0.022198 -0.407129
C162  C     C_3   0.951623 0.214398 0.022993 -0.405859
C163  C     C_3   0.783851 0.977984 0.029741 -0.384557
C164  C     C_3   0.023784 0.784131 0.029351 -0.385104
C165  C     C_3   0.714178 0.548339 0.522793 -0.405946
C166  C     C_3   0.451795 0.714413 0.523071 -0.405654
C167  C     C_3   0.283851 0.477963 0.529739 -0.384571
C168  C     C_3   0.523671 0.284127 0.529367 -0.385016
C169  C     C_3   0.285559 0.047163 0.023218 -0.376877
C170  C     C_3   0.954129 0.285909 0.023909 -0.376330
C171  C     C_3   0.712340 0.977711 0.029072 -0.381741
C172  C     C_3   0.023859 0.712630 0.028741 -0.381761
C173  C     C_3   0.785667 0.545815 0.523731 -0.376982
C174  C     C_3   0.454311 0.785924 0.523976 -0.376371
C175  C     C_3   0.212340 0.477692 0.529070 -0.381730
C176  C     C_3   0.523759 0.212626 0.528754 -0.381781
C177  C     C_3   0.212350 0.936136 0.008112 -0.419190
C178  C     C_3   0.064204 0.212315 0.007176 -0.420664
C179  C     C_3   0.787710 0.064214 0.993183 -0.418895
C180  C     C_3   0.935489 0.787749 0.994108 -0.420501
C181  C     C_3   0.712290 0.435808 0.507229 -0.419706
C182  C     C_3   0.564245 0.712306 0.507056 -0.420805
C183  C     C_3   0.287711 0.564218 0.493192 -0.418905
C184  C     C_3   0.435506 0.287746 0.494056 -0.420531
C185  C     C_3   0.216269 0.019800 0.970338 -0.370298
C186  C     C_3   0.978360 0.215986 0.970702 -0.370835
C187  C     C_3   0.785804 0.951786 0.977479 -0.394654
C188  C     C_3   0.046967 0.785480 0.976719 -0.392728
C189  C     C_3   0.716189 0.521812 0.470563 -0.371314
C190  C     C_3   0.478089 0.715975 0.470734 -0.370968
C191  C     C_3   0.285803 0.451799 0.477473 -0.394646
C192  C     C_3   0.547046 0.285486 0.476752 -0.392795
H1    H     H_    0.061479 0.645322 0.775511 0.190712
H2    H     H_    0.353320 0.059893 0.776149 0.190719
H3    H     H_    0.942036 0.353518 0.776011 0.190728
H4    H     H_    0.645308 0.940711 0.775380 0.190721
H5    H     H_    0.561522 0.145306 0.275512 0.190712
H6    H     H_    0.853355 0.559973 0.276150 0.190718
H7    H     H_    0.442013 0.853530 0.276011 0.190728
H8    H     H_    0.145274 0.440622 0.275381 0.190721
H9    H     H_    0.305020 0.067861 0.965855 0.180038
H10   H     H_    0.930206 0.304750 0.966860 0.180809
H11   H     H_    0.695624 0.906512 0.980072 0.185693
H12   H     H_    0.092381 0.695272 0.978779 0.185251
H13   H     H_    0.804983 0.569986 0.466632 0.180562
H14   H     H_    0.429925 0.804747 0.466965 0.180879
H15   H     H_    0.195623 0.406524 0.480061 0.185690
H16   H     H_    0.592449 0.195278 0.478836 0.185275
H17   H     H_    0.306407 0.987949 0.954610 0.165108
H18   H     H_    0.009466 0.305861 0.954444 0.164627
H19   H     H_    0.698813 0.969942 0.955201 0.164088
H20   H     H_    0.027672 0.698184 0.954806 0.163974
H21   H     H_    0.806252 0.490784 0.454391 0.164722
H22   H     H_    0.509087 0.805838 0.454417 0.164580
H23   H     H_    0.198811 0.469969 0.455198 0.164093
H24   H     H_    0.527820 0.198197 0.454819 0.163983
H25   H     H_    0.193978 0.901198 0.992831 0.153090
H26   H     H_    0.098215 0.193758 0.991370 0.154719
H27   H     H_    0.805157 0.078783 0.971876 0.176145
H28   H     H_    0.919704 0.805070 0.973036 0.174935
H29   H     H_    0.693900 0.401869 0.491493 0.154161
H30   H     H_    0.598118 0.693747 0.491189 0.154816
H31   H     H_    0.305158 0.578800 0.471887 0.176127
H32   H     H_    0.419799 0.305063 0.472972 0.175011
H33   H     H_    0.299748 0.900007 0.991705 0.182949
H34   H     H_    0.099454 0.299546 0.990218 0.182312
H35   H     H_    0.699210 0.083300 0.972659 0.171121
H36   H     H_    0.915282 0.699127 0.973857 0.172055
H37   H     H_    0.799684 0.400631 0.490368 0.182388
H38   H     H_    0.599366 0.799538 0.490040 0.182224
H39   H     H_    0.199211 0.583316 0.472670 0.171131
H40   H     H_    0.415367 0.199119 0.473793 0.172008
H41   H     H_    0.900902 0.500604 0.857505 0.141747
H42   H     H_    0.498670 0.899984 0.857536 0.141788
H43   H     H_    0.101476 0.498683 0.857507 0.141910
H44   H     H_    0.500419 0.100560 0.857480 0.141810
H45   H     H_    0.400905 0.000614 0.357505 0.141753
H46   H     H_    0.998621 0.399984 0.357537 0.141794
H47   H     H_    0.601479 0.998671 0.357508 0.141915
H48   H     H_    0.000471 0.600559 0.357480 0.141817
H49   H     H_    0.899746 0.500676 0.909519 0.162921
H50   H     H_    0.499085 0.899317 0.909547 0.163011
H51   H     H_    0.101404 0.499069 0.909525 0.162943
H52   H     H_    0.500524 0.100975 0.909499 0.162841
H53   H     H_    0.399747 0.000686 0.409519 0.162922
H54   H     H_    0.999037 0.399316 0.409548 0.163014
H55   H     H_    0.601405 0.999058 0.409526 0.162945
H56   H     H_    0.000575 0.600975 0.409499 0.162846
H57   H     H_    0.561534 0.145307 0.223920 0.190150
H58   H     H_    0.853241 0.559998 0.224557 0.190170
H59   H     H_    0.441873 0.853593 0.224420 0.190175
H60   H     H_    0.145098 0.440500 0.223792 0.190157
H61   H     H_    0.061484 0.645323 0.723919 0.190151
H62   H     H_    0.353207 0.059920 0.724556 0.190170
H63   H     H_    0.941891 0.353582 0.724420 0.190175
H64   H     H_    0.645134 0.940592 0.723791 0.190157
H65   H     H_    0.572885 0.930312 0.142412 0.163911
H66   H     H_    0.068363 0.572257 0.142599 0.163767
H67   H     H_    0.429255 0.069118 0.143091 0.163834
H68   H     H_    0.929789 0.428488 0.142909 0.163950
H69   H     H_    0.072901 0.430344 0.642413 0.163899
H70   H     H_    0.568313 0.072312 0.642597 0.163740
H71   H     H_    0.929208 0.569087 0.643088 0.163825
H72   H     H_    0.429838 0.928448 0.642910 0.163942
H73   H     H_    0.195253 0.038963 0.043733 0.191896
H74   H     H_    0.963539 0.195836 0.044367 0.192056
H75   H     H_    0.799599 0.010946 0.046462 0.188602
H76   H     H_    0.991857 0.800128 0.046568 0.189287
H77   H     H_    0.695454 0.536354 0.544198 0.192196
H78   H     H_    0.463895 0.695864 0.544426 0.192094
H79   H     H_    0.299601 0.510914 0.546464 0.188610
H80   H     H_    0.491678 0.300117 0.546559 0.189237
H81   H     H_    0.198509 0.097481 0.016478 0.152856
H82   H     H_    0.903413 0.198818 0.018031 0.152456
H83   H     H_    0.801090 0.930729 0.035531 0.165012
H84   H     H_    0.071392 0.801326 0.034401 0.164059
H85   H     H_    0.698615 0.596575 0.517720 0.153163
H86   H     H_    0.403541 0.698832 0.518198 0.152497
H87   H     H_    0.301090 0.430704 0.535522 0.164995
H88   H     H_    0.571258 0.301325 0.534454 0.164133
H89   H     H_    0.304269 0.094718 0.019110 0.188481
H90   H     H_    0.906380 0.304649 0.020489 0.188733
H91   H     H_    0.694999 0.929822 0.033659 0.195415
H92   H     H_    0.071942 0.695235 0.032674 0.194815
H93   H     H_    0.804407 0.593580 0.520206 0.188794
H94   H     H_    0.406536 0.804667 0.520633 0.188769
H95   H     H_    0.195000 0.429800 0.533651 0.195406
H96   H     H_    0.571830 0.195235 0.532718 0.194838
H97   H     H_    0.300978 0.032934 0.044815 0.185147
H98   H     H_    0.969574 0.301583 0.045270 0.185050
H99   H     H_    0.693785 0.008946 0.045981 0.174403
H100  H     H_    0.993483 0.694359 0.046096 0.174760
H101  H     H_    0.801153 0.530280 0.545131 0.184541
H102  H     H_    0.469928 0.801609 0.545308 0.184996
H103  H     H_    0.193787 0.508916 0.545983 0.174423
H104  H     H_    0.493329 0.194348 0.546087 0.174754
H105  H     H_    0.194892 0.923046 0.029614 0.177604
H106  H     H_    0.078533 0.195012 0.028468 0.176627
H107  H     H_    0.806126 0.098046 0.008960 0.154262
H108  H     H_    0.902598 0.806325 0.010393 0.155812
H109  H     H_    0.694813 0.421378 0.528550 0.176409
H110  H     H_    0.578754 0.694999 0.528321 0.176398
H111  H     H_    0.306127 0.598039 0.508974 0.154270
H112  H     H_    0.402553 0.306323 0.510315 0.155740
H113  H     H_    0.300870 0.918509 0.028919 0.170921
H114  H     H_    0.083056 0.300985 0.027690 0.171750
H115  H     H_    0.700338 0.099285 0.010117 0.181769
H116  H     H_    0.901281 0.700516 0.011527 0.180993
H117  H     H_    0.800775 0.416858 0.527805 0.171509
H118  H     H_    0.583272 0.800970 0.527539 0.171830
H119  H     H_    0.200339 0.599278 0.510131 0.181760
H120  H     H_    0.401241 0.200516 0.511454 0.181031
H121  H     H_    0.200626 0.985646 0.954097 0.186614
H122  H     H_    0.011506 0.200126 0.953941 0.187442
H123  H     H_    0.804477 0.963905 0.956080 0.191036
H124  H     H_    0.033570 0.803875 0.955501 0.191137
H125  H     H_    0.700482 0.488737 0.453879 0.187450
H126  H     H_    0.511086 0.700105 0.453915 0.187540
H127  H     H_    0.304475 0.463932 0.456076 0.191040
H128  H     H_    0.533729 0.303889 0.455524 0.191116
H129  H     H_    0.199002 0.066603 0.963846 0.164740
H130  H     H_    0.931168 0.198729 0.964948 0.163719
H131  H     H_    0.801394 0.903525 0.982487 0.151834
H132  H     H_    0.095497 0.801113 0.980965 0.151282
H133  H     H_    0.698948 0.569027 0.464703 0.163458
H134  H     H_    0.430844 0.698724 0.465067 0.163557
H135  H     H_    0.301393 0.403535 0.482474 0.151834
H136  H     H_    0.595560 0.301116 0.481037 0.151339
N1    N     N_R   0.501414 0.999572 0.176196 -0.330281
N2    N     N_R   0.999068 0.500264 0.176200 -0.330290
N3    N     N_R   0.001396 0.499575 0.676196 -0.330285
N4    N     N_R   0.499069 0.000273 0.676199 -0.330292
N5    N     N_R   0.001565 0.499493 0.823734 -0.356924
N6    N     N_R   0.499452 0.000336 0.823737 -0.356934
N7    N     N_R   0.501570 0.999491 0.323734 -0.356923
N8    N     N_R   0.999453 0.500334 0.323737 -0.356931
O1    O     O_R   0.999860 0.092630 0.023790 -0.627278
O2    O     O_R   0.907370 0.999860 0.023790 -0.628650
O3    O     O_R   0.000140 0.907370 0.023790 -0.628931
O4    O     O_R   0.092630 0.000140 0.023790 -0.627626
O5    O     O_R   0.499860 0.592630 0.523790 -0.627366
O6    O     O_R   0.407370 0.499860 0.523790 -0.628661
O7    O     O_R   0.500140 0.407370 0.523790 -0.628877
O8    O     O_R   0.592630 0.500140 0.523790 -0.627689
O9    O     O_R   0.999880 0.092690 0.976450 -0.629296
O10   O     O_R   0.907310 0.999880 0.976450 -0.627905
O11   O     O_R   0.000120 0.907310 0.976450 -0.627879
O12   O     O_R   0.092690 0.000120 0.976450 -0.629341
O13   O     O_R   0.499880 0.592690 0.476450 -0.629364
O14   O     O_R   0.407310 0.499880 0.476450 -0.627919
O15   O     O_R   0.500120 0.407310 0.476450 -0.627815
O16   O     O_R   0.592690 0.500120 0.476450 -0.629205
O17   O     O_2   0.960866 0.397617 0.824434 -0.562895
O18   O     O_2   0.601376 0.959688 0.823993 -0.563102
O19   O     O_2   0.042352 0.601333 0.824091 -0.563177
O20   O     O_2   0.397539 0.041004 0.824539 -0.562945
O21   O     O_2   0.460849 0.897625 0.324434 -0.562901
O22   O     O_2   0.101354 0.459629 0.323993 -0.563100
O23   O     O_2   0.542378 0.101324 0.324092 -0.563179
O24   O     O_2   0.897564 0.541061 0.324540 -0.562962
O25   O     O_2   0.543930 0.100711 0.175496 -0.569172
O26   O     O_2   0.897851 0.542659 0.175936 -0.569082
O27   O     O_2   0.458963 0.898405 0.175852 -0.569202
O28   O     O_2   0.100263 0.457813 0.175419 -0.569264
O29   O     O_2   0.043886 0.600725 0.675495 -0.569168
O30   O     O_2   0.397827 0.042607 0.675935 -0.569077
O31   O     O_2   0.958970 0.398398 0.675852 -0.569193
O32   O     O_2   0.600290 0.957882 0.675418 -0.569257
O33   O     O_R   0.499860 0.052350 0.042020 -0.601843
O34   O     O_R   0.947650 0.499860 0.042020 -0.601903
O35   O     O_R   0.500140 0.947650 0.042020 -0.602012
O36   O     O_R   0.052350 0.500140 0.042020 -0.602100
O37   O     O_R   0.999860 0.552350 0.542020 -0.601805
O38   O     O_R   0.447650 0.999860 0.542020 -0.601926
O39   O     O_R   0.000140 0.447650 0.542020 -0.601950
O40   O     O_R   0.552350 0.000140 0.542020 -0.602067
O41   O     O_R   0.407270 0.052320 0.000100 -0.623386
O42   O     O_R   0.947680 0.407270 0.000100 -0.623256
O43   O     O_R   0.592730 0.947680 0.000100 -0.622602
O44   O     O_R   0.052320 0.592730 0.000100 -0.622731
O45   O     O_R   0.907270 0.552320 0.500100 -0.623330
O46   O     O_R   0.447680 0.907270 0.500100 -0.623254
O47   O     O_R   0.092730 0.447680 0.500100 -0.622605
O48   O     O_R   0.552320 0.092730 0.500100 -0.622731
O49   O     O_R   0.407290 0.947770 0.000130 -0.637419
O50   O     O_R   0.052230 0.407290 0.000130 -0.637538
O51   O     O_R   0.592710 0.052230 0.000130 -0.637387
O52   O     O_R   0.947770 0.592710 0.000130 -0.637381
O53   O     O_R   0.907290 0.447770 0.500130 -0.637446
O54   O     O_R   0.552230 0.907290 0.500130 -0.637541
O55   O     O_R   0.092710 0.552230 0.500130 -0.637386
O56   O     O_R   0.447770 0.092710 0.500130 -0.637376
O57   O     O_R   0.499890 0.052320 0.958180 -0.626296
O58   O     O_R   0.947680 0.499890 0.958180 -0.626238
O59   O     O_R   0.500110 0.947680 0.958180 -0.626283
O60   O     O_R   0.052320 0.500110 0.958180 -0.626339
O61   O     O_R   0.999890 0.552320 0.458180 -0.626364
O62   O     O_R   0.447680 0.999890 0.458180 -0.626252
O63   O     O_R   0.000110 0.447680 0.458180 -0.626347
O64   O     O_R   0.552320 0.000110 0.458180 -0.626356
Zn1   Zn    Zn3+2 0.000000 0.000000 0.031720 0.936118
Zn2   Zn    Zn3+2 0.500000 0.500000 0.531720 0.936100
Zn3   Zn    Zn3+2 0.000000 0.000000 0.968510 0.937802
Zn4   Zn    Zn3+2 0.500000 0.500000 0.468510 0.937811
Zn5   Zn    Zn3+2 0.499870 0.069870 0.000100 0.946858
Zn6   Zn    Zn3+2 0.930130 0.499870 0.000100 0.946801
Zn7   Zn    Zn3+2 0.500130 0.930130 0.000100 0.946828
Zn8   Zn    Zn3+2 0.069870 0.500130 0.000100 0.946817
Zn9   Zn    Zn3+2 0.999870 0.569870 0.500100 0.946844
Zn10  Zn    Zn3+2 0.430130 0.999870 0.500100 0.946796
Zn11  Zn    Zn3+2 0.000130 0.430130 0.500100 0.946830
Zn12  Zn    Zn3+2 0.569870 0.000130 0.500100 0.946845
O65   O     O_3   0.581179 0.921191 0.086202 -0.606912
C193  C     C_3   0.565791 0.857952 0.090474 -0.253817
H137  H     H_    0.515716 0.848673 0.085987 0.165971
H138  H     H_    0.577721 0.842526 0.112313 0.162042
H139  H     H_    0.593722 0.829395 0.075476 0.177372
O66   O     O_3   0.078025 0.581093 0.086407 -0.606816
C194  C     C_3   0.141242 0.565724 0.090568 -0.253341
H140  H     H_    0.150645 0.515692 0.085910 0.166059
H141  H     H_    0.156418 0.577502 0.112432 0.161950
H142  H     H_    0.169918 0.593789 0.075634 0.177413
O67   O     O_3   0.419665 0.078592 0.086962 -0.608162
C195  C     C_3   0.435224 0.141788 0.091069 -0.253713
H143  H     H_    0.485202 0.151036 0.086101 0.166124
H144  H     H_    0.423811 0.157099 0.113017 0.162190
H145  H     H_    0.406988 0.170467 0.076333 0.177812
O68   O     O_3   0.920901 0.419413 0.086757 -0.608382
C196  C     C_3   0.857633 0.434891 0.090954 -0.254148
H146  H     H_    0.848363 0.484879 0.086119 0.166081
H147  H     H_    0.842090 0.423377 0.112886 0.162282
H148  H     H_    0.829171 0.406686 0.076169 0.177707
O69   O     O_3   0.081206 0.421227 0.586204 -0.606948
C197  C     C_3   0.065846 0.357981 0.590475 -0.253849
H149  H     H_    0.015776 0.348680 0.585987 0.165988
H150  H     H_    0.077780 0.342561 0.612315 0.162049
H151  H     H_    0.093792 0.329437 0.575478 0.177373
O70   O     O_3   0.577968 0.081148 0.586402 -0.606851
C198  C     C_3   0.641200 0.065872 0.590585 -0.253389
H152  H     H_    0.650671 0.015833 0.585971 0.166048
H153  H     H_    0.656344 0.077762 0.612441 0.161955
H154  H     H_    0.669853 0.093912 0.575631 0.177417
O71   O     O_3   0.919620 0.578552 0.586959 -0.608087
C199  C     C_3   0.935145 0.641756 0.591066 -0.253635
H155  H     H_    0.985120 0.651030 0.586101 0.166100
H156  H     H_    0.923719 0.657062 0.613013 0.162173
H157  H     H_    0.906899 0.670420 0.576328 0.177781
O72   O     O_3   0.420957 0.919362 0.586757 -0.608404
C200  C     C_3   0.357677 0.934790 0.590957 -0.254171
H158  H     H_    0.348367 0.984773 0.586126 0.166089
H159  H     H_    0.342145 0.923255 0.612888 0.162288
H160  H     H_    0.329235 0.906570 0.576169 0.177703

loop_
_geom_bond_atom_site_label_1
_geom_bond_atom_site_label_2
_ccdc_geom_bond_type
C115  C141  A    
C81   C139  A    
C130  C146  A    
C119  C143  A    
C120  C144  A    
C136  C140  A    
C15   C167  S    
C28   H36   S    
C40   H16   S    
C190  H126  S    
C102  O60   A    
C123  N5    A    
C135  C139  A    
C45   C57   A    
C8    C13   S    
C41   C105  A    
C135  C151  A    
C49   C153  A    
C192  H136  S    
C63   H47   S    
C91   O39   A    
C2    O2    A    
C22   C38   S    
O40   Zn12  S    
C152  H8    S    
O13   Zn4   S    
O9    Zn3   S    
C34   C186  S    
C82   C140  A    
C193  H139  S    
C200  H159  S    
C31   H39   S    
C146  H2    S    
C70   O30   S    
C129  C145  A    
C6    O6    A    
C184  H32   S    
C46   C60   A    
C125  C135  A    
C127  O23   S    
O44   Zn8   S    
C126  C136  A    
C10   C162  S    
C193  H138  S    
C30   C182  S    
O57   Zn5   S    
C38   H22   S    
O6    Zn2   S    
C79   C87   A    
C14   C182  S    
C164  H84   S    
C69   N3    A    
O43   Zn7   S    
C18   C170  S    
C25   H113  S    
C166  C174  S    
C95   O51   A    
C181  H29   S    
O33   Zn5   S    
C194  H142  S    
O47   Zn11  S    
C112  C120  A    
C28   H116  S    
C20   C28   S    
C58   H42   S    
C21   C29   S    
C60   C76   A    
C126  N8    A    
C36   C188  S    
C23   C31   S    
C24   C32   S    
C39   C191  S    
C40   C192  S    
C16   C184  S    
C124  C130  A    
C175  H95   S    
C60   H44   S    
C176  H96   S    
C161  H81   S    
C112  H72   S    
C116  C142  A    
C44   C112  A    
C20   C172  S    
C133  C139  A    
O1    Zn1   S    
C120  O72   S    
C114  O66   S    
C11   C179  S    
C24   C176  S    
C167  H87   S    
O36   Zn8   S    
C9    C177  S    
C168  H88   S    
C102  O58   A    
C127  N7    A    
C45   C59   A    
C93   O49   A    
C41   C107  A    
C179  H27   S    
C24   C100  S    
C69   O29   S    
C7    O7    A    
C1    C10   S    
C16   C168  S    
C177  H25   S    
C83   C157  A    
C91   O37   A    
C68   O28   S    
O55   Zn9   S    
C39   H23   S    
C187  H131  S    
O72   C200  S    
C182  H110  S    
C179  H107  S    
C17   C25   S    
C80   C88   A    
C19   C35   S    
C3    O3    A    
C27   H35   S    
C25   H33   S    
C55   H63   S    
C169  H89   S    
C64   H48   S    
C74   H50   S    
C129  C137  A    
C97   O45   A    
C46   N6    S    
O8    Zn2   S    
C99   O47   A    
C168  C176  S    
C111  H71   S    
C132  C138  A    
C32   H40   S    
C22   C98   S    
C186  H122  S    
C194  H140  S    
C89   O35   A    
C99   O55   A    
C128  O24   S    
C121  O17   S    
C196  H146  S    
O58   Zn6   S    
C51   C155  A    
C105  C113  A    
C124  O20   S    
C128  C134  A    
C198  H153  S    
C70   N4    A    
C104  O62   A    
C174  H94   S    
C81   C153  A    
C111  C119  A    
C57   C73   A    
C65   C153  A    
C34   H18   S    
O3    Zn1   S    
C61   C77   A    
C69   C157  A    
C131  C147  A    
C14   C166  S    
C50   H58   S    
C121  N5    A    
C161  C169  S    
C20   C96   S    
C46   C58   A    
C54   H62   S    
C67   O27   S    
C43   C111  A    
C2    C11   S    
C126  O22   S    
O45   Zn9   S    
C91   C143  S    
C180  H28   S    
C122  O18   S    
C98   O46   A    
O5    Zn2   S    
C84   C158  A    
C172  H100  S    
C38   C190  S    
C173  H101  S    
C32   H120  S    
C15   C183  S    
C199  H155  S    
C4    O12   A    
C79   H55   S    
C169  H97   S    
C18   C34   S    
C48   C62   A    
C47   N7    S    
C72   N4    A    
C183  H111  S    
C40   H24   S    
C11   C163  S    
C73   H49   S    
C9    C161  S    
C52   H60   S    
C73   C85   A    
C195  H143  S    
C12   C180  S    
C93   O41   A    
C13   C181  S    
C56   H64   S    
C164  C172  S    
C17   C93   S    
O34   Zn6   S    
O2    Zn1   S    
C163  C171  S    
O68   C196  S    
C58   C74   A    
C167  C175  S    
C196  H148  S    
C2    O10   A    
O60   Zn8   S    
O39   Zn11  S    
C128  N8    A    
O53   Zn11  S    
C37   H13   S    
C62   C78   A    
O15   Zn4   S    
C71   O31   S    
C104  O64   A    
C81   C155  A    
C96   O52   A    
C26   H114  S    
C29   H37   S    
C162  H82   S    
C34   H10   S    
C10   C186  S    
C113  C141  A    
C118  O70   S    
C43   N3    S    
C36   H20   S    
C123  O19   S    
C21   C97   S    
C96   O44   A    
C14   C190  S    
C77   C87   A    
C183  H31   S    
C200  H158  S    
O35   Zn7   S    
C29   H117  S    
C101  O57   A    
C43   C109  A    
C4    C9    S    
C85   C102  S    
C177  H105  S    
O65   C193  S    
O7    Zn2   S    
O52   Zn6   S    
C23   C99   S    
C18   C26   S    
O11   Zn3   S    
C197  H149  S    
C84   C160  A    
C109  C117  A    
C163  H83   S    
O4    Zn1   S    
C164  H76   S    
C17   C33   S    
C199  H157  S    
C94   O42   A    
C170  H90   S    
C27   C179  S    
C47   C63   A    
C25   C177  S    
C48   C64   A    
C23   C175  S    
C115  O67   S    
C188  H132  S    
C67   C155  A    
O70   C198  S    
C83   C159  A    
C136  C152  A    
C75   C85   A    
C195  H145  S    
C103  O63   A    
C5    O13   A    
C80   H56   S    
C187  H123  S    
C7    O15   A    
C98   O54   A    
C145  H1    S    
C54   C146  A    
C49   H57   S    
C48   N8    S    
C55   C159  A    
C51   C151  A    
O12   Zn3   S    
C71   N3    A    
C64   C80   A    
C53   H61   S    
C37   H21   S    
C32   C184  S    
C182  H30   S    
C66   C154  A    
C41   N1    S    
C162  H74   S    
C70   C158  A    
O64   Zn12  S    
C198  H152  S    
C72   O32   S    
O10   Zn3   S    
C131  C137  A    
C12   C164  S    
C13   C165  S    
C162  C170  S    
C52   C152  A    
C200  H160  S    
C53   C145  A    
C101  O59   A    
O62   Zn10  S    
C4    O4    A    
C5    C14   S    
C90   C142  S    
O46   Zn10  S    
C7    C16   S    
C130  C138  A    
O50   Zn8   S    
C193  H137  S    
O51   Zn5   S    
C68   N2    A    
C76   C86   A    
C83   C137  A    
C78   C88   A    
C44   N4    S    
C92   O38   A    
C24   C40   S    
C105  H65   S    
C174  H102  S    
C163  H75   S    
C185  H121  S    
C178  H26   S    
C127  C133  A    
C165  H85   S    
C6    O14   A    
C47   C61   A    
C59   H43   S    
C170  H98   S    
C90   O36   A    
C9    C185  S    
C62   H46   S    
C108  C116  A    
C61   H45   S    
C188  H124  S    
C189  H125  S    
C33   H9    S    
C30   H38   S    
C26   H34   S    
C191  H127  S    
C103  O61   A    
C27   H115  S    
C65   N1    A    
C89   O33   A    
C194  H141  S    
O48   Zn12  S    
C87   C104  S    
C20   C36   S    
C21   C37   S    
C35   C187  S    
C189  H133  S    
C33   C185  S    
C150  H6    S    
C116  O68   S    
O59   Zn7   S    
C185  H129  S    
C8    O8    A    
C134  C150  A    
C37   C189  S    
C23   C39   S    
C175  H103  S    
C176  H104  S    
C35   H11   S    
C31   H119  S    
C15   C191  S    
C63   C79   A    
C21   C173  S    
C29   C181  S    
C106  C114  A    
C11   C187  S    
O42   Zn6   S    
C107  H67   S    
C117  C143  A    
C19   C171  S    
O49   Zn7   S    
C118  C144  A    
C124  N6    A    
C168  H80   S    
C134  C140  A    
C17   C169  S    
C165  C173  S    
C12   C188  S    
C13   C189  S    
C199  H156  S    
C95   O43   A    
C35   H19   S    
C3    C12   S    
C16   C192  S    
C78   H54   S    
C6    C15   S    
C100  O48   A    
O63   Zn11  S    
C148  H4    S    
O54   Zn12  S    
O41   Zn5   S    
C8    O16   A    
O56   Zn10  S    
C1    O9    A    
C147  H3    S    
C51   H59   S    
C122  N6    A    
C66   O26   S    
C82   C156  A    
C195  H144  S    
C92   O40   A    
C84   C138  A    
C123  C129  A    
C166  H78   S    
C33   H17   S    
C121  C131  A    
C171  H91   S    
C122  C132  A    
C22   C174  S    
C125  O21   S    
C90   O34   A    
O14   Zn4   S    
O16   Zn4   S    
C119  O71   S    
C110  H70   S    
C196  H147  S    
C10   C178  S    
C151  H7    S    
C133  C149  A    
C190  H134  S    
C198  H154  S    
C161  H73   S    
O67   C195  S    
C45   N5    S    
C113  O65   S    
C186  H130  S    
C100  O56   A    
C39   H15   S    
C82   C154  A    
C56   C148  A    
C117  O69   S    
C54   C158  A    
C28   C180  S    
C50   C150  A    
C55   C147  A    
C97   O53   A    
C180  H108  S    
C165  H77   S    
C181  H109  S    
C178  H106  S    
C94   O50   A    
C74   C86   A    
C110  C118  A    
C30   H118  S    
C107  C115  A    
C42   C106  A    
C184  H112  S    
C18   C94   S    
C19   C95   S    
C108  H68   S    
C1    O1    A    
C66   N2    A    
C59   C75   A    
C88   C103  S    
C19   C27   S    
C3    O11   A    
O66   C194  S    
C114  C142  A    
C38   H14   S    
C31   C183  S    
C132  C148  A    
C125  N7    A    
C68   C156  A    
C197  H150  S    
C67   N1    A    
C52   C156  A    
C71   C159  A    
C26   C178  S    
C53   C157  A    
C72   C160  A    
C49   C149  A    
C5    O5    A    
C76   H52   S    
O71   C199  S    
C56   C160  A    
C22   C30   S    
O37   Zn9   S    
O61   Zn9   S    
C42   C108  A    
C50   C154  A    
C89   C141  S    
C65   O25   S    
C192  H128  S    
C191  H135  S    
O38   Zn10  S    
C77   H53   S    
C92   C144  S    
C42   N2    S    
C197  H151  S    
C75   H51   S    
C172  H92   S    
C167  H79   S    
C173  H93   S    
C57   H41   S    
O69   C197  S    
C149  H5    S    
C106  H66   S    
C36   H12   S    
C86   C101  S    
C109  H69   S    
C166  H86   S    
C171  H99   S    
C44   C110  A    
