data_mof_unit_24873.cif
_audit_creation_date              2012-12-10T18:47:40-0500
_audit_creation_method            fapswitch 2.2
_symmetry_space_group_name_H-M    P1
_symmetry_Int_Tables_number       1
_space_group_crystal_system       triclinic
_cell_length_a                    9.948657
_cell_length_b                    10.647001
_cell_length_c                    15.423253
_cell_angle_alpha                 89.867436
_cell_angle_beta                  68.599526
_cell_angle_gamma                 88.732094
_cell_volume                      1520.64340763

loop_
_atom_site_label
_atom_site_type_symbol
_atom_type_description
_atom_site_fract_x
_atom_site_fract_y
_atom_site_fract_z
_atom_type_partial_charge
C1    C     C_R   0.502180 0.739466 0.495575 0.965504
C2    C     C_R   0.498347 0.260809 0.504638 0.961386
C3    C     C_R   0.308374 0.513349 0.113248 -0.220871
C4    C     C_R   0.591822 0.343005 0.924078 -0.174088
C5    C     C_R   0.210608 0.547479 0.070473 0.356869
C6    C     C_R   0.684221 0.300787 0.968276 0.419120
C7    C     C_R   0.621444 0.938704 0.433232 0.408880
C8    C     C_R   0.387252 0.062277 0.572136 0.463607
C9    C     C_R   0.615829 0.067557 0.439147 -0.353517
C10   C     C_R   0.390451 0.933287 0.564613 -0.328898
C11   C     C_R   0.499504 0.128335 0.506496 -0.188451
C12   C     C_R   0.503724 0.872317 0.494741 -0.189904
C13   C     C_R   0.962107 0.412663 0.448297 0.195226
C14   C     C_R   0.039260 0.589334 0.549073 0.229030
C15   C     C_R   0.103217 0.411534 0.451716 -0.034187
C16   C     C_R   0.898123 0.589599 0.546522 0.060179
C17   C     C_R   0.409907 0.506324 0.676116 0.953291
C18   C     C_R   0.589453 0.497377 0.324449 0.935626
C19   C     C_R   0.353874 0.515362 0.778624 -0.187591
C20   C     C_R   0.638960 0.467214 0.225670 -0.082516
C21   C     C_R   0.154905 0.549123 0.926167 -0.063498
C22   C     C_R   0.757907 0.315037 0.104248 -0.072433
C23   C     C_R   0.205452 0.535595 0.829175 -0.220890
C24   C     C_R   0.736715 0.366657 0.191080 -0.238027
C25   C     C_R   0.448023 0.503186 0.827928 0.411136
C26   C     C_R   0.559653 0.514781 0.173739 0.359629
C27   C     C_R   0.388919 0.477058 0.923029 -0.038895
C28   C     C_R   0.554909 0.442555 0.098448 -0.057255
C29   C     C_R   0.248417 0.523591 0.974368 -0.012762
C30   C     C_R   0.667126 0.351603 0.056446 -0.054257
C31   C     C_R   0.475490 0.426173 0.969126 0.043071
C32   C     C_R   0.445605 0.460945 0.061447 0.086851
H1    H     H_    0.795546 0.327260 0.231683 0.168292
H2    H     H_    0.130349 0.548742 0.793600 0.190893
H3    H     H_    0.042892 0.576059 0.962577 0.215669
H4    H     H_    0.840006 0.242059 0.078136 0.224768
H5    H     H_    0.277900 0.529175 0.187069 0.195986
H6    H     H_    0.607610 0.308440 0.855056 0.222770
H7    H     H_    0.702680 0.121318 0.391096 0.178444
H8    H     H_    0.309176 0.878910 0.616123 0.195829
H9    H     H_    0.182386 0.340077 0.415293 0.152006
H10   H     H_    0.819998 0.661242 0.583068 0.199388
N1    N     N_R   0.142780 0.500030 0.500020 -0.107924
N2    N     N_R   0.857220 0.499970 0.499980 -0.121481
O1    O     O_R   0.385370 0.683250 0.500010 -0.627468
O2    O     O_R   0.614630 0.316750 0.499990 -0.651961
O3    O     O_R   0.614700 0.683220 0.500000 -0.575592
O4    O     O_R   0.385300 0.316780 0.500000 -0.590213
O5    O     O_R   0.319830 0.500020 0.632250 -0.621203
O6    O     O_R   0.680170 0.499980 0.367750 -0.604526
O7    O     O_R   0.549160 0.499990 0.632240 -0.538465
O8    O     O_R   0.450840 0.500010 0.367760 -0.611382
Zn1   Zn    Zn3+2 0.346870 0.500020 0.500000 1.017459
Zn2   Zn    Zn3+2 0.653130 0.499980 0.500000 1.045901
S1    S     S_3+6 0.062202 0.646512 0.133235 0.090524
O9    O     O_2   0.066711 0.764609 0.078794 -0.173714
O10   O     O_2   0.923997 0.581675 0.146711 -0.310187
O11   O     O_3   0.068601 0.685740 0.237297 -0.430251
H11   H     H_    0.016093 0.619368 0.280731 0.369945
S2    S     S_3+6 0.824628 0.192042 0.908053 0.074692
O12   O     O_2   0.967917 0.248121 0.895163 -0.279323
O13   O     O_2   0.807131 0.073994 0.964449 -0.252860
O14   O     O_3   0.819355 0.156878 0.803017 -0.498736
H12   H     H_    0.877323 0.078060 0.783449 0.415565
S3    S     S_3+6 0.501296 0.676206 0.188934 0.074269
O15   O     O_2   0.363754 0.690936 0.272427 -0.302055
O16   O     O_2   0.615354 0.753247 0.203927 -0.187084
O17   O     O_3   0.475432 0.731973 0.093872 -0.481283
H13   H     H_    0.423071 0.813362 0.113767 0.407077
S4    S     S_3+6 0.621313 0.573568 0.786225 0.020411
O18   O     O_2   0.732731 0.479798 0.728144 -0.322892
O19   O     O_2   0.616089 0.686929 0.729207 -0.316308
O20   O     O_3   0.667912 0.621138 0.875237 -0.493448
H14   H     H_    0.770536 0.644358 0.846231 0.379953
S5    S     S_3+6 0.781802 0.868896 0.352814 0.104518
O21   O     O_2   0.754470 0.743082 0.320251 -0.189913
O22   O     O_2   0.844750 0.952195 0.269514 -0.232139
O23   O     O_3   0.902012 0.850484 0.405409 -0.535554
H15   H     H_    0.925974 0.936984 0.417338 0.347690
S6    S     S_3+6 0.252134 0.135759 0.668936 0.055519
O24   O     O_2   0.149012 0.210519 0.637042 -0.259063
O25   O     O_2   0.169808 0.038905 0.737864 -0.283278
O26   O     O_3   0.331933 0.231929 0.720792 -0.574095
H16   H     H_    0.256918 0.252109 0.782300 0.405933
C33   C     C_3   0.932348 0.313621 0.387755 -0.395579
C34   C     C_3   0.042631 0.309761 0.287738 -0.903337
H17   H     H_    0.044535 0.401803 0.253804 0.265495
H18   H     H_    0.152716 0.283938 0.284829 0.260454
H19   H     H_    0.011354 0.237499 0.247265 0.282591
H20   H     H_    0.930643 0.219985 0.420064 0.214081
H21   H     H_    0.828343 0.330998 0.380976 0.257772
C35   C     C_3   0.065129 0.686314 0.611982 -0.405806
C36   C     C_3   0.062360 0.819252 0.574711 -0.781382
H22   H     H_    0.151785 0.830253 0.506495 0.291681
H23   H     H_    0.958200 0.840785 0.566386 0.266533
H24   H     H_    0.073256 0.888692 0.625033 0.273077
H25   H     H_    0.978392 0.680221 0.681964 0.213342
H26   H     H_    0.166143 0.669040 0.623647 0.248608

loop_
_geom_bond_atom_site_label_1
_geom_bond_atom_site_label_2
_ccdc_geom_bond_type
S1    O9    D    
C36   H22   S    
C27   C29   A    
O20   H14   S    
C17   O7    A    
C33   H21   S    
C18   O8    A    
C33   C34   S    
C2    O2    A    
O6    Zn2   S    
S2    O14   S    
C22   C24   A    
S2    O13   D    
C34   H18   S    
C9    H7    S    
C10   H8    S    
C20   C24   A    
N1    Zn1   S    
C31   C32   A    
O17   H13   S    
S3    O16   D    
S4    O18   D    
C16   N2    A    
S3    O17   S    
O1    Zn1   S    
C36   H23   S    
C7    C12   A    
C1    C12   S    
S6    O26   S    
C2    C11   S    
C35   H25   S    
C5    C29   A    
O4    Zn1   S    
C27   C31   A    
C6    S2    S    
C28   C32   A    
C15   H9    S    
S6    O25   D    
C17   O5    A    
C34   H17   S    
C1    O3    A    
C7    S5    S    
C2    O4    A    
O11   H11   S    
C21   C29   A    
S2    O12   D    
C19   C23   A    
S5    O21   D    
C9    C11   A    
O26   H16   S    
C23   H2    S    
O2    Zn2   S    
S4    O20   S    
S1    O10   D    
S5    O22   D    
C14   C35   S    
C10   C12   A    
O3    Zn2   S    
C4    C6    A    
C6    C30   A    
C4    H6    S    
C36   H24   S    
C13   C15   A    
C14   C16   A    
C16   H10   S    
O8    Zn1   S    
C18   O6    A    
C7    C9    A    
C22   C30   A    
O23   H15   S    
C26   S3    S    
C5    S1    S    
S6    O24   D    
C3    C5    A    
C34   H19   S    
C33   H20   S    
C21   H3    S    
C25   C27   A    
C22   H4    S    
C26   C28   A    
C24   H1    S    
O7    Zn2   S    
C21   C23   A    
C15   N1    A    
C1    O1    A    
C20   C26   A    
C8    C11   A    
O5    Zn1   S    
C28   C30   A    
C35   C36   S    
C17   C19   S    
C18   C20   S    
C3    C32   A    
C19   C25   A    
S5    O23   S    
C4    C31   A    
C35   H26   S    
O14   H12   S    
N2    Zn2   S    
C3    H5    S    
C8    C10   A    
S3    O15   D    
S1    O11   S    
C13   C33   S    
C8    S6    S    
S4    O19   D    
C25   S4    S    
C13   N2    A    
C14   N1    A    
