data_mof_unit_56653.cif
_audit_creation_date              2012-12-10T17:18:15-0500
_audit_creation_method            fapswitch 2.2
_symmetry_space_group_name_H-M    P1
_symmetry_Int_Tables_number       1
_space_group_crystal_system       triclinic
_cell_length_a                    10.123534
_cell_length_b                    10.828766
_cell_length_c                    14.929381
_cell_angle_alpha                 89.838853
_cell_angle_beta                  81.894777
_cell_angle_gamma                 95.283429
_cell_volume                      1613.19924593

loop_
_atom_site_label
_atom_site_type_symbol
_atom_type_description
_atom_site_fract_x
_atom_site_fract_y
_atom_site_fract_z
_atom_type_partial_charge
C1    C     C_R   0.556049 0.732537 0.491675 0.940362
C2    C     C_2   0.072748 0.489988 0.492787 -0.126259
C3    C     C_R   0.501862 0.502533 0.672648 0.902225
C4    C     C_R   0.498139 0.497493 0.327339 0.895273
C5    C     C_R   0.412901 0.404705 0.193952 0.137840
C6    C     C_R   0.587211 0.595485 0.805954 0.137812
C7    C     C_R   0.495048 0.495792 0.232278 -0.113207
C8    C     C_R   0.504849 0.504500 0.767705 -0.114804
C9    C     C_R   0.578950 0.585362 0.179805 -0.293197
C10   C     C_R   0.420211 0.415563 0.820269 -0.293280
C11   C     C_R   0.581276 0.587942 0.087146 0.127757
C12   C     C_R   0.443825 0.267449 0.503901 0.943684
C13   C     C_R   0.417603 0.413270 0.912932 0.128258
C14   C     C_R   0.498326 0.499101 0.046895 0.023555
C15   C     C_R   0.500600 0.502099 0.953160 0.023776
C16   C     C_R   0.413563 0.407087 0.100235 0.092320
C17   C     C_R   0.585705 0.593837 0.899763 0.091578
C18   C     C_R   0.665279 0.678209 0.034416 -0.220950
C19   C     C_R   0.333378 0.323182 0.965664 -0.221069
C20   C     C_3   0.403305 0.199601 0.259480 -0.798532
C21   C     C_3   0.599652 0.798752 0.736726 -0.799172
C22   C     C_R   0.667732 0.681181 0.941314 -0.200892
C23   C     C_R   0.331174 0.320026 0.058720 -0.201705
C24   C     C_2   0.587651 0.864434 0.479793 -0.382279
C25   C     C_2   0.411775 0.135568 0.498744 -0.384931
C26   C     C_2   0.486969 0.934056 0.475077 -0.146421
C27   C     C_2   0.511733 0.066009 0.472678 -0.156603
C28   C     C_2   0.927278 0.510072 0.507160 -0.124452
H1    H     H_    0.641921 0.653580 0.211696 0.153831
H2    H     H_    0.891220 0.577727 0.555944 0.155324
H3    H     H_    0.119994 0.614679 0.582938 0.163779
H4    H     H_    0.879983 0.385268 0.417098 0.162453
H5    H     H_    0.283170 0.336954 0.308089 0.238462
H6    H     H_    0.489638 0.223026 0.296739 0.242253
H7    H     H_    0.439806 0.161269 0.192528 0.252619
H8    H     H_    0.333392 0.127328 0.298567 0.243326
H9    H     H_    0.720917 0.660037 0.692901 0.238595
H10   H     H_    0.515581 0.774285 0.697627 0.241799
H11   H     H_    0.671166 0.870094 0.697913 0.240157
H12   H     H_    0.357067 0.347440 0.788426 0.153527
H13   H     H_    0.560248 0.838744 0.802496 0.253177
H14   H     H_    0.734382 0.751855 0.902258 0.179767
H15   H     H_    0.264480 0.249372 0.097764 0.179746
H16   H     H_    0.729254 0.746467 0.065225 0.148733
H17   H     H_    0.269254 0.255036 0.934874 0.148697
H18   H     H_    0.614835 0.105751 0.454650 0.189424
H19   H     H_    0.383559 0.894337 0.478811 0.189599
H20   H     H_    0.308934 0.095370 0.516698 0.151558
H21   H     H_    0.690761 0.904636 0.476257 0.150576
H22   H     H_    0.108829 0.422383 0.443965 0.155952
N1    N     N_2   0.842700 0.448880 0.462930 -0.195653
N2    N     N_2   0.157300 0.551120 0.537070 -0.196082
N3    N     N_2   0.334185 0.308495 0.248266 -0.328159
N4    N     N_2   0.667773 0.690322 0.751353 -0.327490
O1    O     O_R   0.431060 0.692470 0.507460 -0.613614
O2    O     O_R   0.568940 0.307530 0.492540 -0.612541
O3    O     O_R   0.651120 0.659650 0.483670 -0.615544
O4    O     O_R   0.348880 0.340350 0.516330 -0.616356
O5    O     O_R   0.389960 0.516440 0.644050 -0.607583
O6    O     O_R   0.610040 0.483560 0.355950 -0.610058
O7    O     O_R   0.610030 0.483620 0.620260 -0.624560
O8    O     O_R   0.389970 0.516380 0.379740 -0.627466
Zn1   Zn    Zn3+2 0.353060 0.521920 0.515880 0.937318
Zn2   Zn    Zn3+2 0.646940 0.478080 0.484120 0.937750

loop_
_geom_bond_atom_site_label_1
_geom_bond_atom_site_label_2
_ccdc_geom_bond_type
O7    Zn2   S    
C19   C23   A    
O2    Zn2   S    
C11   C18   A    
O8    Zn1   S    
C1    O3    A    
C25   C27   D    
C5    C7    A    
H3    N2    S    
O5    Zn1   S    
C17   C22   A    
C21   H11   S    
C9    H1    S    
C12   C25   S    
O6    Zn2   S    
C12   O4    A    
C4    O6    A    
C19   H17   S    
C1    O1    A    
C20   H6    S    
H4    N1    S    
C22   H14   S    
C1    C24   S    
C9    C11   A    
C25   H20   S    
C26   C27   S    
C12   O2    A    
C2    N2    D    
C26   H19   S    
C6    N4    S    
C4    C7    S    
C21   H13   S    
H9    N4    S    
C6    C8    A    
C27   H18   S    
C28   H2    S    
C28   N1    D    
N1    Zn2   S    
C24   C26   D    
C16   C23   A    
C18   H16   S    
C13   C15   A    
H5    N3    S    
C21   N4    S    
C11   C14   A    
C14   C16   A    
C13   C19   A    
C3    O7    A    
C20   H8    S    
C4    O8    A    
C24   H21   S    
C23   H15   S    
O3    Zn2   S    
C7    C9    A    
C3    C8    S    
C5    N3    S    
O4    Zn1   S    
C15   C17   A    
C6    C17   A    
C14   C15   A    
C10   H12   S    
C2    C28   S    
C2    H22   S    
C18   C22   A    
C20   H7    S    
C10   C13   A    
C8    C10   A    
C21   H10   S    
O1    Zn1   S    
C20   N3    S    
C5    C16   A    
N2    Zn1   S    
C3    O5    A    
