data_mof_unit_9282.cif
_audit_creation_date              2012-12-10T20:44:04-0500
_audit_creation_method            fapswitch 2.2
_symmetry_space_group_name_H-M    P1
_symmetry_Int_Tables_number       1
_space_group_crystal_system       triclinic
_cell_length_a                    17.464761
_cell_length_b                    10.690269
_cell_length_c                    9.926717
_cell_angle_alpha                 90.644421
_cell_angle_beta                  90.351994
_cell_angle_gamma                 91.864458
_cell_volume                      1852.2101458

loop_
_atom_site_label
_atom_site_type_symbol
_atom_type_description
_atom_site_fract_x
_atom_site_fract_y
_atom_site_fract_z
_atom_type_partial_charge
C1    C     C_R   0.501904 0.260505 0.499136 0.853906
C2    C     C_R   0.117612 0.563384 0.487676 0.160148
C3    C     C_R   0.545316 0.064613 0.593093 0.003914
C4    C     C_R   0.353969 0.503233 0.499405 0.853035
C5    C     C_R   0.505175 0.128518 0.494732 -0.097442
C6    C     C_R   0.464721 0.062915 0.392188 -0.203256
C7    C     C_R   0.457853 0.933945 0.396723 -0.222711
C8    C     C_R   0.491813 0.871463 0.503117 -0.038204
C9    C     C_R   0.533705 0.937398 0.601098 0.014673
C10   C     C_3   0.519734 0.944155 0.749272 0.275674
C11   C     C_3   0.545039 0.080701 0.743422 0.187631
C12   C     C_R   0.888829 0.551519 0.503378 -0.038201
C13   C     C_R   0.471546 0.399610 0.069475 0.023260
C14   C     C_R   0.541143 0.589361 0.074741 0.405328
C15   C     C_R   0.543212 0.586526 0.929134 0.359047
C16   C     C_R   0.495287 0.739200 0.500848 0.855952
C17   C     C_R   0.469990 0.400515 0.928941 -0.001663
C18   C     C_3   0.393126 0.333059 0.924880 0.351694
C19   C     C_3   0.395576 0.334854 0.079480 -0.542487
C20   C     C_R   0.646921 0.499886 0.499584 0.892935
C21   C     C_R   0.850924 0.516024 0.621977 0.530324
C22   C     C_R   0.772173 0.493000 0.616982 -0.402508
C23   C     C_1   0.969412 0.564544 0.499930 -0.000108
C24   C     C_R   0.730865 0.508032 0.497165 -0.227115
C25   C     C_R   0.770665 0.534338 0.376509 0.545386
C26   C     C_R   0.849174 0.561009 0.382217 -0.363955
C27   C     C_3   0.918297 0.606382 0.799241 0.105929
C28   C     C_3   0.921130 0.592650 0.951564 -0.860389
C29   C     C_3   0.428860 0.911006 0.914737 0.085858
C30   C     C_3   0.344910 0.928560 0.947118 -0.833222
C31   C     C_3   0.641908 0.220320 0.815928 0.097235
C32   C     C_3   0.727598 0.228637 0.844765 -0.810654
C33   C     C_3   0.565430 0.795414 0.135610 0.129403
C34   C     C_1   0.037320 0.568835 0.494609 -0.078580
C35   C     C_3   0.616559 0.881352 0.223587 -0.775187
C36   C     C_3   0.663356 0.646343 0.853391 0.175517
C37   C     C_3   0.713829 0.738400 0.935239 -0.886869
C38   C     C_3   0.263916 0.332751 0.883079 0.097428
C39   C     C_3   0.197663 0.403568 0.824813 -0.800477
C40   C     C_3   0.749642 0.435907 0.172514 0.095092
C41   C     C_3   0.695423 0.324521 0.201447 -0.822901
C42   C     C_R   0.163371 0.629669 0.581432 -0.189452
C43   C     C_R   0.241512 0.609793 0.585459 -0.186055
C44   C     C_R   0.272838 0.522947 0.496353 -0.018579
C45   C     C_R   0.227081 0.460942 0.398870 -0.218933
C46   C     C_R   0.149125 0.480664 0.395195 -0.158746
H1    H     H_    0.558360 0.884795 0.807286 0.156059
H2    H     H_    0.958742 0.514998 0.979104 0.260499
H3    H     H_    0.944090 0.680792 0.998951 0.212949
H4    H     H_    0.862705 0.572344 0.990596 0.248109
H5    H     H_    0.424352 0.883693 0.320295 0.142159
H6    H     H_    0.463683 0.979263 0.977339 0.110217
H7    H     H_    0.443195 0.813712 0.940894 0.150926
H8    H     H_    0.308442 0.860359 0.888269 0.263605
H9    H     H_    0.335170 0.913273 0.056246 0.200372
H10   H     H_    0.328538 0.025050 0.921782 0.236115
H11   H     H_    0.502769 0.145428 0.786306 0.108207
H12   H     H_    0.397012 0.238013 0.878948 0.059052
H13   H     H_    0.610916 0.258603 0.904020 0.131144
H14   H     H_    0.630511 0.276888 0.725182 0.174884
H15   H     H_    0.759780 0.207106 0.751625 0.262563
H16   H     H_    0.744743 0.323894 0.880791 0.200045
H17   H     H_    0.742824 0.160460 0.923301 0.259144
H18   H     H_    0.504842 0.804021 0.165777 0.119005
H19   H     H_    0.571405 0.829268 0.031604 0.151632
H20   H     H_    0.676060 0.883940 0.185020 0.241519
H21   H     H_    0.595023 0.977916 0.222222 0.207956
H22   H     H_    0.617676 0.847692 0.328776 0.262975
H23   H     H_    0.743280 0.464150 0.707442 0.177853
H24   H     H_    0.681100 0.659080 0.747501 0.185537
H25   H     H_    0.675368 0.548451 0.882481 0.097282
H26   H     H_    0.714200 0.712765 0.042857 0.305315
H27   H     H_    0.773644 0.735160 0.899461 0.211444
H28   H     H_    0.694362 0.835481 0.922926 0.271562
H29   H     H_    0.250323 0.313223 0.990378 0.131350
H30   H     H_    0.267135 0.242147 0.827028 0.131788
H31   H     H_    0.199544 0.398492 0.713457 0.261077
H32   H     H_    0.142465 0.359486 0.857362 0.205446
H33   H     H_    0.200372 0.502670 0.859824 0.261886
H34   H     H_    0.399522 0.239882 0.122588 0.154577
H35   H     H_    0.352822 0.395359 0.127956 0.221734
H36   H     H_    0.810226 0.407056 0.181301 0.124414
H37   H     H_    0.741337 0.462540 0.066165 0.152356
H38   H     H_    0.635506 0.348170 0.177359 0.267060
H39   H     H_    0.710963 0.242999 0.138653 0.207693
H40   H     H_    0.699668 0.297357 0.308740 0.238052
H41   H     H_    0.879488 0.585604 0.290683 0.169358
H42   H     H_    0.138436 0.693147 0.653526 0.133219
H43   H     H_    0.113167 0.429061 0.323009 0.134204
H44   H     H_    0.277180 0.660256 0.658924 0.171372
H45   H     H_    0.251365 0.395420 0.328217 0.138072
H46   H     H_    0.434923 0.111303 0.313375 0.152630
H47   H     H_    0.882561 0.688027 0.775516 0.117519
H48   H     H_    0.977554 0.626735 0.763889 0.157201
N1    N     N_R   0.499490 0.499140 0.142800 -0.147988
N2    N     N_R   0.499490 0.499180 0.857150 -0.142794
O1    O     O_R   0.500010 0.316790 0.614690 -0.649688
O2    O     O_3   0.440430 0.929137 0.775904 -0.603277
O3    O     O_3   0.620487 0.093629 0.795233 -0.633432
O4    O     O_3   0.588672 0.670824 0.148774 -0.539627
O5    O     O_3   0.585170 0.676372 0.860136 -0.638557
O6    O     O_3   0.333343 0.404518 0.872487 -0.556676
O7    O     O_3   0.732607 0.540935 0.254122 -0.576687
O8    O     O_R   0.500000 0.316760 0.385350 -0.619282
O9    O     O_R   0.389120 0.500020 0.614710 -0.556589
O10   O     O_R   0.389110 0.499990 0.385370 -0.629687
O11   O     O_R   0.500000 0.683240 0.614650 -0.564164
O12   O     O_R   0.499990 0.683210 0.385310 -0.600463
O13   O     O_R   0.610890 0.500010 0.614630 -0.654408
O14   O     O_R   0.610880 0.499980 0.385290 -0.516126
O15   O     O_3   0.889866 0.492756 0.740649 -0.609352
Zn1   Zn    Zn3+2 0.500010 0.500020 0.653130 0.989374
Zn2   Zn    Zn3+2 0.499990 0.499980 0.346870 0.988611

loop_
_geom_bond_atom_site_label_1
_geom_bond_atom_site_label_2
_ccdc_geom_bond_type
O12   Zn2   S    
C37   H28   S    
O11   Zn1   S    
C33   H19   S    
C7    C8    A    
C46   H43   S    
C38   H30   S    
C45   C46   A    
C2    C46   A    
C41   H40   S    
C30   H8    S    
C12   C23   S    
C29   H7    S    
C29   O2    S    
C13   N1    A    
C1    C5    S    
C39   H31   S    
C36   C37   S    
N1    Zn2   S    
C32   H15   S    
C38   C39   S    
C11   O3    S    
C18   C19   S    
C18   O6    S    
C31   H13   S    
C10   O2    S    
C16   O11   A    
C28   H4    S    
C18   H12   S    
C20   C24   S    
C26   H41   S    
C31   O3    S    
C9    C10   S    
C22   H23   S    
C36   H25   S    
C2    C34   S    
C27   O15   S    
C8    C16   S    
C21   C22   A    
C40   H37   S    
C21   O15   S    
C36   H24   S    
C38   H29   S    
C43   H44   S    
C13   C19   S    
O10   Zn2   S    
C39   H32   S    
C40   H36   S    
C24   C25   A    
O13   Zn1   S    
C1    O1    A    
C15   N2    A    
O1    Zn1   S    
C8    C9    A    
C4    C44   S    
C35   H20   S    
C25   C26   A    
C41   H38   S    
C30   H10   S    
C12   C21   A    
C20   O13   A    
C12   C26   A    
C36   O5    S    
C39   H33   S    
C31   H14   S    
C43   C44   A    
C29   C30   S    
C3    C9    A    
N2    Zn1   S    
C28   H3    S    
C31   C32   S    
O14   Zn2   S    
C35   H21   S    
C23   C34   T    
C17   C18   S    
C17   N2    A    
C15   O5    S    
C1    O8    A    
C20   O14   A    
C40   C41   S    
O9    Zn1   S    
C22   C24   A    
C27   H47   S    
C42   H42   S    
C42   C43   A    
C14   N1    A    
C27   C28   S    
C44   C45   A    
C30   H9    S    
C37   H27   S    
C28   H2    S    
C25   O7    S    
C32   H17   S    
C3    C5    A    
C14   O4    S    
C6    C7    A    
C41   H39   S    
C4    O9    A    
C13   C17   A    
C33   O4    S    
C7    H5    S    
C38   O6    S    
C11   H11   S    
C40   O7    S    
C5    C6    A    
C4    O10   A    
C35   H22   S    
C2    C42   A    
C33   H18   S    
C6    H46   S    
C33   C35   S    
C19   H34   S    
C45   H45   S    
C3    C11   S    
C10   C11   S    
C16   O12   A    
C32   H16   S    
O8    Zn2   S    
C37   H26   S    
C10   H1    S    
C14   C15   A    
C27   H48   S    
C19   H35   S    
C29   H6    S    
