data_mof_unit_17672.cif
_audit_creation_date              2012-12-11T15:29:53-0500
_audit_creation_method            fapswitch 2.2
_symmetry_space_group_name_H-M    P1
_symmetry_Int_Tables_number       1
_space_group_crystal_system       triclinic
_cell_length_a                    8.20743
_cell_length_b                    14.960806
_cell_length_c                    19.034746
_cell_angle_alpha                 96.704546
_cell_angle_beta                  94.427487
_cell_angle_gamma                 97.897259
_cell_volume                      2288.92272432

loop_
_atom_site_label
_atom_site_type_symbol
_atom_type_description
_atom_site_fract_x
_atom_site_fract_y
_atom_site_fract_z
_atom_type_partial_charge
Ba1   Ba    Ba6+2 0.161760 0.544680 0.467770 1.641979
Ba2   Ba    Ba6+2 0.648420 0.455310 0.532170 1.659445
C1    C     C_3   0.388968 0.813268 0.214839 0.258079
C2    C     C_R   0.093935 0.078367 0.544978 0.016376
C3    C     C_R   0.957216 0.890386 0.530366 -0.040051
C4    C     C_3   0.925516 0.791266 0.310580 0.354379
C5    C     C_R   0.107302 0.923816 0.571734 -0.053256
C6    C     C_R   0.175478 0.015372 0.577865 -0.119211
C7    C     C_R   0.890708 0.796060 0.520260 0.044909
C8    C     C_R   0.737355 0.768057 0.481405 -0.287115
C9    C     C_R   0.919639 0.204749 0.481424 0.069904
C10   C     C_R   0.852401 0.110643 0.472544 0.000444
C11   C     C_R   0.938254 0.047766 0.505779 0.060309
C12   C     C_3   0.419851 0.768342 0.281461 0.346259
C13   C     C_R   0.702395 0.077086 0.431252 -0.045595
C14   C     C_R   0.634115 0.985749 0.425647 -0.104873
C15   C     C_R   0.715111 0.922939 0.458770 -0.041597
C16   C     C_3   0.877465 0.866698 0.269754 -0.418384
C17   C     C_R   0.870497 0.953549 0.498078 -0.006743
C18   C     C_R   0.646290 0.830089 0.453048 -0.007258
C19   C     C_R   0.072701 0.232932 0.520755 -0.232433
C20   C     C_R   0.615756 0.538986 0.300316 -0.289899
C21   C     C_R   0.459741 0.491053 0.276534 0.079162
C22   C     C_R   0.404721 0.480292 0.203980 -0.115571
C23   C     C_3   0.557988 0.730809 0.638632 0.323754
C24   C     C_R   0.507377 0.515960 0.154627 0.002961
C25   C     C_R   0.667918 0.560550 0.179536 -0.106869
C26   C     C_R   0.722135 0.570518 0.251941 0.003232
C27   C     C_R   0.495238 0.574610 0.036189 -0.062926
C28   C     C_3   0.757569 0.345783 0.315709 0.312194
C29   C     C_R   0.440702 0.565676 0.963988 -0.091168
C30   C     C_R   0.341408 0.485688 0.930214 0.063436
C31   C     C_R   0.296175 0.415438 0.971221 -0.079663
C32   C     C_R   0.349187 0.424991 0.043891 -0.083879
C33   C     C_R   0.449582 0.504860 0.077350 0.067831
C34   C     C_3   0.589415 0.833492 0.657909 -0.409184
C35   C     C_R   0.129131 0.430131 0.824917 -0.141832
C36   C     C_R   0.079511 0.423193 0.752002 -0.011189
C37   C     C_R   0.341943 0.508047 0.733084 0.033169
C38   C     C_R   0.393170 0.514742 0.805508 -0.122121
C39   C     C_R   0.287769 0.475588 0.852528 -0.002632
C40   C     C_3   0.727936 0.321117 0.235482 -0.401835
C41   C     C_R   0.188466 0.459352 0.706363 -0.268482
C42   C     C_3   0.045712 0.651533 0.683808 0.312816
C43   C     C_3   0.076483 0.674975 0.764129 -0.404232
C44   C     C_3   0.259536 0.266951 0.371364 0.323066
C45   C     C_3   0.905021 0.204618 0.698134 0.795466
C46   C     C_3   0.230648 0.165043 0.345347 0.206575
C47   C     C_3   0.199610 0.022079 0.379860 0.139357
C48   C     C_3   0.429636 0.812160 0.096782 0.143756
C49   C     C_3   0.707244 0.071954 0.672188 0.231882
C50   C     C_3   0.996595 0.162734 0.756687 -0.412148
C51   C     C_3   0.398858 0.263172 0.721571 0.383838
C52   C     C_3   0.431599 0.240204 0.796713 -0.379384
C53   C     C_R   0.163774 0.171001 0.549560 0.032276
H1    H     H_    0.355800 0.696909 0.272795 0.072926
H2    H     H_    0.253120 0.810232 0.202973 0.069441
H3    H     H_    0.103904 0.147359 0.317164 0.013406
H4    H     H_    0.322821 0.150014 0.307227 0.049836
H5    H     H_    0.554614 0.768879 0.291801 -0.064759
H6    H     H_    0.466511 0.714657 0.591155 0.068885
H7    H     H_    0.683610 0.852366 0.704287 0.118282
H8    H     H_    0.635117 0.866002 0.612279 0.055033
H9    H     H_    0.473112 0.858893 0.671187 0.113107
H10   H     H_    0.447586 0.885874 0.226282 0.004926
H11   H     H_    0.788063 0.837299 0.223341 0.152496
H12   H     H_    0.704465 0.381344 0.209837 0.060693
H13   H     H_    0.003389 0.240681 0.670458 -0.090177
H14   H     H_    0.909425 0.126856 0.789486 0.086884
H15   H     H_    0.074598 0.114531 0.732668 0.088246
H16   H     H_    0.076086 0.217706 0.793002 0.065905
H17   H     H_    0.269072 0.274792 0.713338 -0.098681
H18   H     H_    0.480546 0.326831 0.716339 0.107323
H19   H     H_    0.564281 0.235397 0.808548 0.145802
H20   H     H_    0.019800 0.821025 0.355199 0.066364
H21   H     H_    0.357803 0.174087 0.802791 0.105515
H22   H     H_    0.292800 0.035970 0.609206 0.086360
H23   H     H_    0.838390 0.296206 0.214522 0.123203
H24   H     H_    0.518620 0.964766 0.393417 0.096411
H25   H     H_    0.634821 0.120556 0.402561 0.114948
H26   H     H_    0.684016 0.697076 0.476329 0.071600
H27   H     H_    0.125869 0.303923 0.525807 0.049171
H28   H     H_    0.514306 0.551373 0.824857 0.074905
H29   H     H_    0.475348 0.622221 0.934876 0.054172
H30   H     H_    0.572210 0.636848 0.060067 0.095283
H31   H     H_    0.813801 0.760759 0.333559 -0.058981
H32   H     H_    0.222298 0.352269 0.946900 0.058108
H33   H     H_    0.314391 0.368903 0.073454 0.055544
H34   H     H_    0.154754 0.626300 0.662826 0.005633
H35   H     H_    0.042511 0.402990 0.859935 0.067305
H36   H     H_    0.149324 0.455013 0.650306 0.060451
H37   H     H_    0.658934 0.545978 0.356127 0.069283
H38   H     H_    0.988670 0.903661 0.250516 0.104625
H39   H     H_    0.644634 0.366909 0.336139 0.001553
H40   H     H_    0.861730 0.402607 0.327996 0.065819
H41   H     H_    0.619248 0.267094 0.221772 0.117296
H42   H     H_    0.936822 0.597799 0.671336 0.073586
H43   H     H_    0.261501 0.997816 0.332730 0.037866
H44   H     H_    0.063395 0.008175 0.368039 0.025114
H45   H     H_    0.191910 0.724136 0.778212 0.126732
H46   H     H_    0.232810 0.982706 0.423280 0.114235
H47   H     H_    0.487284 0.884866 0.106032 0.022520
H48   H     H_    0.295246 0.806356 0.080106 0.037206
H49   H     H_    0.487831 0.778884 0.052150 0.061219
H50   H     H_    0.675908 0.707331 0.625740 0.012351
H51   H     H_    0.646386 0.099709 0.718403 0.073289
H52   H     H_    0.777989 0.017853 0.687219 -0.008085
H53   H     H_    0.609071 0.040087 0.629870 0.080703
H54   H     H_    0.397378 0.294141 0.835536 0.073987
H55   H     H_    0.175431 0.879838 0.599632 0.107859
H56   H     H_    0.088440 0.612977 0.789471 0.068528
H57   H     H_    0.282787 0.443472 0.186295 0.081919
H58   H     H_    0.752783 0.584812 0.142767 0.069188
H59   H     H_    0.818765 0.915182 0.304629 0.067021
H60   H     H_    0.971310 0.705593 0.785129 0.122576
H61   H     H_    0.145256 0.287680 0.391081 -0.041226
H62   H     H_    0.360676 0.282101 0.414873 0.084870
O1    O     O_2   0.165020 0.721890 0.541560 -0.457784
O2    O     O_2   0.741829 0.431897 0.747720 -0.501798
O3    O     O_3   0.801676 0.263432 0.729091 -0.614364
O4    O     O_3   0.893030 0.608480 0.539180 -0.495844
O5    O     O_3   0.426670 0.454500 0.415370 -0.493109
O6    O     O_2   0.638230 0.542350 0.670940 -0.461752
O7    O     O_3   0.497970 0.690756 0.696500 -0.644102
O8    O     O_2   0.504003 0.172684 0.541022 -0.427451
O9    O     O_3   0.430507 0.191393 0.672568 -0.612501
O10   O     O_3   0.389120 0.667500 0.413900 -0.475273
O11   O     O_2   0.316218 0.825631 0.470792 -0.485120
O12   O     O_3   0.300953 0.312407 0.313708 -0.679837
O13   O     O_3   0.018143 0.730247 0.654732 -0.643396
O14   O     O_3   0.356974 0.817990 0.337643 -0.648667
O15   O     O_2   0.172060 0.457600 0.329040 -0.457040
O16   O     O_3   0.964390 0.622060 0.377370 -0.479854
O17   O     O_2   0.060962 0.562868 0.251330 -0.483324
O18   O     O_3   0.250600 0.115363 0.403108 -0.677420
O19   O     O_3   0.457169 0.768167 0.157373 -0.663433
O20   O     O_3   0.812356 0.139318 0.644509 -0.642304
O21   O     O_3   0.993036 0.728768 0.264326 -0.591951
O22   O     O_2   0.645270 0.278050 0.458420 -0.467133
O23   O     O_3   0.917270 0.391510 0.460760 -0.495795
O24   O     O_3   0.421180 0.332490 0.586040 -0.489553
O25   O     O_3   0.794439 0.268948 0.345268 -0.649070
O26   O     O_3   0.383630 0.545490 0.584580 -0.479915
O27   O     O_3   0.845910 0.377930 0.622570 -0.461729
P1    P     P_3+3 0.990700 0.707490 0.561920 0.974509
P2    P     P_3+3 0.340130 0.430100 0.338870 0.978005
P3    P     P_3+3 0.935474 0.618811 0.285197 0.968641
P4    P     P_3+3 0.819590 0.292500 0.438020 0.980666
P5    P     P_3+3 0.867752 0.375737 0.714455 0.951519
P6    P     P_3+3 0.429710 0.785865 0.418295 0.930983
P7    P     P_3+3 0.463218 0.572529 0.673568 0.939721
P8    P     P_3+3 0.379202 0.215351 0.586468 0.992552

loop_
_geom_bond_atom_site_label_1
_geom_bond_atom_site_label_2
_ccdc_geom_bond_type
O2    P5    D    
C12   H1    S    
C48   H49   S    
Ba2   O27   S    
C46   O18   S    
Ba1   P1    S    
C22   H57   S    
C2    C6    A    
Ba1   O15   S    
O23   P4    S    
C44   O12   S    
C23   H50   S    
C53   P8    S    
Ba2   O6    S    
O17   P3    D    
O3    P5    S    
C28   H40   S    
C35   H35   S    
C40   H41   S    
Ba2   O22   S    
C35   C36   A    
C22   C24   A    
C1    O19   S    
O10   P6    S    
C47   H46   S    
Ba1   O16   S    
C9    P4    S    
Ba2   P4    S    
C13   C14   A    
C37   P7    S    
C15   C18   A    
C32   C33   A    
C2    C11   A    
Ba1   O5    S    
C50   H14   S    
C47   H43   S    
C52   H19   S    
O9    P8    S    
C29   C30   A    
C8    C18   A    
C49   H53   S    
C21   C22   A    
O16   P3    S    
C34   H8    S    
C7    C8    A    
C36   P5    S    
C27   H30   S    
C28   H39   S    
C49   O20   S    
O26   P7    S    
C47   O18   S    
C48   H48   S    
C20   C26   A    
O13   P1    S    
Ba2   O26   S    
C38   H28   S    
C16   H59   S    
Ba1   P2    S    
C1    H10   S    
C34   H7    S    
C44   C46   S    
C12   O14   S    
Ba2   O5    S    
C4    C16   S    
C21   P2    S    
O6    P7    D    
O22   P4    D    
C11   C17   A    
O25   P4    S    
C5    C6    A    
C37   C38   A    
C19   C53   A    
C14   C15   A    
C32   H33   S    
C51   C52   S    
C9    C19   A    
C41   H36   S    
C29   H29   S    
C44   H62   S    
C4    O21   S    
C3    C7    A    
O27   P5    S    
Ba1   O26   S    
O8    P8    D    
C47   H44   S    
C42   H42   S    
C43   H60   S    
C13   H25   S    
C10   C13   A    
O21   P3    S    
C30   C39   S    
C45   O20   S    
C31   C32   A    
C24   C25   A    
C23   H6    S    
C19   H27   S    
C46   H3    S    
C1    C12   S    
O12   P2    S    
Ba1   O23   S    
C52   H21   S    
C25   H58   S    
O11   P6    D    
C45   O3    S    
O7    P7    S    
C48   H47   S    
C2    C53   A    
C40   H12   S    
O4    P1    S    
C1    H2    S    
C45   H13   S    
C42   C43   S    
C46   H4    S    
C3    C5    A    
Ba2   O4    S    
C16   H38   S    
C38   C39   A    
C26   P3    S    
O1    P1    D    
C51   H18   S    
Ba1   O10   S    
C43   H45   S    
C28   O25   S    
C37   C41   A    
C9    C10   A    
C43   H56   S    
C40   H23   S    
C45   C50   S    
C3    C17   A    
C16   H11   S    
C12   H5    S    
C27   C33   A    
C8    H26   S    
C4    H31   S    
C5    H55   S    
C44   H61   S    
C14   H24   S    
Ba2   O23   S    
C30   C31   A    
C31   H32   S    
O15   P2    D    
C36   C41   A    
C27   C29   A    
C50   H16   S    
C48   O19   S    
C6    H22   S    
C49   H51   S    
Ba1   Ba2   S    
C7    P1    S    
C15   C17   A    
C18   P6    S    
Ba1   O1    S    
O5    P2    S    
C35   C39   A    
C23   O7    S    
Ba1   O4    S    
C50   H15   S    
C51   O9    S    
C23   C34   S    
C24   C33   S    
C10   C11   A    
C52   H54   S    
C49   H52   S    
C25   C26   A    
Ba2   O24   S    
C20   H37   S    
C20   C21   A    
C28   C40   S    
O14   P6    S    
C34   H9    S    
C51   H17   S    
C42   O13   S    
C42   H34   S    
O24   P8    S    
C4    H20   S    
