data_mof_unit_40736.cif
_audit_creation_date              2012-12-10T18:09:34-0500
_audit_creation_method            fapswitch 2.2
_symmetry_space_group_name_H-M    P1
_symmetry_Int_Tables_number       1
_space_group_crystal_system       triclinic
_cell_length_a                    15.013502
_cell_length_b                    16.019954
_cell_length_c                    9.653282
_cell_angle_alpha                 88.698526
_cell_angle_beta                  88.581751
_cell_angle_gamma                 89.29515
_cell_volume                      2320.29491023

loop_
_atom_site_label
_atom_site_type_symbol
_atom_type_description
_atom_site_fract_x
_atom_site_fract_y
_atom_site_fract_z
_atom_type_partial_charge
C1    C     C_R   0.117917 0.377625 0.500386 0.826539
C2    C     C_R   0.123024 0.619983 0.497618 0.866682
C3    C     C_R   0.617922 0.877628 0.500386 0.826553
C4    C     C_R   0.623022 0.119986 0.497619 0.866697
C5    C     C_3   0.058949 0.565470 0.079191 0.536581
C6    C     C_3   0.061367 0.564580 0.911627 0.490687
C7    C     C_3   0.558950 0.065471 0.079188 0.536549
C8    C     C_3   0.561369 0.064579 0.911624 0.490682
C9    C     C_R   0.876657 0.385913 0.502467 0.763064
C10   C     C_R   0.875956 0.614797 0.500529 0.782573
C11   C     C_R   0.376657 0.885912 0.502467 0.763042
C12   C     C_R   0.375953 0.114794 0.500531 0.782571
C13   C     C_3   0.856719 0.239916 0.457626 -0.394216
C14   C     C_3   0.733663 0.344069 0.406792 -0.438060
C15   C     C_3   0.839398 0.755497 0.579685 -0.393245
C16   C     C_3   0.785740 0.708900 0.351303 -0.379009
C17   C     C_3   0.356723 0.739914 0.457636 -0.394245
C18   C     C_3   0.233666 0.844066 0.406775 -0.438038
C19   C     C_3   0.339407 0.255518 0.579593 -0.393322
C20   C     C_3   0.285660 0.208835 0.351309 -0.379139
C21   C     C_3   0.297561 0.662836 0.485682 0.236229
C22   C     C_3   0.178456 0.765261 0.376543 0.252373
C23   C     C_3   0.265609 0.321693 0.600949 0.224400
C24   C     C_3   0.219348 0.283018 0.347847 0.243372
C25   C     C_3   0.797557 0.162840 0.485700 0.236224
C26   C     C_3   0.678463 0.265263 0.376540 0.252324
C27   C     C_3   0.765597 0.821678 0.601004 0.224465
C28   C     C_3   0.719397 0.783061 0.347847 0.243376
C29   C     C_3   0.762916 0.305114 0.649302 -0.397321
C30   C     C_3   0.714963 0.650915 0.569830 -0.384467
C31   C     C_3   0.262910 0.805118 0.649300 -0.397228
C32   C     C_3   0.214978 0.150928 0.569945 -0.384455
C33   C     C_3   0.808727 0.320019 0.505610 0.046367
C34   C     C_3   0.804631 0.680679 0.501167 0.003253
C35   C     C_3   0.308726 0.820018 0.505608 0.046359
C36   C     C_3   0.304619 0.180671 0.501174 0.003322
C37   C     C_3   0.194348 0.693021 0.494203 -0.104646
C38   C     C_3   0.184946 0.304438 0.501430 -0.066242
C39   C     C_3   0.694345 0.193024 0.494208 -0.104622
C40   C     C_3   0.684956 0.804445 0.501427 -0.066280
C41   C     C_3   0.186360 0.741572 0.634854 -0.440802
C42   C     C_3   0.142021 0.221565 0.560283 -0.493870
C43   C     C_3   0.686356 0.241578 0.634855 -0.440820
C44   C     C_3   0.642018 0.721562 0.560206 -0.493856
C45   C     C_3   0.910030 0.513085 0.085388 -0.269522
C46   C     C_3   0.910612 0.515963 0.919935 -0.261229
C47   C     C_3   0.029844 0.418196 0.083917 -0.242858
C48   C     C_3   0.026902 0.417497 0.919465 -0.254669
C49   C     C_3   0.410031 0.013086 0.085389 -0.269528
C50   C     C_3   0.410612 0.015968 0.919936 -0.261222
C51   C     C_3   0.529847 0.918198 0.083917 -0.242844
C52   C     C_3   0.526894 0.917496 0.919465 -0.254660
Cu1   Cu    Cu3+1 0.000100 0.500000 0.642410 0.984604
Cu2   Cu    Cu3+1 0.000100 0.500000 0.357590 1.011781
Cu3   Cu    Cu3+1 0.500100 0.000000 0.642410 0.984610
Cu4   Cu    Cu3+1 0.500100 0.000000 0.357590 1.011771
H1    H     H_    0.922646 0.232804 0.508171 0.122887
H2    H     H_    0.692113 0.394249 0.455711 0.147064
H3    H     H_    0.867958 0.734601 0.680231 0.206846
H4    H     H_    0.761158 0.654116 0.294419 0.157045
H5    H     H_    0.422640 0.732802 0.508209 0.122889
H6    H     H_    0.192119 0.894260 0.455665 0.147050
H7    H     H_    0.368020 0.234663 0.680114 0.206841
H8    H     H_    0.261020 0.154035 0.294549 0.157016
H9    H     H_    0.874059 0.247388 0.345300 0.239173
H10   H     H_    0.759773 0.374703 0.309747 0.202581
H11   H     H_    0.896116 0.782206 0.520506 0.224202
H12   H     H_    0.849363 0.726191 0.297497 0.245632
H13   H     H_    0.374078 0.747393 0.345314 0.239139
H14   H     H_    0.259789 0.874682 0.309722 0.202594
H15   H     H_    0.396075 0.282221 0.520323 0.224248
H16   H     H_    0.349250 0.226078 0.297376 0.245608
H17   H     H_    0.812292 0.281156 0.725028 0.207590
H18   H     H_    0.735255 0.364627 0.690510 0.191676
H19   H     H_    0.725476 0.633455 0.680485 0.190751
H20   H     H_    0.691518 0.594266 0.517720 0.175440
H21   H     H_    0.312289 0.781168 0.725051 0.207583
H22   H     H_    0.235233 0.864639 0.690485 0.191650
H23   H     H_    0.225531 0.133526 0.680611 0.190774
H24   H     H_    0.191522 0.094248 0.517942 0.175422
H25   H     H_    0.189827 0.698576 0.725275 0.270920
H26   H     H_    0.121427 0.775459 0.641528 0.224140
H27   H     H_    0.109981 0.230911 0.663896 0.191187
H28   H     H_    0.087292 0.201057 0.494151 0.193594
H29   H     H_    0.689817 0.198583 0.725277 0.270925
H30   H     H_    0.621428 0.275471 0.641521 0.224141
H31   H     H_    0.609970 0.730883 0.663825 0.191179
H32   H     H_    0.587289 0.701079 0.494045 0.193584
H33   H     H_    0.877389 0.570470 0.124927 0.195315
H34   H     H_    0.882548 0.576677 0.883643 0.201083
H35   H     H_    0.097795 0.400564 0.115620 0.226732
H36   H     H_    0.091633 0.396908 0.877625 0.220112
H37   H     H_    0.377393 0.070471 0.124932 0.195319
H38   H     H_    0.382553 0.076686 0.883648 0.201087
H39   H     H_    0.597803 0.900575 0.115607 0.226725
H40   H     H_    0.591619 0.896908 0.877611 0.220124
H41   H     H_    0.865222 0.462181 0.123286 0.173984
H42   H     H_    0.863043 0.469031 0.883171 0.167211
H43   H     H_    0.986270 0.367900 0.127333 0.195712
H44   H     H_    0.979826 0.368721 0.887592 0.172769
H45   H     H_    0.365224 0.962182 0.123284 0.173984
H46   H     H_    0.363037 0.969041 0.883166 0.167204
H47   H     H_    0.486282 0.867898 0.127345 0.195706
H48   H     H_    0.479810 0.868722 0.887599 0.172768
N1    N     N_3   0.001260 0.500000 0.143650 -0.207864
N2    N     N_3   0.001260 0.500000 0.856350 -0.191438
N3    N     N_3   0.501260 0.000000 0.143650 -0.207869
N4    N     N_3   0.501260 0.000000 0.856350 -0.191447
O1    O     O_R   0.091250 0.408820 0.620260 -0.574906
O2    O     O_R   0.091250 0.408820 0.379740 -0.552276
O3    O     O_R   0.091250 0.591180 0.620260 -0.525699
O4    O     O_R   0.091250 0.591180 0.379740 -0.493556
O5    O     O_R   0.591250 0.908820 0.620260 -0.574900
O6    O     O_R   0.591250 0.908820 0.379740 -0.552297
O7    O     O_R   0.591250 0.091180 0.620260 -0.525697
O8    O     O_R   0.591250 0.091180 0.379740 -0.493554
O9    O     O_R   0.908940 0.408800 0.620260 -0.607054
O10   O     O_R   0.908940 0.408800 0.379740 -0.606089
O11   O     O_R   0.908940 0.591200 0.620260 -0.577044
O12   O     O_R   0.908940 0.591200 0.379740 -0.581371
O13   O     O_R   0.408940 0.908800 0.620260 -0.607049
O14   O     O_R   0.408940 0.908800 0.379740 -0.606099
O15   O     O_R   0.408940 0.091200 0.620260 -0.577033
O16   O     O_R   0.408940 0.091200 0.379740 -0.581370
Br1   Br    Br    0.334954 0.584643 0.345985 -0.298264
Br2   Br    Br    0.217451 0.739222 0.187361 -0.396231
Br3   Br    Br    0.318649 0.429098 0.574925 -0.394427
Br4   Br    Br    0.280620 0.373792 0.249923 -0.319669
Br5   Br    Br    0.834938 0.084622 0.346049 -0.298251
Br6   Br    Br    0.717481 0.239222 0.187369 -0.396253
Br7   Br    Br    0.818650 0.929080 0.575033 -0.394375
Br8   Br    Br    0.780651 0.873864 0.249996 -0.319605
C53   C     C_1   0.330349 0.625011 0.616337 0.342597
N5    N     N_1   0.360339 0.598480 0.717771 -0.153832
C54   C     C_1   0.085371 0.794144 0.370321 0.303836
N6    N     N_1   0.013590 0.820358 0.362752 -0.197330
C55   C     C_1   0.240392 0.317786 0.750377 0.335422
N7    N     N_1   0.224307 0.312223 0.868033 -0.244036
C56   C     C_1   0.145186 0.258719 0.259105 0.239283
N8    N     N_1   0.087785 0.237661 0.190603 -0.281260
C57   C     C_1   0.830350 0.125031 0.616361 0.342578
N9    N     N_1   0.860355 0.098489 0.717777 -0.153808
C58   C     C_1   0.585383 0.294149 0.370266 0.303852
N10   N     N_1   0.513612 0.320373 0.362637 -0.197201
C59   C     C_1   0.740348 0.817753 0.750428 0.335307
N11   N     N_1   0.724255 0.812175 0.868103 -0.244051
C60   C     C_1   0.645263 0.758753 0.259054 0.239358
N12   N     N_1   0.587885 0.737684 0.190508 -0.281270
Br9   Br    Br    0.014762 0.673032 0.150566 -0.399879
Br10  Br    Br    0.023857 0.676627 0.837970 -0.479562
Br11  Br    Br    0.178082 0.545491 0.146812 -0.246592
Br12  Br    Br    0.183653 0.538944 0.838608 -0.384782
Br13  Br    Br    0.514773 0.173036 0.150559 -0.399844
Br14  Br    Br    0.523860 0.176628 0.837964 -0.479562
Br15  Br    Br    0.678085 0.045504 0.146803 -0.246609
Br16  Br    Br    0.683654 0.038935 0.838602 -0.384765

loop_
_geom_bond_atom_site_label_1
_geom_bond_atom_site_label_2
_ccdc_geom_bond_type
C18   H14   S    
C9    C33   S    
Cu3   Cu4   S    
Cu3   O13   S    
C17   H13   S    
Cu2   O12   S    
C27   Br7   S    
C4    O7    A    
C19   H15   S    
C60   N12   T    
C25   Br5   S    
C14   C33   S    
C59   N11   T    
C5    Br9   S    
C7    C8    S    
C49   N3    S    
C5    N1    S    
Cu1   Cu2   S    
C2    O4    A    
C32   C36   S    
C38   C42   S    
C19   C36   S    
C49   H45   S    
C5    C6    S    
Cu1   O9    S    
C26   C39   S    
C22   Br2   S    
C29   H17   S    
C28   C40   S    
C51   H47   S    
C58   N10   T    
C29   C33   S    
C47   H43   S    
Cu2   O2    S    
C21   C37   S    
C16   H4    S    
C10   O11   A    
C17   H5    S    
Cu1   N2    S    
C48   N2    S    
C20   C24   S    
C19   H7    S    
C47   N1    S    
C7    Br13  S    
C24   C38   S    
C16   H12   S    
C12   C36   S    
C44   H31   S    
C8    Br14  S    
C18   C35   S    
C15   C34   S    
C16   C28   S    
C26   Br6   S    
C6    Br12  S    
Cu1   O3    S    
C7    Br15  S    
C46   H42   S    
C41   H25   S    
C29   C43   S    
C50   N4    S    
C9    O10   A    
C30   C44   S    
C11   O13   A    
C47   H35   S    
C48   H44   S    
C8    N4    S    
C21   C53   S    
C45   N1    S    
C31   H21   S    
C24   C56   S    
C14   H10   S    
C14   H2    S    
Cu3   O15   S    
C2    O3    A    
C30   C34   S    
C51   C52   S    
C43   H29   S    
C54   N6    T    
C42   H28   S    
C3    O5    A    
C50   H38   S    
C13   H9    S    
C29   H18   S    
Cu3   O5    S    
C45   C46   S    
C22   C37   S    
C1    O1    A    
C28   Br8   S    
Cu4   O14   S    
C20   H8    S    
C19   C23   S    
Cu4   N3    S    
C13   C33   S    
C16   C34   S    
C1    O2    A    
C32   H24   S    
C30   H20   S    
C15   C27   S    
C47   C48   S    
C12   O16   A    
C4    C39   S    
C27   C40   S    
C27   C59   S    
C15   H11   S    
Cu4   O8    S    
Cu2   O4    S    
C10   C34   S    
C14   C26   S    
C6    Br10  S    
C6    N2    S    
C1    C38   S    
C3    C40   S    
C50   H46   S    
Cu2   O10   S    
C53   N5    T    
C31   C35   S    
C11   O14   A    
C21   Br1   S    
C26   C58   S    
Cu4   O16   S    
C45   H33   S    
C31   H22   S    
C23   Br3   S    
Cu1   O1    S    
C52   H48   S    
C28   C60   S    
C32   C42   S    
C31   C41   S    
Cu2   N1    S    
C18   C22   S    
C43   H30   S    
C15   H3    S    
C4    O8    A    
C25   C57   S    
C42   H27   S    
C13   C25   S    
C3    O6    A    
C39   C43   S    
C56   N8    T    
Cu1   O11   S    
C46   H34   S    
C23   C38   S    
C55   N7    T    
Cu3   N4    S    
C5    Br11  S    
C22   C54   S    
C11   C35   S    
C45   H41   S    
C57   N9    T    
C25   C39   S    
C32   H23   S    
C30   H19   S    
C2    C37   S    
C12   O15   A    
Cu3   O7    S    
C23   C55   S    
C41   H26   S    
C46   N2    S    
C52   H40   S    
C7    N3    S    
C37   C41   S    
C8    Br16  S    
C17   C21   S    
C10   O12   A    
C20   C36   S    
C40   C44   S    
C13   H1    S    
C52   N4    S    
C51   N3    S    
C49   C50   S    
C48   H36   S    
C24   Br4   S    
Cu4   O6    S    
C20   H16   S    
C18   H6    S    
C17   C35   S    
C49   H37   S    
C44   H32   S    
C9    O9    A    
C51   H39   S    
