data_mof_unit_63661.cif
_audit_creation_date              2012-12-10T16:56:15-0500
_audit_creation_method            fapswitch 2.2
_symmetry_space_group_name_H-M    P1
_symmetry_Int_Tables_number       1
_space_group_crystal_system       triclinic
_cell_length_a                    18.523854
_cell_length_b                    18.52439
_cell_length_c                    59.848408
_cell_angle_alpha                 89.993899
_cell_angle_beta                  89.982506
_cell_angle_gamma                 89.99949
_cell_volume                      20536.5669253

loop_
_atom_site_label
_atom_site_type_symbol
_atom_type_description
_atom_site_fract_x
_atom_site_fract_y
_atom_site_fract_z
_atom_type_partial_charge
C1    C     C_R   0.500000 0.999993 0.060776 0.859073
C2    C     C_R   0.999980 0.499980 0.060782 0.858462
C3    C     C_R   0.999999 0.499996 0.560775 0.859774
C4    C     C_R   0.499976 0.999984 0.560781 0.857844
C5    C     C_R   0.503194 0.999565 0.797227 -0.198784
C6    C     C_R   0.999956 0.500005 0.797285 -0.197852
C7    C     C_R   0.000938 0.499647 0.297194 -0.200198
C8    C     C_R   0.500258 0.002283 0.297248 -0.199129
C9    C     C_R   0.519636 0.063597 0.809085 -0.072282
C10   C     C_R   0.935657 0.515700 0.809137 -0.065650
C11   C     C_R   0.487089 0.935319 0.809071 -0.064917
C12   C     C_R   0.064258 0.484318 0.809126 -0.065677
C13   C     C_R   0.018697 0.563408 0.309028 -0.071369
C14   C     C_R   0.436878 0.021037 0.309121 -0.072929
C15   C     C_R   0.982967 0.435985 0.309055 -0.071548
C16   C     C_R   0.563962 0.984079 0.309073 -0.065371
C17   C     C_R   0.542798 0.125685 0.797339 0.425651
C18   C     C_R   0.872373 0.534723 0.797306 0.419932
C19   C     C_R   0.469350 0.871700 0.797220 0.421353
C20   C     C_R   0.127540 0.465284 0.797286 0.420892
C21   C     C_R   0.041704 0.625449 0.297227 0.425683
C22   C     C_R   0.375584 0.046252 0.297389 0.425189
C23   C     C_R   0.960244 0.373820 0.297273 0.425207
C24   C     C_R   0.626860 0.963953 0.297208 0.420293
C25   C     C_R   0.500245 0.999971 0.914760 -0.088022
C26   C     C_R   0.999987 0.500010 0.914775 -0.088104
C27   C     C_R   0.000098 0.499988 0.414754 -0.088138
C28   C     C_R   0.500042 0.000161 0.414770 -0.088012
C29   C     C_R   0.999853 0.499714 0.085457 -0.147915
C30   C     C_R   0.500006 0.999964 0.085440 -0.206040
C31   C     C_R   0.499828 0.999760 0.585452 -0.147634
C32   C     C_R   0.999989 0.499989 0.585434 -0.206346
C33   C     C_R   0.000116 0.565390 0.238279 0.090549
C34   C     C_R   0.434162 0.003991 0.238330 0.089237
C35   C     C_R   0.002466 0.433542 0.238316 0.088423
C36   C     C_R   0.565984 0.998507 0.238290 0.093085
C37   C     C_R   0.502938 0.065513 0.738280 0.090507
C38   C     C_R   0.934032 0.503232 0.738305 0.093049
C39   C     C_R   0.502140 0.933586 0.738285 0.092357
C40   C     C_R   0.065880 0.496741 0.738294 0.093229
C41   C     C_R   0.001265 0.499433 0.226537 0.071585
C42   C     C_R   0.500090 0.001144 0.226555 0.069597
C43   C     C_R   0.502415 0.999502 0.726526 0.072245
C44   C     C_R   0.999956 0.499984 0.726548 0.069198
C45   C     C_R   0.983545 0.628838 0.226256 -0.126490
C46   C     C_R   0.369881 0.990872 0.226319 -0.126906
C47   C     C_R   0.019094 0.370049 0.226325 -0.124559
C48   C     C_R   0.630606 0.009279 0.226234 -0.134947
C49   C     C_R   0.487578 0.129264 0.726246 -0.125281
C50   C     C_R   0.869388 0.492673 0.726248 -0.132135
C51   C     C_R   0.515242 0.869373 0.726248 -0.131366
C52   C     C_R   0.130525 0.507294 0.726224 -0.132146
C53   C     C_R   0.979369 0.628352 0.202996 -0.103215
C54   C     C_R   0.370045 0.986738 0.203065 -0.103438
C55   C     C_R   0.023003 0.370377 0.203060 -0.102616
C56   C     C_R   0.630441 0.012800 0.202972 -0.102678
C57   C     C_R   0.483319 0.128882 0.702992 -0.104606
C58   C     C_R   0.869536 0.489068 0.702993 -0.103794
C59   C     C_R   0.518643 0.869601 0.702984 -0.103048
C60   C     C_R   0.130380 0.510889 0.702968 -0.104172
C61   C     C_R   0.990521 0.564192 0.191088 -0.036000
C62   C     C_R   0.434703 0.994030 0.191135 -0.029988
C63   C     C_R   0.011515 0.434422 0.191121 -0.040377
C64   C     C_R   0.565608 0.006241 0.191093 -0.028864
C65   C     C_R   0.492738 0.064477 0.691081 -0.036180
C66   C     C_R   0.934417 0.494897 0.691100 -0.028964
C67   C     C_R   0.509622 0.934110 0.691082 -0.038592
C68   C     C_R   0.065500 0.505055 0.691088 -0.028955
C69   C     C_R   0.500031 0.999998 0.939431 0.858376
C70   C     C_R   0.999998 0.500003 0.939437 0.858837
C71   C     C_R   0.000017 0.500000 0.439429 0.858523
C72   C     C_R   0.500005 0.000017 0.439435 0.858516
C73   C     C_R   0.001124 0.499354 0.202893 -0.054429
C74   C     C_R   0.500130 0.000529 0.202908 -0.056004
C75   C     C_R   0.501674 0.999374 0.702876 -0.053922
C76   C     C_R   0.999958 0.499979 0.702895 -0.055769
C77   C     C_R   0.011199 0.435581 0.167666 0.577484
C78   C     C_R   0.564296 0.006166 0.167643 0.522792
C79   C     C_R   0.990002 0.562775 0.167634 0.559624
C80   C     C_R   0.435953 0.993582 0.167685 0.523196
C81   C     C_R   0.509089 0.935313 0.667628 0.575156
C82   C     C_R   0.064219 0.505248 0.667640 0.522911
C83   C     C_R   0.491926 0.063104 0.667629 0.561090
C84   C     C_R   0.935701 0.494698 0.667651 0.522598
C85   C     C_R   0.933358 0.494932 0.120576 0.428752
C86   C     C_R   0.503679 0.933780 0.120592 0.481440
C87   C     C_R   0.065149 0.503033 0.120846 0.490344
C88   C     C_R   0.496379 0.066047 0.120605 0.480853
C89   C     C_R   0.433237 0.995939 0.620562 0.428739
C90   C     C_R   0.003067 0.433817 0.620589 0.481054
C91   C     C_R   0.565124 0.002337 0.620841 0.489792
C92   C     C_R   0.996872 0.566143 0.620588 0.481027
C93   C     C_R   0.934484 0.495682 0.097247 -0.189341
C94   C     C_R   0.503424 0.934724 0.097270 -0.194285
C95   C     C_R   0.064995 0.503282 0.097362 -0.329591
C96   C     C_R   0.496599 0.065169 0.097283 -0.194030
C97   C     C_R   0.434398 0.996565 0.597235 -0.189740
C98   C     C_R   0.002881 0.434736 0.597269 -0.194031
C99   C     C_R   0.564999 0.002563 0.597360 -0.329833
C100  C     C_R   0.997083 0.565236 0.597268 -0.193964
C101  C     C_R   0.999366 0.498881 0.132470 0.144481
C102  C     C_R   0.500042 0.999897 0.132486 0.054294
C103  C     C_R   0.499281 0.999043 0.632456 0.145252
C104  C     C_R   0.999963 0.499977 0.632474 0.054521
C105  C     C_R   0.516463 0.064798 0.761726 0.002817
C106  C     C_R   0.935155 0.514797 0.761798 0.010509
C107  C     C_R   0.490283 0.934409 0.761749 0.010128
C108  C     C_R   0.064755 0.485188 0.761787 0.010893
C109  C     C_R   0.013769 0.564841 0.261696 0.003480
C110  C     C_R   0.435402 0.017564 0.261770 0.002797
C111  C     C_R   0.988667 0.434193 0.261728 0.002542
C112  C     C_R   0.564789 0.986775 0.261755 0.010550
C113  C     C_R   0.503666 0.999531 0.773583 0.043304
C114  C     C_R   0.999955 0.499996 0.773631 0.046707
C115  C     C_R   0.001136 0.499556 0.273560 0.039061
C116  C     C_R   0.500217 0.002547 0.273606 0.043043
C117  C     C_R   0.543179 0.125843 0.773657 -0.136749
C118  C     C_R   0.874360 0.541200 0.773805 -0.172574
C119  C     C_R   0.464627 0.873139 0.773677 -0.171398
C120  C     C_R   0.125549 0.458789 0.773786 -0.173583
C121  C     C_R   0.040688 0.625929 0.273552 -0.137672
C122  C     C_R   0.375363 0.046481 0.273709 -0.137583
C123  C     C_R   0.961642 0.373160 0.273600 -0.135803
C124  C     C_R   0.625144 0.959031 0.273673 -0.172845
C125  C     C_R   0.638669 0.861544 0.000201 0.859217
C126  C     C_R   0.138744 0.638375 0.000073 0.858726
C127  C     C_R   0.361338 0.138455 0.000202 0.858931
C128  C     C_R   0.861248 0.361628 0.000075 0.858640
C129  C     C_R   0.361338 0.861542 0.000203 0.859260
C130  C     C_R   0.861248 0.638374 0.000074 0.859096
C131  C     C_R   0.638669 0.138454 0.000201 0.859477
C132  C     C_R   0.138745 0.361627 0.000073 0.859052
C133  C     C_R   0.138377 0.361252 0.500073 0.858824
C134  C     C_R   0.638452 0.138666 0.500201 0.859053
C135  C     C_R   0.861629 0.638747 0.500074 0.858546
C136  C     C_R   0.361540 0.861336 0.500203 0.859049
C137  C     C_R   0.861630 0.361250 0.500074 0.858808
C138  C     C_R   0.361540 0.138665 0.500202 0.859536
C139  C     C_R   0.138377 0.638746 0.500072 0.859116
C140  C     C_R   0.638453 0.861336 0.500201 0.859417
C141  C     C_2   0.808155 0.248014 0.987554 -0.152575
C142  C     C_2   0.750832 0.806970 0.987033 -0.152593
C143  C     C_2   0.191852 0.752015 0.987559 -0.152127
C144  C     C_2   0.249182 0.193025 0.987042 -0.152304
C145  C     C_2   0.191854 0.247996 0.987559 -0.151726
C146  C     C_2   0.249182 0.806984 0.987043 -0.151993
C147  C     C_2   0.808157 0.751998 0.987554 -0.152150
C148  C     C_2   0.750834 0.193038 0.987033 -0.152352
C149  C     C_2   0.306990 0.749181 0.487040 -0.152580
C150  C     C_2   0.252015 0.308153 0.487554 -0.152611
C151  C     C_2   0.693039 0.250828 0.487036 -0.152346
C152  C     C_2   0.748009 0.691853 0.487558 -0.152446
C153  C     C_2   0.693034 0.749177 0.487039 -0.151681
C154  C     C_2   0.748016 0.308150 0.487556 -0.152185
C155  C     C_2   0.306988 0.250827 0.487039 -0.152223
C156  C     C_2   0.252024 0.691847 0.487557 -0.152183
C157  C     C_2   0.803945 0.308288 0.999902 -0.283528
C158  C     C_2   0.694402 0.806639 0.001080 -0.284395
C159  C     C_2   0.196043 0.691719 0.999899 -0.284557
C160  C     C_2   0.305608 0.193369 0.001081 -0.284832
C161  C     C_2   0.196045 0.308284 0.999900 -0.284239
C162  C     C_2   0.305611 0.806626 0.001081 -0.284956
C163  C     C_2   0.803945 0.691712 0.999900 -0.283384
C164  C     C_2   0.694401 0.193359 0.001079 -0.284363
C165  C     C_2   0.306627 0.805607 0.501083 -0.284490
C166  C     C_2   0.191721 0.303956 0.499900 -0.283337
C167  C     C_2   0.693360 0.194398 0.501079 -0.285356
C168  C     C_2   0.808286 0.696048 0.499901 -0.283824
C169  C     C_2   0.693364 0.805605 0.501079 -0.285293
C170  C     C_2   0.808288 0.303948 0.499902 -0.283902
C171  C     C_2   0.306625 0.194390 0.501080 -0.284409
C172  C     C_2   0.191717 0.696047 0.499896 -0.283312
C173  C     C_R   0.516513 0.062377 0.832684 0.650975
C174  C     C_R   0.937128 0.513857 0.832733 0.647629
C175  C     C_R   0.487792 0.936996 0.832678 0.647337
C176  C     C_R   0.062789 0.486177 0.832722 0.648270
C177  C     C_R   0.016434 0.562123 0.332638 0.650315
C178  C     C_R   0.438073 0.018052 0.332719 0.650556
C179  C     C_R   0.984750 0.437484 0.332668 0.649583
C180  C     C_R   0.562427 0.985141 0.332677 0.646926
C181  C     C_R   0.435002 0.002306 0.879333 0.441654
C182  C     C_R   0.997591 0.434229 0.879453 0.439442
C183  C     C_R   0.566571 0.997534 0.879519 0.437763
C184  C     C_R   0.002343 0.565803 0.879450 0.439759
C185  C     C_R   0.934512 0.502916 0.379391 0.440130
C186  C     C_R   0.503589 0.066278 0.379511 0.438172
C187  C     C_R   0.066035 0.496982 0.379442 0.439584
C188  C     C_R   0.496598 0.934803 0.379375 0.441817
C189  C     C_R   0.435044 0.002245 0.902826 -0.324462
C190  C     C_R   0.997696 0.434632 0.902933 -0.323261
C191  C     C_R   0.565793 0.997662 0.902996 -0.322611
C192  C     C_R   0.002263 0.565392 0.902931 -0.323378
C193  C     C_R   0.934806 0.502830 0.402880 -0.323173
C194  C     C_R   0.503426 0.065610 0.402987 -0.322833
C195  C     C_R   0.065504 0.497127 0.402927 -0.322878
C196  C     C_R   0.496701 0.934953 0.402863 -0.324524
C197  C     C_R   0.500980 0.999917 0.867786 0.218113
C198  C     C_R   0.999961 0.500018 0.867819 0.218396
C199  C     C_R   0.000335 0.499933 0.367771 0.217492
C200  C     C_R   0.500092 0.000678 0.367803 0.217337
H1    H     H_    0.855106 0.238381 0.977089 0.178499
H2    H     H_    0.756237 0.849661 0.974698 0.179090
H3    H     H_    0.144913 0.761672 0.977099 0.178494
H4    H     H_    0.243782 0.150321 0.974715 0.179196
H5    H     H_    0.144914 0.238348 0.977099 0.178683
H6    H     H_    0.243782 0.849699 0.974716 0.179400
H7    H     H_    0.855112 0.761643 0.977090 0.178688
H8    H     H_    0.756244 0.150353 0.974699 0.179288
H9    H     H_    0.349705 0.743783 0.474711 0.179088
H10   H     H_    0.261668 0.355096 0.477089 0.178428
H11   H     H_    0.650354 0.256235 0.474704 0.178906
H12   H     H_    0.738373 0.644912 0.477096 0.178500
H13   H     H_    0.650342 0.743772 0.474710 0.179388
H14   H     H_    0.738383 0.355095 0.477092 0.178612
H15   H     H_    0.349707 0.256238 0.474711 0.179322
H16   H     H_    0.261693 0.644900 0.477099 0.178633
H17   H     H_    0.757426 0.320934 0.010081 0.155878
H18   H     H_    0.687924 0.766317 0.013980 0.156631
H19   H     H_    0.242550 0.679056 0.010072 0.154982
H20   H     H_    0.312085 0.233706 0.013972 0.156023
H21   H     H_    0.242553 0.320939 0.010073 0.155100
H22   H     H_    0.312089 0.766278 0.013972 0.155909
H23   H     H_    0.757420 0.679055 0.010075 0.155908
H24   H     H_    0.687917 0.233677 0.013977 0.156627
H25   H     H_    0.266281 0.812080 0.513978 0.156608
H26   H     H_    0.179060 0.257448 0.510079 0.155871
H27   H     H_    0.733679 0.187916 0.513974 0.155491
H28   H     H_    0.820932 0.742556 0.510077 0.155413
H29   H     H_    0.733690 0.812085 0.513972 0.155646
H30   H     H_    0.820931 0.257435 0.510079 0.155326
H31   H     H_    0.266272 0.187899 0.513972 0.156669
H32   H     H_    0.179043 0.742564 0.510067 0.155863
H33   H     H_    0.616415 0.995785 0.912032 0.177694
H34   H     H_    0.004138 0.616134 0.911904 0.178021
H35   H     H_    0.384177 0.004129 0.911739 0.177658
H36   H     H_    0.995829 0.383887 0.911909 0.177980
H37   H     H_    0.116188 0.494803 0.411919 0.177835
H38   H     H_    0.493957 0.884166 0.411794 0.177592
H39   H     H_    0.884041 0.505169 0.411838 0.177808
H40   H     H_    0.506161 0.116225 0.412007 0.177551
H41   H     H_    0.883669 0.492684 0.088337 0.204359
H42   H     H_    0.506194 0.883824 0.088396 0.204938
H43   H     H_    0.115762 0.506485 0.088430 0.182805
H44   H     H_    0.493817 0.116091 0.088418 0.204909
H45   H     H_    0.383555 0.994205 0.588322 0.204344
H46   H     H_    0.005244 0.383805 0.588401 0.205071
H47   H     H_    0.615812 0.005102 0.588433 0.182736
H48   H     H_    0.994730 0.616171 0.588399 0.205061
H49   H     H_    0.967975 0.678532 0.194401 0.194695
H50   H     H_    0.319256 0.978289 0.194491 0.195436
H51   H     H_    0.034292 0.320139 0.194486 0.194762
H52   H     H_    0.681380 0.019826 0.194352 0.194621
H53   H     H_    0.473014 0.179314 0.694405 0.194425
H54   H     H_    0.818546 0.482350 0.694387 0.194464
H55   H     H_    0.527436 0.818921 0.694379 0.193572
H56   H     H_    0.181370 0.517603 0.694352 0.194304
H57   H     H_    0.972116 0.679105 0.234713 0.143670
H58   H     H_    0.319073 0.982081 0.234767 0.144473
H59   H     H_    0.030635 0.319853 0.234810 0.144178
H60   H     H_    0.681717 0.016112 0.234701 0.139071
H61   H     H_    0.477040 0.179758 0.734675 0.143301
H62   H     H_    0.818217 0.486008 0.734697 0.139251
H63   H     H_    0.523943 0.818568 0.734733 0.138205
H64   H     H_    0.181696 0.513963 0.734663 0.139211
N1    N     N_R   0.501469 0.999827 0.843766 -0.344416
N2    N     N_R   0.999959 0.500020 0.843809 -0.344270
N3    N     N_R   0.000475 0.499855 0.343745 -0.344760
N4    N     N_R   0.500134 0.001034 0.343784 -0.344649
N5    N     N_R   0.000185 0.499078 0.156470 -0.343044
N6    N     N_R   0.500097 0.999881 0.156492 -0.372852
N7    N     N_R   0.500102 0.999155 0.656452 -0.342914
N8    N     N_R   0.999961 0.499972 0.656476 -0.372791
O1    O     O_3   0.500000 0.000000 0.000110 -0.493385
O2    O     O_3   0.000000 0.500000 0.000110 -0.492991
O3    O     O_3   0.000000 0.500000 0.500110 -0.493374
O4    O     O_3   0.500000 0.000000 0.500110 -0.492954
O5    O     O_R   0.500000 0.060060 0.050050 -0.641977
O6    O     O_R   0.939940 0.500000 0.050050 -0.645254
O7    O     O_R   0.500000 0.939940 0.050050 -0.642076
O8    O     O_R   0.060060 0.500000 0.050050 -0.639471
O9    O     O_R   0.000000 0.560060 0.550050 -0.641553
O10   O     O_R   0.439940 0.000000 0.550050 -0.645838
O11   O     O_R   0.000000 0.439940 0.550050 -0.641613
O12   O     O_R   0.560060 0.000000 0.550050 -0.640017
O13   O     O_R   0.559990 0.000000 0.950170 -0.646718
O14   O     O_R   0.000000 0.559990 0.950170 -0.646081
O15   O     O_R   0.440010 0.000000 0.950170 -0.646084
O16   O     O_R   0.000000 0.440010 0.950170 -0.646071
O17   O     O_R   0.059990 0.500000 0.450170 -0.646130
O18   O     O_R   0.500000 0.059990 0.450170 -0.646615
O19   O     O_R   0.940010 0.500000 0.450170 -0.645916
O20   O     O_R   0.500000 0.940010 0.450170 -0.646150
O21   O     O_R   0.584430 0.855390 0.013200 -0.638550
O22   O     O_R   0.144610 0.584430 0.013200 -0.640310
O23   O     O_R   0.415570 0.144610 0.013200 -0.638842
O24   O     O_R   0.855390 0.415570 0.013200 -0.638682
O25   O     O_R   0.415570 0.855390 0.013200 -0.638643
O26   O     O_R   0.855390 0.584430 0.013200 -0.638232
O27   O     O_R   0.584430 0.144610 0.013200 -0.638252
O28   O     O_R   0.144610 0.415570 0.013200 -0.639856
O29   O     O_R   0.084430 0.355390 0.513200 -0.638748
O30   O     O_R   0.644610 0.084430 0.513200 -0.639999
O31   O     O_R   0.915570 0.644610 0.513200 -0.639053
O32   O     O_R   0.355390 0.915570 0.513200 -0.638389
O33   O     O_R   0.915570 0.355390 0.513200 -0.638898
O34   O     O_R   0.355390 0.084430 0.513200 -0.638047
O35   O     O_R   0.084430 0.644610 0.513200 -0.638507
O36   O     O_R   0.644610 0.915570 0.513200 -0.639693
O37   O     O_R   0.355260 0.084530 0.987020 -0.643163
O38   O     O_R   0.915470 0.355260 0.987020 -0.643434
O39   O     O_R   0.644740 0.915470 0.987020 -0.643293
O40   O     O_R   0.084530 0.644740 0.987020 -0.643068
O41   O     O_R   0.644740 0.084530 0.987020 -0.642987
O42   O     O_R   0.084530 0.355260 0.987020 -0.642773
O43   O     O_R   0.355260 0.915470 0.987020 -0.642847
O44   O     O_R   0.915470 0.644740 0.987020 -0.643127
O45   O     O_R   0.855260 0.584530 0.487020 -0.643378
O46   O     O_R   0.415470 0.855260 0.487020 -0.643292
O47   O     O_R   0.144740 0.415470 0.487020 -0.643505
O48   O     O_R   0.584530 0.144740 0.487020 -0.643089
O49   O     O_R   0.144740 0.584530 0.487020 -0.643097
O50   O     O_R   0.584530 0.855260 0.487020 -0.642573
O51   O     O_R   0.855260 0.415470 0.487020 -0.643032
O52   O     O_R   0.415470 0.144740 0.487020 -0.642919
O53   O     O_2   0.528098 0.123040 0.844637 -0.450771
O54   O     O_2   0.876563 0.525935 0.844694 -0.453085
O55   O     O_2   0.474851 0.876610 0.844636 -0.452416
O56   O     O_2   0.123356 0.474108 0.844673 -0.451885
O57   O     O_2   0.029688 0.622464 0.344581 -0.449683
O58   O     O_2   0.377854 0.031702 0.344688 -0.450248
O59   O     O_2   0.971269 0.377249 0.344645 -0.450845
O60   O     O_2   0.622419 0.970370 0.344616 -0.451983
O61   O     O_2   0.979539 0.624399 0.156058 -0.528042
O62   O     O_2   0.373736 0.987155 0.156137 -0.525049
O63   O     O_2   0.021334 0.373842 0.156123 -0.528560
O64   O     O_2   0.626501 0.012123 0.156053 -0.525079
O65   O     O_2   0.483166 0.125020 0.656066 -0.528670
O66   O     O_2   0.873406 0.489489 0.656085 -0.525809
O67   O     O_2   0.517054 0.873295 0.656065 -0.529681
O68   O     O_2   0.126516 0.510454 0.656061 -0.525351
Zn1   Zn    Zn3+2 0.585740 0.000000 0.981400 0.975630
Zn2   Zn    Zn3+2 0.000000 0.585740 0.981400 0.975718
Zn3   Zn    Zn3+2 0.414260 0.000000 0.981400 0.975811
Zn4   Zn    Zn3+2 0.000000 0.414260 0.981400 0.975652
Zn5   Zn    Zn3+2 0.085740 0.500000 0.481400 0.975637
Zn6   Zn    Zn3+2 0.500000 0.085740 0.481400 0.975607
Zn7   Zn    Zn3+2 0.914260 0.500000 0.481400 0.975536
Zn8   Zn    Zn3+2 0.500000 0.914260 0.481400 0.975875
Zn9   Zn    Zn3+2 0.500000 0.914160 0.018820 0.989104
Zn10  Zn    Zn3+2 0.085840 0.500000 0.018820 0.986016
Zn11  Zn    Zn3+2 0.500000 0.085840 0.018820 0.989200
Zn12  Zn    Zn3+2 0.914160 0.500000 0.018820 0.989167
Zn13  Zn    Zn3+2 0.000000 0.414160 0.518820 0.989238
Zn14  Zn    Zn3+2 0.585840 0.000000 0.518820 0.985766
Zn15  Zn    Zn3+2 0.000000 0.585840 0.518820 0.989340
Zn16  Zn    Zn3+2 0.414160 0.000000 0.518820 0.989003
C201  C     C_2   0.578920 0.186927 0.761932 0.367956
H65   H     H_    0.568521 0.242153 0.767060 0.082503
O69   O     O_2   0.621915 0.175728 0.746850 -0.517273
C202  C     C_2   0.819822 0.588879 0.762895 0.431883
H66   H     H_    0.764605 0.591373 0.768795 0.069124
O70   O     O_2   0.837219 0.628834 0.747575 -0.523110
C203  C     C_2   0.419338 0.817131 0.762518 0.434034
H67   H     H_    0.418983 0.761658 0.768231 0.067304
O71   O     O_2   0.379087 0.833443 0.747164 -0.523503
C204  C     C_2   0.180083 0.411100 0.762871 0.432934
H68   H     H_    0.235299 0.408602 0.768762 0.071336
O72   O     O_2   0.162684 0.371140 0.747558 -0.522575
C205  C     C_2   0.075243 0.687481 0.261722 0.369492
H69   H     H_    0.064565 0.742534 0.266974 0.085366
O73   O     O_2   0.117685 0.676886 0.246449 -0.516463
C206  C     C_2   0.315531 0.084274 0.261990 0.368347
H70   H     H_    0.259983 0.075808 0.267134 0.085093
O74   O     O_2   0.328188 0.126808 0.246895 -0.519563
C207  C     C_2   0.927325 0.311479 0.261780 0.366085
H71   H     H_    0.938105 0.256474 0.267061 0.084772
O75   O     O_2   0.884950 0.321912 0.246486 -0.521707
C208  C     C_2   0.679428 0.911634 0.262523 0.435822
H72   H     H_    0.734837 0.909185 0.268241 0.069489
O76   O     O_2   0.661642 0.871993 0.247173 -0.522137
O77   O     O_3   0.630360 0.994811 0.867609 -0.731815
H73   H     H_    0.671381 0.993377 0.878243 0.344049
O78   O     O_3   0.004991 0.629393 0.867443 -0.728563
H74   H     H_    0.006432 0.670581 0.878016 0.344372
O79   O     O_3   0.371601 0.004944 0.867240 -0.726751
H75   H     H_    0.330254 0.006390 0.877759 0.344365
O80   O     O_3   0.994932 0.370643 0.867449 -0.729235
H76   H     H_    0.993502 0.329452 0.878024 0.344241
O81   O     O_3   0.129671 0.493675 0.367469 -0.730467
H77   H     H_    0.170784 0.491891 0.378063 0.343932
O82   O     O_3   0.492826 0.871399 0.367308 -0.727065
H78   H     H_    0.490697 0.830132 0.377843 0.344102
O83   O     O_3   0.870998 0.506175 0.367368 -0.729741
H79   H     H_    0.829780 0.507985 0.377930 0.344075
O84   O     O_3   0.507429 0.129957 0.367578 -0.732168
H80   H     H_    0.509550 0.170993 0.378197 0.343776
O85   O     O_3   0.566962 0.184609 0.809448 -0.689587
H81   H     H_    0.606643 0.208907 0.801359 0.331591
O86   O     O_3   0.810598 0.552113 0.809054 -0.685582
H82   H     H_    0.768409 0.534696 0.800446 0.318109
O87   O     O_3   0.451757 0.809966 0.808957 -0.684573
H83   H     H_    0.470639 0.767829 0.800624 0.318419
O88   O     O_3   0.189315 0.447902 0.809023 -0.683843
H84   H     H_    0.231504 0.465311 0.800404 0.319159
O89   O     O_3   0.066758 0.684161 0.309262 -0.688198
H85   H     H_    0.106013 0.708445 0.300969 0.333258
O90   O     O_3   0.317580 0.072542 0.309511 -0.688448
H86   H     H_    0.294615 0.112960 0.301404 0.332657
O91   O     O_3   0.935085 0.315163 0.309322 -0.689741
H87   H     H_    0.896038 0.290712 0.300991 0.332102
O92   O     O_3   0.687978 0.944282 0.308931 -0.683441
H88   H     H_    0.730728 0.961554 0.300558 0.319114
O93   O     O_3   0.866922 0.490109 0.130961 -0.719917
H89   H     H_    0.873465 0.487667 0.147345 0.343675
O94   O     O_3   0.507622 0.867270 0.130974 -0.721917
H90   H     H_    0.508451 0.873577 0.147378 0.351108
O95   O     O_3   0.128598 0.506979 0.132888 -0.719026
H91   H     H_    0.169818 0.509604 0.122342 0.342452
O96   O     O_3   0.492459 0.132531 0.131000 -0.722207
H92   H     H_    0.491632 0.126184 0.147403 0.350693
O97   O     O_3   0.366734 0.992099 0.630946 -0.719923
H93   H     H_    0.373214 0.990096 0.647338 0.343916
O98   O     O_3   0.006394 0.367286 0.630979 -0.722007
H94   H     H_    0.007060 0.373594 0.647384 0.350946
O99   O     O_3   0.628605 0.005437 0.632892 -0.719530
H95   H     H_    0.669868 0.007523 0.622351 0.342435
O100  O     O_3   0.993535 0.632668 0.630977 -0.722103
H96   H     H_    0.992843 0.626352 0.647382 0.350881

loop_
_geom_bond_atom_site_label_1
_geom_bond_atom_site_label_2
_ccdc_geom_bond_type
C10   C174  A    
O100  H96   S    
C201  H65   S    
C138  O52   A    
C33   C45   A    
O99   H95   S    
C108  C120  A    
C36   C42   A    
C34   C42   A    
C35   C47   A    
C153  H13   S    
C172  H32   S    
C183  C197  A    
C71   O19   A    
C2    C29   S    
O26   Zn12  S    
C117  C201  S    
C112  C124  A    
C97   H45   S    
C174  O54   S    
C206  H70   S    
C154  C170  D    
C132  O42   A    
C22   O90   S    
C96   H44   S    
C30   C96   A    
C144  H4    S    
O9    Zn15  S    
O46   Zn8   S    
C156  H16   S    
O27   Zn11  S    
C135  C168  S    
O1    Zn11  S    
C144  C160  D    
C18   C118  A    
C176  N2    A    
O20   Zn8   S    
C7    C15   A    
C185  O83   S    
C8    C16   A    
C106  C118  A    
C121  C205  S    
C142  C158  D    
C22   C122  A    
C130  O44   A    
C43   C75   A    
C127  O37   A    
C84   O66   S    
C163  H23   S    
C59   H55   S    
C91   C103  A    
C125  C158  S    
O4    Zn6   S    
O42   Zn4   S    
C26   C192  A    
C1    O5    A    
C164  H24   S    
C158  H18   S    
C11   C19   A    
C12   C20   A    
O51   Zn7   S    
C13   C21   A    
O2    Zn2   S    
C143  C159  D    
C90   C104  A    
C19   O87   S    
C141  C157  D    
C184  C198  A    
O81   H77   S    
C25   C69   S    
C92   O100  S    
O78   H74   S    
C110  C116  A    
C20   C120  A    
C27   C71   S    
C127  O23   A    
O12   Zn14  S    
C128  O24   A    
C48   H60   S    
C5    C113  A    
C138  C171  S    
C79   O61   S    
O34   Zn16  S    
C149  H9    S    
C144  C145  S    
C186  O84   S    
C88   C102  A    
C207  H71   S    
C5    C11   A    
O83   H79   S    
C24   O92   S    
C30   C94   A    
C133  C166  S    
C175  O55   S    
C145  C161  D    
C131  C164  S    
C10   C18   A    
C151  C167  D    
C129  O25   A    
C32   C98   A    
C58   H54   S    
C177  O57   S    
O3    Zn7   S    
C92   C104  A    
C32   C100  A    
C7    C13   A    
C199  N3    S    
C89   C97   A    
C54   C62   A    
C182  C190  A    
C194  H40   S    
O91   H87   S    
O89   H85   S    
O10   Zn16  S    
C180  O60   S    
C46   H58   S    
C143  H3    S    
C38   C106  A    
O97   H93   S    
C15   C179  A    
O2    Zn12  S    
O96   H92   S    
C181  C197  A    
C145  H5    S    
O87   H83   S    
C67   C75   A    
C80   O62   S    
C126  C159  S    
O49   Zn5   S    
O4    Zn8   S    
C79   N5    A    
C130  O26   A    
C150  H10   S    
C62   C80   A    
C1    O7    A    
C177  N3    A    
C2    O8    A    
C178  N4    A    
C136  C165  S    
C188  C200  A    
O86   H82   S    
C150  C166  D    
C60   H56   S    
C49   C57   A    
C44   C76   A    
C72   O18   A    
C6    C114  A    
C52   C60   A    
C59   C67   A    
C132  C161  S    
C53   C61   A    
C187  O81   S    
C107  C113  A    
C136  O46   A    
C55   C63   A    
C4    O10   A    
C56   C64   A    
C9    C173  A    
C34   C46   A    
C125  O39   A    
C126  O40   A    
C12   C176  A    
C78   N6    A    
O30   Zn14  S    
C45   C53   A    
C89   C103  A    
C188  O82   S    
C119  C203  S    
C202  H66   S    
C180  N4    A    
C128  C157  S    
C51   C59   A    
C178  O58   S    
O35   Zn15  S    
O32   Zn16  S    
C171  H31   S    
O15   Zn3   S    
C148  C164  D    
C149  C165  D    
C133  O47   A    
C8    C116  A    
C23   C123  A    
C37   C105  A    
C101  N5    S    
C156  C172  D    
C183  O77   S    
C118  C202  S    
C103  N7    S    
O18   Zn6   S    
C5    C9    A    
O3    Zn5   S    
O8    Zn10  S    
O40   Zn2   S    
C133  O29   A    
C165  H25   S    
C185  C199  A    
C123  C207  S    
C137  C170  S    
C14   C178  A    
C176  O56   S    
C140  O36   A    
C67   C81   A    
C150  C155  S    
O2    Zn10  S    
C77   N5    A    
O14   Zn2   S    
C99   H47   S    
C86   C102  A    
C112  C116  A    
C137  O33   A    
C122  C206  S    
C132  O28   A    
O6    Zn12  S    
C142  C147  S    
C195  H37   S    
C155  C171  D    
C2    O6    A    
C124  C208  S    
C137  O51   A    
C192  H34   S    
C68   C76   A    
O47   Zn5   S    
C193  H39   S    
C68   C82   A    
C14   C22   A    
C72   O20   A    
C25   C189  A    
O85   H81   S    
O38   Zn4   S    
C160  H20   S    
C61   C79   A    
C34   C110  A    
C170  H30   S    
C28   C196  A    
C206  O74   D    
C36   C48   A    
C77   O63   S    
C57   H53   S    
C189  H35   S    
C41   C73   A    
C138  O34   A    
C40   C44   A    
C33   C109  A    
C152  C153  S    
C91   C99   A    
C127  C160  S    
C16   C180  A    
C205  O73   D    
O19   Zn7   S    
C143  C146  S    
C69   O13   A    
C88   C96   A    
O93   H89   S    
C39   C51   A    
C154  H14   S    
C131  O27   A    
C173  N1    A    
C20   O88   S    
C85   C101  A    
C28   C72   S    
C146  C162  D    
C89   O97   S    
C140  C169  S    
O1    Zn1   S    
C142  H2    S    
C47   C55   A    
C87   O95   S    
C49   H61   S    
C98   H46   S    
C6    C12   A    
O16   Zn4   S    
O31   Zn15  S    
C108  C114  A    
C204  H68   S    
C181  C189  A    
C47   H59   S    
C36   C112  A    
O52   Zn6   S    
C203  H67   S    
C184  C192  A    
C31   C99   A    
C88   O96   S    
O13   Zn1   S    
C17   C117  A    
C40   C108  A    
C152  H12   S    
C19   C119  A    
C201  O69   D    
C105  C117  A    
C83   O65   S    
C64   C78   A    
C107  C119  A    
C152  C168  D    
C186  C194  A    
C129  O43   A    
C26   C190  A    
C52   H64   S    
C42   C74   A    
C111  C123  A    
C50   C58   A    
C25   C191  A    
C134  O48   A    
O44   Zn2   S    
C135  O45   A    
O50   Zn8   S    
O5    Zn11  S    
C61   C73   A    
C3    O9    A    
O7    Zn9   S    
C187  C199  A    
C168  H28   S    
C37   C43   A    
C104  N8    S    
C38   C44   A    
C100  H48   S    
C90   O98   S    
C37   C49   A    
C167  H27   S    
C46   C54   A    
C157  H17   S    
C54   H50   S    
O21   Zn9   S    
C139  C172  S    
C83   N7    A    
C186  C200  A    
O23   Zn11  S    
C147  C163  D    
C18   O86   S    
C69   O15   A    
C70   O16   A    
C26   C70   S    
C78   O64   S    
C27   C195  A    
C208  O76   D    
O79   H75   S    
C50   H62   S    
C105  C113  A    
O11   Zn13  S    
O3    Zn15  S    
C102  N6    S    
O1    Zn3   S    
C57   C65   A    
C135  O31   A    
C6    C10   A    
O84   H80   S    
C136  O32   A    
C45   H57   S    
C191  H33   S    
C63   C73   A    
C86   O94   S    
C11   C175  A    
C33   C41   A    
C110  C122  A    
C29   C93   A    
C93   H41   S    
C13   C177  A    
C56   H52   S    
O36   Zn14  S    
C1    C30   S    
C31   C97   A    
C3    C32   S    
O43   Zn3   S    
C4    C31   S    
O28   Zn10  S    
C148  H8    S    
O4    Zn14  S    
C60   C68   A    
C153  C169  D    
O92   H88   S    
C64   C74   A    
C161  H21   S    
C62   C74   A    
O29   Zn13  S    
C109  C121  A    
C179  N3    A    
C130  C163  S    
O88   H84   S    
C182  C198  A    
O48   Zn6   S    
C146  H6    S    
C175  N1    A    
C202  O70   D    
O95   H91   S    
O3    Zn13  S    
O82   H78   S    
C196  H38   S    
C39   C107  A    
C151  H11   S    
C106  C114  A    
C149  C156  S    
C141  H1    S    
C198  N2    S    
C82   O68   S    
C23   O91   S    
C65   C83   A    
C139  O35   A    
C81   N7    A    
C128  O38   A    
C82   N8    A    
C151  C154  S    
C7    C115  A    
C86   C94   A    
C141  C148  S    
C4    O12   A    
C58   C66   A    
O25   Zn9   S    
C139  O49   A    
O41   Zn1   S    
C70   O14   A    
O90   H86   S    
C27   C193  A    
C174  N2    A    
C15   C23   A    
C66   C76   A    
C16   C24   A    
C24   C124  A    
C87   C101  A    
C197  N1    S    
C203  O71   D    
O22   Zn10  S    
C85   C93   A    
O24   Zn12  S    
C35   C41   A    
C179  O59   S    
C207  O75   D    
C181  O79   S    
C84   N8    A    
C162  H22   S    
C184  O78   S    
O98   H94   S    
C29   C95   A    
C109  C115  A    
C39   C43   A    
C40   C52   A    
O33   Zn13  S    
O2    Zn4   S    
C51   H63   S    
C87   C95   A    
O39   Zn1   S    
C155  H15   S    
O17   Zn5   S    
C28   C194  A    
O94   H90   S    
O4    Zn16  S    
C200  N4    S    
C166  H26   S    
O37   Zn3   S    
C53   H49   S    
C147  H7    S    
C9    C17   A    
C55   H51   S    
O1    Zn9   S    
C173  O53   S    
C35   C111  A    
C92   C100  A    
C17   O85   S    
C205  H69   S    
C63   C77   A    
C48   C56   A    
C8    C14   A    
C187  C195  A    
C140  O50   A    
C185  C193  A    
C183  C191  A    
C125  O21   A    
C38   C50   A    
C21   O89   S    
C71   O17   A    
C159  H19   S    
C65   C75   A    
C94   H42   S    
C182  O80   S    
O77   H73   S    
C85   O93   S    
C208  H72   S    
C131  O41   A    
C126  O22   A    
C81   O67   S    
C169  H29   S    
C129  C162  S    
C80   N6    A    
C21   C121  A    
C204  O72   D    
C91   O99   S    
C66   C84   A    
O45   Zn7   S    
C120  C204  S    
C190  H36   S    
C3    O11   A    
C188  C196  A    
C134  C167  S    
C111  C115  A    
C134  O30   A    
C90   C98   A    
O80   H76   S    
C95   H43   S    
