data_mof_unit_18399.cif
_audit_creation_date              2012-12-11T15:59:36-0500
_audit_creation_method            fapswitch 2.2
_symmetry_space_group_name_H-M    P1
_symmetry_Int_Tables_number       1
_space_group_crystal_system       triclinic
_cell_length_a                    10.736173
_cell_length_b                    10.654149
_cell_length_c                    17.023079
_cell_angle_alpha                 99.198716
_cell_angle_beta                  99.618865
_cell_angle_gamma                 60.780486
_cell_volume                      1668.57232393

loop_
_atom_site_label
_atom_site_type_symbol
_atom_type_description
_atom_site_fract_x
_atom_site_fract_y
_atom_site_fract_z
_atom_type_partial_charge
C1    C     C_R   0.380036 0.715877 0.387629 0.566259
C2    C     C_R   0.932584 0.168818 0.216496 0.024620
C3    C     C_R   0.912758 0.186665 0.298695 0.024965
C4    C     C_R   0.896773 0.423712 0.311116 -0.142573
C5    C     C_R   0.930870 0.402649 0.234198 -0.150320
C6    C     C_R   0.944511 0.038671 0.172742 -0.087999
C7    C     C_R   0.955213 0.926929 0.210674 -0.140852
C8    C     C_R   0.953649 0.940056 0.292780 -0.106078
C9    C     C_R   0.930873 0.069403 0.336630 -0.070639
C10   C     C_R   0.873685 0.322572 0.341005 0.000342
C11   C     C_R   0.363948 0.784506 0.145976 0.034908
C12   C     C_R   0.369000 0.346103 0.357590 0.562389
C13   C     C_R   0.478381 0.785580 0.199698 0.044893
C14   C     C_R   0.470436 0.790769 0.282403 -0.020261
C15   C     C_R   0.291608 0.706788 0.247132 -0.155113
C16   C     C_R   0.282956 0.728121 0.168045 -0.149486
C17   C     C_R   0.597996 0.782966 0.173142 0.313642
C18   C     C_R   0.695852 0.808337 0.230717 -0.114838
C19   C     C_R   0.669661 0.845615 0.310471 -0.163553
C20   C     C_R   0.557341 0.838584 0.336332 -0.097779
C21   C     C_R   0.375379 0.748381 0.306153 0.006742
C22   C     C_R   0.299895 0.277274 0.799399 -0.008057
C23   C     C_R   0.784170 0.373377 0.407126 0.540117
C24   C     C_R   0.427493 0.177053 0.763675 0.039026
C25   C     C_R   0.480401 0.227633 0.713849 0.038902
C26   C     C_R   0.250702 0.448901 0.706940 -0.143848
C27   C     C_R   0.211493 0.411923 0.769593 -0.147920
C28   C     C_R   0.508435 0.030164 0.779675 -0.087414
C29   C     C_R   0.647640 0.944662 0.758623 -0.111793
C30   C     C_R   0.709121 0.004276 0.721415 -0.110753
C31   C     C_R   0.626432 0.144505 0.699257 -0.079365
C32   C     C_R   0.383585 0.356146 0.677417 -0.004505
C33   C     C_1   0.847659 0.327699 0.705296 -0.060438
C34   C     C_R   0.358073 0.769240 0.627411 0.554998
C35   C     C_1   0.894716 0.293332 0.772128 -0.055833
C36   C     C_1   0.339209 0.809185 0.709523 -0.056307
C37   C     C_1   0.313248 0.836741 0.777640 -0.061553
C38   C     C_R   0.960890 0.280028 0.100123 0.570696
C39   C     C_R   0.319280 0.300277 0.119995 0.563160
C40   C     C_R   0.300669 0.879222 0.080332 0.574127
C41   C     C_R   0.944316 0.273268 0.854587 0.547801
C42   C     C_R   0.278998 0.252815 0.877067 0.528738
C43   C     C_R   0.279227 0.884128 0.857429 0.542180
C44   C     C_R   0.408963 0.376461 0.600016 0.552051
C45   C     C_R   0.778566 0.377637 0.628886 0.538478
C46   C     C_1   0.342349 0.336488 0.274180 -0.048023
C47   C     C_1   0.331437 0.326665 0.203308 -0.047891
C48   C     C_R   0.937363 0.282988 0.183477 0.000463
Cr1   Cr    Cr6+3 0.608100 0.610860 0.522250 1.013951
Cr2   Cr    Cr6+3 0.288890 0.599990 0.488420 1.001163
Cr3   Cr    Cr6+3 0.603040 0.289190 0.489390 0.997068
Cr4   Cr    Cr6+3 0.053960 0.052250 0.967380 1.004192
Cr5   Cr    Cr6+3 0.059890 0.373160 0.992710 1.003709
Cr6   Cr    Cr6+3 0.373370 0.061690 0.991710 1.005520
H1    H     H_    0.878240 0.525365 0.345022 0.149126
H2    H     H_    0.792310 0.799533 0.214511 0.093336
H3    H     H_    0.739830 0.875087 0.353249 0.116414
H4    H     H_    0.540021 0.874234 0.398256 0.164267
H5    H     H_    0.176787 0.549654 0.681379 0.145975
H6    H     H_    0.466151 0.981008 0.809636 0.150088
H7    H     H_    0.112725 0.488826 0.794944 0.141277
H8    H     H_    0.708912 0.833791 0.773388 0.119975
H9    H     H_    0.819432 0.941022 0.707880 0.117847
H10   H     H_    0.677315 0.186412 0.670181 0.151990
H11   H     H_    0.944335 0.016372 0.109399 0.174607
H12   H     H_    0.944047 0.485851 0.213147 0.140207
H13   H     H_    0.969380 0.827385 0.175932 0.080860
H14   H     H_    0.968640 0.850294 0.322373 0.111894
H15   H     H_    0.931354 0.075663 0.400733 0.128777
H16   H     H_    0.226942 0.663687 0.262690 0.131622
H17   H     H_    0.204374 0.711494 0.125251 0.134769
O1    O     O_R   0.749810 0.499790 0.438040 -0.524031
O2    O     O_R   0.298970 0.468800 0.557390 -0.494851
O3    O     O_R   0.489400 0.255930 0.561910 -0.515572
O4    O     O_R   0.723890 0.306050 0.584610 -0.538335
O5    O     O_3   0.500010 0.500010 0.500020 -0.279230
O6    O     O_R   0.171100 0.914680 0.053100 -0.556424
O7    O     O_R   0.941680 0.184840 0.050710 -0.505462
O8    O     O_R   0.922080 0.403420 0.072610 -0.483264
O9    O     O_R   0.196880 0.369150 0.083850 -0.522463
O10   O     O_R   0.411730 0.181020 0.091530 -0.504023
O11   O     O_R   0.365010 0.944360 0.063320 -0.463416
O12   O     O_R   0.477660 0.726260 0.439290 -0.508173
O13   O     O_R   0.159380 0.906670 0.876210 -0.509952
O14   O     O_R   0.930820 0.177420 0.886730 -0.471255
O15   O     O_R   0.910360 0.395420 0.895720 -0.499685
O16   O     O_R   0.186010 0.361730 0.919870 -0.505583
O17   O     O_R   0.400000 0.173010 0.914630 -0.505347
O18   O     O_R   0.354140 0.936940 0.899340 -0.534830
O19   O     O_3   0.162410 0.162370 0.983930 -0.307579
O20   O     O_R   0.260150 0.743000 0.412270 -0.520840
O21   O     O_R   0.297740 0.466550 0.394720 -0.514876
O22   O     O_R   0.488080 0.253500 0.386430 -0.498473
O23   O     O_R   0.722670 0.303800 0.421940 -0.505680
O24   O     O_R   0.751130 0.502220 0.613520 -0.501209
O25   O     O_R   0.478890 0.728510 0.601960 -0.486462
O26   O     O_R   0.261470 0.745430 0.587750 -0.521062
O27   O     O_3   0.624566 0.734511 0.093411 -0.541784
C49   C     C_3   0.701844 0.790136 0.064370 -0.063345
H18   H     H_    0.818680 0.724923 0.081607 0.098422
H19   H     H_    0.663928 0.906625 0.084445 0.121189
H20   H     H_    0.684862 0.780675 0.998051 0.138653

loop_
_geom_bond_atom_site_label_1
_geom_bond_atom_site_label_2
_ccdc_geom_bond_type
C25   C31   A    
C1    C21   S    
C33   C45   S    
Cr4   O19   S    
C19   C20   A    
Cr3   O3    S    
C7    C8    A    
C19   H3    S    
C26   C32   A    
C41   O15   A    
C26   C27   A    
C43   O18   A    
C14   C21   A    
C28   C29   A    
Cr5   O8    S    
C34   O25   A    
Cr6   O19   S    
C30   C31   A    
C38   O8    A    
C15   C16   A    
C34   O26   A    
C14   C20   A    
C18   C19   A    
Cr4   O13   S    
C27   H7    S    
C46   C47   T    
C6    H11   S    
C8    C9    A    
Cr1   O1    S    
Cr5   O15   S    
C17   O27   S    
C38   C48   S    
C18   H2    S    
C25   C32   A    
C1    O20   A    
C30   H9    S    
C43   O13   A    
C2    C6    A    
C16   H17   S    
Cr4   O7    S    
C23   O1    A    
C28   H6    S    
C5    C48   A    
C40   O11   A    
Cr5   O9    S    
C24   C25   A    
C39   O10   A    
Cr6   O18   S    
C12   C46   S    
Cr2   O2    S    
C5    H12   S    
C38   O7    A    
C2    C48   A    
Cr1   O24   S    
C37   C43   S    
C29   C30   A    
C3    C9    A    
Cr2   O5    S    
C11   C16   A    
C49   H18   S    
C17   C18   A    
C32   C44   S    
Cr1   O5    S    
Cr5   O16   S    
Cr3   O5    S    
C44   O3    A    
Cr3   O22   S    
Cr2   O21   S    
C49   H19   S    
C8    H14   S    
C22   C27   A    
C4    H1    S    
C9    H15   S    
C22   C24   A    
C12   O22   A    
C42   O17   A    
C4    C10   A    
Cr4   O6    S    
C45   O24   A    
Cr6   O11   S    
C39   C47   S    
C26   H5    S    
C44   O2    A    
C15   H16   S    
C29   H8    S    
Cr4   O14   S    
Cr2   O26   S    
C31   H10   S    
C12   O21   A    
C24   C28   A    
Cr3   O4    S    
C4    C5    A    
C6    C7    A    
C10   C23   S    
C1    O12   A    
C41   O14   A    
C23   O23   A    
C13   C17   A    
C45   O4    A    
C39   O9    A    
Cr1   O12   S    
C2    C3    A    
C3    C10   A    
Cr6   O17   S    
C11   C13   A    
C22   C42   S    
C33   C35   T    
C34   C36   S    
Cr1   O25   S    
C11   C40   S    
C35   C41   S    
Cr3   O23   S    
C7    H13   S    
Cr2   O20   S    
C15   C21   A    
C49   H20   S    
C36   C37   T    
O27   C49   S    
Cr5   O19   S    
C40   O6    A    
C42   O16   A    
C13   C14   A    
C20   H4    S    
Cr6   O10   S    
