data_mof_unit_10976.cif
_audit_creation_date              2012-12-10T19:47:28-0500
_audit_creation_method            fapswitch 2.2
_symmetry_space_group_name_H-M    P1
_symmetry_Int_Tables_number       1
_space_group_crystal_system       triclinic
_cell_length_a                    10.86887
_cell_length_b                    10.849454
_cell_length_c                    12.724599
_cell_angle_alpha                 92.482799
_cell_angle_beta                  92.771671
_cell_angle_gamma                 89.701191
_cell_volume                      1497.33175091

loop_
_atom_site_label
_atom_site_type_symbol
_atom_type_description
_atom_site_fract_x
_atom_site_fract_y
_atom_site_fract_z
_atom_type_partial_charge
C1    C     C_R   0.262037 0.504678 0.500947 0.792757
C2    C     C_R   0.738242 0.500896 0.498962 0.791880
C3    C     C_R   0.505624 0.871347 0.495298 -0.134591
C4    C     C_R   0.497190 0.128309 0.501565 -0.141064
C5    C     C_R   0.415044 0.931978 0.432106 -0.058360
C6    C     C_R   0.588524 0.067693 0.563101 -0.062412
C7    C     C_R   0.170465 0.609178 0.879143 -0.135586
C8    C     C_R   0.796878 0.478793 0.129595 -0.136069
C9    C     C_R   0.111612 0.557366 0.787568 -0.160967
C10   C     C_R   0.852980 0.515200 0.226876 -0.136479
C11   C     C_R   0.129655 0.607315 0.689401 0.122889
C12   C     C_R   0.873044 0.428951 0.304925 0.147564
C13   C     C_R   0.205894 0.711049 0.684901 -0.088559
C14   C     C_R   0.837304 0.305835 0.284601 -0.129026
C15   C     C_R   0.264611 0.762504 0.776436 -0.120888
C16   C     C_R   0.779392 0.270139 0.187653 -0.144809
C17   C     C_R   0.246916 0.711640 0.873488 -0.115639
C18   C     C_R   0.759157 0.356682 0.110367 -0.106135
C19   C     C_R   0.938155 0.547848 0.588448 -0.253983
C20   C     C_R   0.062174 0.470068 0.410737 -0.248994
C21   C     C_R   0.871973 0.504683 0.497057 -0.089495
C22   C     C_R   0.128587 0.510515 0.502435 -0.077820
C23   C     C_R   0.498503 0.262148 0.500845 0.805442
C24   C     C_R   0.502566 0.737807 0.498675 0.800740
C25   C     C_R   0.935017 0.467907 0.406446 -0.020390
C26   C     C_R   0.066142 0.553174 0.592188 -0.003436
C27   C     C_2   0.468135 0.462119 0.030873 -0.280069
C28   C     C_2   0.524236 0.541037 0.968886 -0.287008
C29   C     C_1   0.521121 0.527411 0.852779 0.216246
C30   C     C_1   0.475340 0.473843 0.147138 0.200825
C31   C     C_R   0.865677 0.255862 0.665319 -0.131534
C32   C     C_R   0.122595 0.765133 0.335122 -0.125143
C33   C     C_R   0.777513 0.199088 0.595920 -0.126724
C34   C     C_R   0.206402 0.836678 0.397883 -0.191848
C35   C     C_R   0.676309 0.139196 0.635124 0.161125
C36   C     C_R   0.324369 0.859446 0.363393 0.134507
C37   C     C_R   0.661510 0.141680 0.744151 -0.137412
C38   C     C_R   0.356985 0.810995 0.264309 -0.099853
C39   C     C_R   0.749583 0.198796 0.813130 -0.143405
C40   C     C_R   0.273520 0.738312 0.202161 -0.130195
C41   C     C_R   0.851675 0.255833 0.773894 -0.118470
C42   C     C_R   0.156506 0.715196 0.237567 -0.108397
C43   C     C_R   0.596525 0.938201 0.557009 0.042617
C44   C     C_R   0.409346 0.061542 0.436029 0.031640
Cu1   Cu    Cu3+1 0.492140 0.492110 0.395880 0.970370
Cu2   Cu    Cu3+1 0.507860 0.507890 0.604120 0.973493
H1    H     H_    0.920439 0.298709 0.827703 0.116229
H2    H     H_    0.092301 0.658754 0.189261 0.113776
H3    H     H_    0.221108 0.750907 0.610425 0.102132
H4    H     H_    0.854448 0.237941 0.343372 0.100323
H5    H     H_    0.324070 0.841660 0.772031 0.121204
H6    H     H_    0.750457 0.175493 0.172343 0.116431
H7    H     H_    0.889814 0.579871 0.657094 0.162704
H8    H     H_    0.109332 0.439327 0.341166 0.163294
H9    H     H_    0.574788 0.618796 0.005628 0.148312
H10   H     H_    0.417130 0.384547 0.994259 0.158795
H11   H     H_    0.945887 0.297967 0.635049 0.138880
H12   H     H_    0.031705 0.748011 0.362408 0.131332
H13   H     H_    0.789699 0.198559 0.512127 0.088657
H14   H     H_    0.179505 0.876045 0.472625 0.105683
H15   H     H_    0.583857 0.095916 0.775610 0.111740
H16   H     H_    0.447689 0.827827 0.236349 0.110683
H17   H     H_    0.739920 0.196115 0.896991 0.115081
H18   H     H_    0.299869 0.699175 0.126929 0.116214
H19   H     H_    0.292752 0.751609 0.944122 0.116462
H20   H     H_    0.713095 0.329778 0.035969 0.126270
H21   H     H_    0.156938 0.569846 0.954464 0.124480
H22   H     H_    0.781981 0.545419 0.069413 0.120997
H23   H     H_    0.052864 0.477890 0.792964 0.116098
H24   H     H_    0.880310 0.610424 0.241636 0.104777
N1    N     N_1   0.480320 0.480250 0.239400 -0.155461
N2    N     N_1   0.519680 0.519750 0.760600 -0.156431
O1    O     O_R   0.313000 0.493330 0.412070 -0.582032
O2    O     O_R   0.687000 0.506670 0.587930 -0.581301
O3    O     O_R   0.326280 0.506660 0.587930 -0.570291
O4    O     O_R   0.673720 0.493340 0.412070 -0.568498
O5    O     O_R   0.493370 0.312980 0.412070 -0.577820
O6    O     O_R   0.506630 0.687020 0.587930 -0.594895
O7    O     O_R   0.506650 0.326310 0.587930 -0.567090
O8    O     O_R   0.493350 0.673690 0.412070 -0.570757
C45   C     C_3   0.706798 0.874491 0.612210 -0.388930
C46   C     C_3   0.825765 0.888596 0.553149 -0.353129
C47   C     C_3   0.938400 0.892201 0.629568 -0.833231
H25   H     H_    0.934817 0.975011 0.683813 0.264201
H26   H     H_    0.942212 0.808362 0.676559 0.256226
H27   H     H_    0.023109 0.896876 0.585160 0.229272
H28   H     H_    0.834661 0.809369 0.495517 0.203251
H29   H     H_    0.824482 0.973469 0.507626 0.220483
H30   H     H_    0.718023 0.911392 0.694740 0.203364
H31   H     H_    0.695429 0.774735 0.621061 0.204816
C48   C     C_3   0.305804 0.127864 0.374620 -0.367902
C49   C     C_3   0.335168 0.140466 0.258566 -0.304773
C50   C     C_3   0.244577 0.227281 0.203489 -0.854661
H32   H     H_    0.148433 0.195333 0.210238 0.252184
H33   H     H_    0.254357 0.322197 0.238870 0.266206
H34   H     H_    0.264333 0.229507 0.118786 0.229686
H35   H     H_    0.430022 0.176089 0.252266 0.235284
H36   H     H_    0.329834 0.049059 0.216313 0.207579
H37   H     H_    0.217157 0.078698 0.378892 0.183408
H38   H     H_    0.286577 0.219966 0.411717 0.193356

loop_
_geom_bond_atom_site_label_1
_geom_bond_atom_site_label_2
_ccdc_geom_bond_type
C50   H32   S    
Cu1   N1    S    
C32   H12   S    
C30   N1    T    
C49   H36   S    
C39   C41   A    
Cu1   Cu2   S    
C3    C43   A    
Cu1   O4    S    
C28   C29   S    
C19   C21   A    
C9    H23   S    
Cu2   O7    S    
C20   C25   A    
C46   H28   S    
C5    C36   S    
C6    C35   S    
Cu1   O1    S    
C19   C26   A    
C50   H33   S    
C24   O8    A    
C7    C17   A    
C31   C33   A    
C15   H5    S    
C48   H38   S    
Cu2   N2    S    
C2    O2    A    
C29   N2    T    
C45   H30   S    
C19   H7    S    
C40   C42   A    
C1    C22   S    
C33   H13   S    
C27   C30   S    
C34   H14   S    
C3    C24   S    
Cu2   O3    S    
C28   H9    S    
C49   H35   S    
C45   C46   S    
C1    O3    A    
C20   H8    S    
C48   C49   S    
Cu2   O6    S    
C4    C23   S    
C27   H10   S    
C4    C44   A    
C11   C26   S    
C8    C18   A    
C32   C34   A    
C47   H25   S    
C2    C21   S    
C41   H1    S    
C42   H2    S    
C23   O5    A    
C9    C11   A    
C44   C48   S    
C10   C12   A    
C13   H3    S    
C45   H31   S    
C10   H24   S    
C4    C6    A    
C47   H26   S    
C5    C44   A    
C20   C22   A    
C8    H22   S    
C50   H34   S    
C6    C43   A    
C13   C15   A    
C43   C45   S    
C14   C16   A    
Cu2   O2    S    
C2    O4    A    
C24   O6    A    
C15   C17   A    
C21   C25   A    
C31   C41   A    
C35   C37   A    
C8    C10   A    
C16   H6    S    
C12   C14   A    
C3    C5    A    
C37   H15   S    
C18   H20   S    
C39   H17   S    
C17   H19   S    
C40   H18   S    
C12   C25   S    
C1    O1    A    
C31   H11   S    
C36   C38   A    
C37   C39   A    
C48   H37   S    
C38   C40   A    
C11   C13   A    
C14   H4    S    
C46   H29   S    
C49   C50   S    
C33   C35   A    
Cu1   O8    S    
C34   C36   A    
C7    H21   S    
C7    C9    A    
C47   H27   S    
C16   C18   A    
C46   C47   S    
C22   C26   A    
C27   C28   D    
C32   C42   A    
Cu1   O5    S    
C23   O7    A    
C38   H16   S    
