data_mof_unit_40105.cif
_audit_creation_date              2013-03-05T16:06:47-0500
_audit_creation_method            fapswitch 2.2
_symmetry_space_group_name_H-M    P1
_symmetry_Int_Tables_number       1
_space_group_crystal_system       triclinic
_cell_length_a                    10.807366
_cell_length_b                    9.686072
_cell_length_c                    19.344476
_cell_angle_alpha                 89.802048
_cell_angle_beta                  101.029121
_cell_angle_gamma                 90.186446
_cell_volume                      1987.57729492

loop_
_atom_site_label
_atom_site_type_symbol
_atom_site_description
_atom_site_fract_x
_atom_site_fract_y
_atom_site_fract_z
_atom_type_partial_charge
O1    O     O_R   0.319640 0.618740 0.500000 -0.540880
O2    O     O_R   0.680360 0.381260 0.500000 -0.541802
O3    O     O_R   0.680360 0.618740 0.500000 -0.533692
O4    O     O_R   0.319640 0.381260 0.500000 -0.535273
C1    C     C_R   0.871287 0.499941 0.499134 -0.081546
C2    C     C_R   0.128708 0.500055 0.500858 -0.079088
C3    C     C_R   0.262762 0.499912 0.500964 0.830040
C4    C     C_R   0.737238 0.500088 0.499038 0.831414
O5    O     O_R   0.500020 0.618830 0.400190 -0.512456
O6    O     O_R   0.499980 0.381170 0.599810 -0.512858
O7    O     O_R   0.499980 0.618830 0.599810 -0.518642
O8    O     O_R   0.500020 0.381170 0.400190 -0.520283
C5    C     C_R   0.501589 0.500274 0.368278 0.884702
C6    C     C_R   0.498351 0.499735 0.631698 0.887176
Cu1   Cu    Cu3+1 0.500000 0.640660 0.500000 1.109994
Cu2   Cu    Cu3+1 0.500000 0.359340 0.500000 1.108516
C7    C     C_R   0.068982 0.378300 0.516016 -0.116676
C8    C     C_R   0.931012 0.621695 0.483974 -0.117866
C9    C     C_R   0.940637 0.378084 0.514901 -0.109767
C10   C     C_R   0.059358 0.621910 0.485087 -0.103763
H1    H     H_    0.121373 0.283671 0.529261 0.197191
H2    H     H_    0.878625 0.716329 0.470738 0.197379
H3    H     H_    0.896214 0.282962 0.526956 0.209205
H4    H     H_    0.103782 0.717033 0.473037 0.209113
C11   C     C_R   0.384314 0.476850 0.729944 -0.244410
C12   C     C_R   0.389246 0.479492 0.245248 -0.142148
C13   C     C_R   0.613910 0.523987 0.269270 -0.269360
C14   C     C_R   0.609173 0.520071 0.755034 -0.174607
H5    H     H_    0.298492 0.460265 0.691584 0.183218
H6    H     H_    0.302741 0.463701 0.264386 0.200729
H7    H     H_    0.700095 0.541227 0.307243 0.164468
H8    H     H_    0.696182 0.534979 0.736289 0.176886
C15   C     C_R   0.381642 0.477171 0.801911 0.444432
C16   C     C_R   0.387376 0.479918 0.172952 0.407413
C17   C     C_R   0.615433 0.523398 0.197158 0.410594
C18   C     C_R   0.609818 0.520225 0.827219 0.364203
C19   C     C_R   0.495228 0.498936 0.851069 -0.039089
C20   C     C_R   0.501292 0.501436 0.148487 -0.042458
C21   C     C_R   0.412009 0.075403 0.451048 0.314640
C22   C     C_R   0.587975 0.924579 0.548969 0.320164
C23   C     C_R   0.587342 0.075620 0.549421 0.303031
C24   C     C_R   0.412654 0.924373 0.450587 0.297937
C25   C     C_R   0.497266 0.499006 0.706739 -0.126250
C26   C     C_R   0.501634 0.501070 0.293096 -0.130879
C27   C     C_R   0.477964 0.624111 0.961069 0.376040
C28   C     C_R   0.516960 0.375976 0.038315 0.378650
C29   C     C_R   0.481163 0.625051 0.033758 0.376341
C30   C     C_R   0.514130 0.375104 0.965661 0.375449
N1    N     N_R   0.500000 0.852070 0.500000 -0.314416
N2    N     N_R   0.500000 0.147930 0.500000 -0.314382
C31   C     C_R   0.500589 0.500970 0.072316 -0.186750
C32   C     C_R   0.494731 0.499189 0.927107 -0.188337
S1    S     S_3+6 0.283846 0.163909 0.390866 0.114224
O9    O     O_2   0.273056 0.108005 0.317708 -0.152863
O10   O     O_2   0.165130 0.131515 0.417588 -0.282513
O11   O     O_3   0.278719 0.334239 0.376553 -0.524768
H9    H     H_    0.191075 0.354033 0.352471 0.358947
S2    S     S_3+6 0.716059 0.836021 0.609213 0.108145
O12   O     O_2   0.834849 0.868374 0.582561 -0.276220
O13   O     O_2   0.726723 0.891968 0.682357 -0.176207
O14   O     O_3   0.721198 0.665676 0.623544 -0.527114
H10   H     H_    0.808493 0.646097 0.648267 0.357250
S3    S     S_3+6 0.693211 0.164713 0.622018 0.109182
O15   O     O_2   0.640463 0.136907 0.687246 -0.207890
O16   O     O_2   0.823823 0.106461 0.631756 -0.210449
O17   O     O_3   0.722068 0.334568 0.623225 -0.530596
H11   H     H_    0.782854 0.351760 0.667650 0.357873
S4    S     S_3+6 0.306756 0.835275 0.378007 0.116196
O18   O     O_2   0.176130 0.893474 0.368324 -0.202113
O19   O     O_2   0.359419 0.863147 0.312757 -0.203034
O20   O     O_3   0.277950 0.665415 0.376783 -0.532551
H12   H     H_    0.216990 0.648264 0.332420 0.368731
S5    S     S_3+6 0.235306 0.450144 0.828611 0.101929
O21   O     O_2   0.242759 0.321586 0.872910 -0.184227
O22   O     O_2   0.206811 0.571065 0.871381 -0.181435
O23   O     O_3   0.118493 0.432364 0.757946 -0.523303
H13   H     H_    0.043716 0.404188 0.777329 0.410296
S6    S     S_3+6 0.241182 0.453550 0.114742 0.119685
O24   O     O_2   0.213048 0.575297 0.065973 -0.180848
O25   O     O_2   0.248434 0.325662 0.071969 -0.179294
O26   O     O_3   0.124071 0.434982 0.160186 -0.482046
H14   H     H_    0.046808 0.422813 0.123830 0.434402
S7    S     S_3+6 0.760975 0.550383 0.169532 0.097355
O27   O     O_2   0.786331 0.432848 0.123713 -0.237713
O28   O     O_2   0.754445 0.681855 0.127588 -0.138626
O29   O     O_3   0.880547 0.562906 0.239141 -0.482196
H15   H     H_    0.896595 0.467024 0.256459 0.355614
S8    S     S_3+6 0.755498 0.545765 0.886118 0.119767
O30   O     O_2   0.746556 0.667911 0.932590 -0.187667
O31   O     O_2   0.785867 0.419940 0.931751 -0.154700
O32   O     O_3   0.873197 0.572674 0.841869 -0.467175
H16   H     H_    0.860715 0.668124 0.823335 0.382311
Cl1   Cl    Cl    0.453716 0.779944 0.912446 -0.321248
Cl2   Cl    Cl    0.541396 0.220166 0.086950 -0.319991
Cl3   Cl    Cl    0.460088 0.781911 0.076596 -0.299720
Cl4   Cl    Cl    0.535672 0.218324 0.922871 -0.306647

loop_
_geom_bond_atom_site_label_1
_geom_bond_atom_site_label_2
_geom_bond_distance
_ccdc_geom_bond_type
S3    O16   1.499698 D    
S5    O21   1.502753 D    
C27   Cl1   1.769217 S    
C11   C25   1.394637 A    
O26   H14   0.990447 S    
C12   C26   1.394719 A    
S1    O9    1.500461 D    
C18   S8    1.775169 S    
C18   C19   1.416098 A    
Cu2   N2    2.047733 S    
O7    C6    1.307911 A    
S6    O25   1.502585 D    
S2    O13   1.500493 D    
Cu1   Cu2   2.724886 S    
O11   H9    0.991317 S    
O5    C5    1.307318 A    
O1    C3    1.304832 A    
O7    Cu1   1.941629 S    
C13   C26   1.394847 A    
C12   C16   1.394797 A    
C10   H4    1.082699 S    
S4    O18   1.499705 D    
O1    Cu1   1.960059 S    
O2    Cu2   1.960059 S    
S2    O14   1.671497 S    
C27   C29   1.399980 A    
O17   H11   0.991002 S    
S3    O17   1.672928 S    
C16   C20   1.415518 A    
C24   S4    1.847444 S    
S5    O22   1.502576 D    
O4    C3    1.306969 A    
C21   C24   1.462996 A    
S1    O10   1.503923 D    
C11   H5    1.083169 S    
C28   C30   1.399970 A    
C22   S2    1.842187 S    
C13   H7    1.083090 S    
O8    Cu2   1.941630 S    
C14   H8    1.079724 S    
C17   C20   1.417273 A    
O23   H13   0.990938 S    
O3    C4    1.306962 A    
O6    C6    1.307252 A    
O32   H16   0.990718 S    
C19   C32   1.471958 S    
C17   S7    1.773697 S    
S6    O24   1.502667 D    
C29   C31   1.407272 A    
C20   C31   1.472084 S    
C27   C32   1.407494 A    
C13   C17   1.398253 A    
S2    O12   1.503895 D    
C28   C31   1.407525 A    
C15   C19   1.417289 A    
O4    Cu2   1.961433 S    
C9    H3    1.082706 S    
S7    O27   1.502889 D    
C28   Cl2   1.769259 S    
S8    O32   1.682728 S    
C21   N2    1.396505 A    
S8    O30   1.502853 D    
C15   S5    1.773519 S    
C22   C23   1.463095 A    
S7    O28   1.502174 D    
S8    O31   1.502206 D    
C12   H6    1.079613 S    
S5    O23   1.682840 S    
C23   S3    1.847479 S    
C23   N2    1.396411 A    
O3    Cu1   1.961433 S    
O29   H15   0.990704 S    
S1    O11   1.671294 S    
C2    C7    1.399469 A    
C30   Cl4   1.769236 S    
C8    H2    1.082876 S    
O2    C4    1.304828 A    
C1    C4    1.448373 S    
C2    C3    1.448380 S    
C1    C9    1.401321 A    
C2    C10   1.401318 A    
C14   C25   1.394465 A    
O5    Cu1   1.943083 S    
O20   H12   0.990995 S    
O6    Cu2   1.943081 S    
C16   S6    1.774301 S    
S6    O26   1.682325 S    
C21   S1    1.841910 S    
C1    C8    1.399467 A    
S4    O20   1.672883 S    
C7    C9    1.383107 A    
C8    C10   1.383111 A    
Cu1   N1    2.047732 S    
O14   H10   0.991293 S    
C7    H1    1.082871 S    
C24   N1    1.396303 A    
S3    O15   1.503847 D    
C30   C32   1.407251 A    
S7    O29   1.682913 S    
O8    C5    1.308144 A    
C14   C18   1.395077 A    
S4    O19   1.503845 D    
C29   Cl3   1.769242 S    
C5    C26   1.454444 S    
C22   N1    1.396505 A    
C11   C15   1.397979 A    
C6    C25   1.453910 S    
