data_mof_unit_15964.cif
_audit_creation_date              2012-12-10T17:50:14-0500
_audit_creation_method            fapswitch 2.2
_symmetry_space_group_name_H-M    P1
_symmetry_Int_Tables_number       1
_space_group_crystal_system       triclinic
_cell_length_a                    10.615693
_cell_length_b                    14.707595
_cell_length_c                    14.731612
_cell_angle_alpha                 65.111258
_cell_angle_beta                  103.196926
_cell_angle_gamma                 102.707955
_cell_volume                      2011.26122986

loop_
_atom_site_label
_atom_site_type_symbol
_atom_type_description
_atom_site_fract_x
_atom_site_fract_y
_atom_site_fract_z
_atom_type_partial_charge
C1    C     C_R   0.477031 0.119698 0.312348 0.793538
C2    C     C_R   0.520833 0.880324 0.687639 0.792248
C3    C     C_R   0.473660 0.291780 0.178904 -0.257961
C4    C     C_R   0.506391 0.708180 0.820996 -0.252620
C5    C     C_R   0.454878 0.360123 0.077484 0.088690
C6    C     C_R   0.491745 0.639152 0.920017 0.089392
C7    C     C_R   0.426931 0.320666 0.001152 0.165151
C8    C     C_R   0.505035 0.678387 0.995220 0.163219
C9    C     C_R   0.467239 0.466483 0.050031 0.064207
C10   C     C_R   0.465974 0.532589 0.946382 0.063783
C11   C     C_R   0.436031 0.489987 0.872463 -0.223852
C12   C     C_R   0.478356 0.508773 0.122442 -0.222956
C13   C     C_R   0.415627 0.386037 0.899649 -0.230503
C14   C     C_R   0.496026 0.612699 0.095110 -0.231048
C15   C     C_R   0.716407 0.284039 0.668932 -0.320560
C16   C     C_R   0.284445 0.716406 0.330391 -0.323077
C17   C     C_R   0.682868 0.202663 0.639178 0.077309
C18   C     C_R   0.317549 0.797552 0.360503 0.077552
C19   C     C_R   0.519204 0.285534 0.508723 0.002756
C20   C     C_R   0.480824 0.714484 0.491207 0.001640
C21   C     C_R   0.549081 0.371445 0.534794 -0.023233
C22   C     C_R   0.451409 0.628815 0.464757 -0.022572
C23   C     C_R   0.259568 0.000506 0.500058 0.784418
C24   C     C_R   0.740438 0.999486 0.499955 0.784740
C25   C     C_R   0.649538 0.368295 0.617537 0.164518
C26   C     C_R   0.351308 0.632145 0.381755 0.165392
C27   C     C_R   0.482907 0.459052 0.483025 0.078696
C28   C     C_R   0.517735 0.541286 0.516398 0.075544
C29   C     C_R   0.617402 0.533095 0.600271 -0.240680
C30   C     C_R   0.383530 0.467383 0.398950 -0.243962
C31   C     C_R   0.682079 0.448650 0.649140 -0.196039
C32   C     C_R   0.319112 0.551961 0.349892 -0.204220
C33   C     C_3   0.016579 0.010879 0.408088 -0.171947
C34   C     C_3   0.983448 0.989105 0.591944 -0.172750
C35   C     C_3   0.962059 0.087543 0.430050 -0.164573
C36   C     C_3   0.037970 0.912441 0.569983 -0.164834
C37   C     C_3   0.877131 0.998826 0.499742 0.021117
C38   C     C_3   0.122890 0.001158 0.500289 0.021680
C39   C     C_3   0.929345 0.922112 0.477771 -0.135348
C40   C     C_3   0.070683 0.077871 0.522261 -0.135053
C41   C     C_R   0.458909 0.187363 0.204816 -0.053113
C42   C     C_R   0.523429 0.812676 0.794831 -0.053881
C43   C     C_R   0.411330 0.215873 0.027173 -0.201806
C44   C     C_R   0.526521 0.783328 0.969563 -0.202265
C45   C     C_R   0.426272 0.149499 0.128465 -0.200273
C46   C     C_R   0.534405 0.850171 0.869703 -0.199784
Cu1   Cu    Cu3+1 0.465750 0.918270 0.475680 0.931475
Cu2   Cu    Cu3+1 0.534250 0.081730 0.524320 0.931259
H1    H     H_    0.927710 0.159050 0.372739 0.132397
H2    H     H_    0.072345 0.840942 0.627297 0.132920
H3    H     H_    0.557246 0.719749 0.551575 0.121504
H4    H     H_    0.442446 0.280111 0.448600 0.121573
H5    H     H_    0.266950 0.863084 0.320294 0.122654
H6    H     H_    0.733530 0.137165 0.679356 0.123257
H7    H     H_    0.648114 0.590890 0.630561 0.130894
H8    H     H_    0.353019 0.409663 0.368552 0.128695
H9    H     H_    0.868821 0.858298 0.459614 0.139506
H10   H     H_    0.131212 0.141683 0.540419 0.139000
H11   H     H_    0.506422 0.682545 0.762550 0.146486
H12   H     H_    0.503718 0.318323 0.239398 0.151628
H13   H     H_    0.547597 0.930854 0.850997 0.153520
H14   H     H_    0.413980 0.068906 0.146900 0.152043
N1    N     N_R   0.585750 0.204560 0.560800 -0.176731
N2    N     N_R   0.414250 0.795440 0.439200 -0.176387
O1    O     O_R   0.454850 0.022100 0.338110 -0.589902
O2    O     O_R   0.545150 0.977900 0.661890 -0.590039
O3    O     O_R   0.512700 0.160150 0.379180 -0.589867
O4    O     O_R   0.487300 0.839850 0.620820 -0.589246
O5    O     O_R   0.287930 0.931000 0.479440 -0.581890
O6    O     O_R   0.712070 0.069000 0.520560 -0.581690
O7    O     O_R   0.345780 0.069050 0.520520 -0.588851
O8    O     O_R   0.654220 0.930950 0.479480 -0.588291
H15   H     H_    0.793597 0.280820 0.732248 0.137151
H16   H     H_    0.207594 0.719807 0.266828 0.137306
H17   H     H_    0.033475 0.019943 0.332902 0.126797
H18   H     H_    0.966573 0.980048 0.667133 0.125993
H19   H     H_    0.392695 0.356679 0.840587 0.147692
H20   H     H_    0.503572 0.641815 0.152935 0.151498
H21   H     H_    0.388444 0.185319 0.969054 0.132112
H22   H     H_    0.535671 0.813669 0.026634 0.133026
H23   H     H_    0.423576 0.534728 0.792234 0.146605
H24   H     H_    0.469648 0.463587 0.200856 0.142653
H25   H     H_    0.758270 0.446050 0.712960 0.142698
H26   H     H_    0.243327 0.554754 0.285788 0.143870

loop_
_geom_bond_atom_site_label_1
_geom_bond_atom_site_label_2
_ccdc_geom_bond_type
C25   C31   A    
C38   C40   S    
C26   C32   A    
C34   C37   S    
C23   O5    A    
C24   O6    A    
C11   H23   S    
C33   C39   S    
C16   H16   S    
C28   C29   A    
C35   C37   S    
C20   H3    S    
C2    O4    A    
C15   C25   A    
C43   H21   S    
C39   H9    S    
C45   H14   S    
C31   H25   S    
C42   C46   A    
Cu1   O5    S    
C18   H5    S    
C33   C35   S    
C19   H4    S    
C33   H17   S    
C19   N1    A    
C35   H1    S    
C1    O1    A    
C7    C43   A    
C9    C10   A    
C3    H12   S    
C21   C27   A    
C22   C28   A    
C27   C30   A    
C44   C46   A    
C16   C26   A    
C32   H26   S    
C13   H19   S    
C40   H10   S    
C46   H13   S    
C23   O7    A    
C44   H22   S    
C4    C6    A    
Cu2   O6    S    
Cu1   N2    S    
C5    C7    A    
Cu2   N1    S    
C6    C8    A    
C29   H7    S    
C3    C5    A    
C30   H8    S    
C20   N2    A    
C5    C9    A    
C37   C39   S    
Cu1   Cu2   S    
C24   C37   S    
C12   H24   S    
C43   C45   A    
C1    C41   S    
C15   H15   S    
C12   C14   A    
C34   C40   S    
Cu2   O7    S    
Cu1   O4    S    
C36   H2    S    
C24   O8    A    
C15   C17   A    
C21   C25   A    
C3    C41   A    
C8    C14   A    
C19   C21   A    
C36   C39   S    
C8    C44   A    
C20   C22   A    
C2    O2    A    
C6    C10   A    
C23   C38   S    
C33   C38   S    
C36   C38   S    
C35   C40   S    
C29   C31   A    
C17   N1    A    
C30   C32   A    
C11   C13   A    
C18   N2    A    
C4    C42   A    
C2    C42   S    
C4    H11   S    
C1    O3    A    
C34   C36   S    
C14   H20   S    
Cu2   O3    S    
C9    C12   A    
Cu1   O8    S    
C10   C11   A    
C7    C13   A    
C16   C18   A    
C22   C26   A    
C27   C28   A    
C41   C45   A    
Cu2   O2    S    
C17   H6    S    
Cu1   O1    S    
C34   H18   S    
