data_mof_unit_11584.cif
_audit_creation_date              2012-12-11T14:45:32-0500
_audit_creation_method            fapswitch 2.2
_symmetry_space_group_name_H-M    P1
_symmetry_Int_Tables_number       1
_space_group_crystal_system       triclinic
_cell_length_a                    24.509923
_cell_length_b                    7.216461
_cell_length_c                    14.577497
_cell_angle_alpha                 91.044071
_cell_angle_beta                  101.635058
_cell_angle_gamma                 89.257308
_cell_volume                      2524.87979654

loop_
_atom_site_label
_atom_site_type_symbol
_atom_type_description
_atom_site_fract_x
_atom_site_fract_y
_atom_site_fract_z
_atom_type_partial_charge
O1    O     O_R   0.319150 0.364170 0.330530 -0.535748
O2    O     O_R   0.680850 0.635830 0.669470 -0.537883
O3    O     O_R   0.180850 0.864170 0.169470 -0.532536
O4    O     O_R   0.819150 0.135830 0.830530 -0.538675
O5    O     O_R   0.210330 0.696850 0.354180 -0.532377
O6    O     O_R   0.789670 0.303150 0.645820 -0.541648
O7    O     O_R   0.289670 0.196850 0.145820 -0.534925
O8    O     O_R   0.710330 0.803150 0.854180 -0.540491
C1    C     C_R   0.198014 0.527611 0.379852 0.673701
C2    C     C_R   0.802451 0.472701 0.621275 0.662772
C3    C     C_R   0.302293 0.023256 0.121334 0.665398
C4    C     C_R   0.697617 0.977364 0.879014 0.670468
O9    O     O_R   0.320550 0.694110 0.341970 -0.541909
O10   O     O_R   0.679450 0.305890 0.658030 -0.536311
O11   O     O_R   0.179450 0.194110 0.158030 -0.541089
O12   O     O_R   0.820550 0.805890 0.841970 -0.539366
O13   O     O_R   0.291860 0.861000 0.157170 -0.538686
O14   O     O_R   0.708140 0.139000 0.842830 -0.528619
O15   O     O_R   0.208140 0.361000 0.342830 -0.538592
O16   O     O_R   0.791860 0.639000 0.657170 -0.532532
C5    C     C_R   0.342043 0.525190 0.361297 0.679098
C6    C     C_R   0.659104 0.474750 0.635811 0.683420
C7    C     C_R   0.159193 0.025004 0.135472 0.680169
C8    C     C_R   0.842024 0.974296 0.861225 0.680498
O17   O     O_3   0.240460 0.529330 0.189380 -0.375423
O18   O     O_3   0.759540 0.470670 0.810620 -0.375325
O19   O     O_3   0.259540 0.029330 0.310620 -0.376107
O20   O     O_3   0.740460 0.970670 0.689380 -0.375772
V1    V     V_3+5 0.251770 0.805510 0.261240 1.426039
V2    V     V_3+5 0.748230 0.194490 0.738760 1.427957
V3    V     V_3+5 0.248230 0.305510 0.238760 1.423758
V4    V     V_3+5 0.751770 0.694490 0.761240 1.423459
C9    C     C_R   0.105202 0.016689 0.067258 -0.092720
C10   C     C_R   0.897017 0.980734 0.926569 -0.067468
C11   C     C_R   0.396943 0.512415 0.426534 -0.066305
C12   C     C_R   0.605255 0.485797 0.567832 -0.088163
C13   C     C_R   0.958014 0.907463 0.075327 -0.206522
C14   C     C_R   0.045838 0.075109 0.914503 -0.171025
C15   C     C_R   0.547891 0.569931 0.416981 -0.175090
C16   C     C_R   0.455779 0.415877 0.573438 -0.209859
C17   C     C_R   0.903750 0.919386 0.020152 0.074007
C18   C     C_R   0.100039 0.067468 0.972022 0.071857
C19   C     C_R   0.601652 0.545343 0.474418 0.073350
C20   C     C_R   0.402086 0.440239 0.517870 0.074279
C21   C     C_R   0.944311 0.035557 0.892569 -0.223368
C22   C     C_R   0.058141 0.957541 0.099205 -0.252582
C23   C     C_R   0.556754 0.437926 0.598392 -0.259190
C24   C     C_R   0.445557 0.558760 0.394141 -0.223247
C25   C     C_R   0.998300 0.025955 0.949110 0.104510
C26   C     C_R   0.004899 0.962047 0.041296 0.108866
C27   C     C_R   0.503889 0.461464 0.540963 0.109213
C28   C     C_R   0.499096 0.532040 0.450405 0.107412
H1    H     H_    0.063439 0.908741 0.170050 0.144893
H2    H     H_    0.938978 0.083334 0.821421 0.117941
H3    H     H_    0.441546 0.613117 0.324412 0.113555
H4    H     H_    0.560702 0.381149 0.667450 0.152914
H5    H     H_    0.963923 0.855970 0.145620 0.152801
H6    H     H_    0.039917 0.113932 0.842110 0.111579
H7    H     H_    0.543157 0.613630 0.345515 0.114507
H8    H     H_    0.460400 0.359613 0.642552 0.152923
C29   C     C_R   0.665291 0.998929 0.953283 -0.050939
C30   C     C_R   0.336170 0.010595 0.049871 -0.050510
C31   C     C_R   0.836162 0.475195 0.549348 -0.054012
C32   C     C_R   0.166165 0.531827 0.455458 -0.055638
C33   C     C_R   0.659760 0.093652 0.112121 -0.138333
C34   C     C_R   0.346522 0.946877 0.890967 -0.152055
C35   C     C_R   0.848032 0.417880 0.390529 -0.154564
C36   C     C_R   0.158561 0.621609 0.614336 -0.140742
C37   C     C_R   0.691182 0.052065 0.043967 -0.190634
C38   C     C_R   0.314180 0.946428 0.959536 -0.181377
C39   C     C_R   0.815406 0.410305 0.458555 -0.179801
C40   C     C_R   0.190588 0.594236 0.545558 -0.187176
C41   C     C_R   0.607470 0.003433 0.928722 -0.141812
C42   C     C_R   0.391799 0.059876 0.074256 -0.159506
C43   C     C_R   0.891101 0.532279 0.574528 -0.157751
C44   C     C_R   0.108709 0.512119 0.432459 -0.138858
C45   C     C_R   0.574877 0.062092 0.993690 0.068659
C46   C     C_R   0.425551 0.063710 0.006823 0.067444
C47   C     C_R   0.925228 0.541555 0.507800 0.068312
C48   C     C_R   0.074903 0.561792 0.497106 0.067515
C49   C     C_R   0.600848 0.097390 0.088790 0.037051
C50   C     C_R   0.402017 0.011183 0.912115 0.040440
C51   C     C_R   0.902725 0.488800 0.412782 0.039440
C52   C     C_R   0.099920 0.604614 0.591786 0.035705
C53   C     C_R   0.516405 0.077313 0.965777 -0.133584
C54   C     C_R   0.483299 0.104022 0.032529 -0.131079
C55   C     C_R   0.982529 0.587532 0.534585 -0.131423
C56   C     C_R   0.016367 0.565802 0.468545 -0.134371
C57   C     C_R   0.509289 0.176870 0.120812 0.423625
C58   C     C_R   0.489878 0.092038 0.871417 0.429044
C59   C     C_R   0.990228 0.579522 0.373916 0.428582
C60   C     C_R   0.007029 0.663945 0.622892 0.425897
C61   C     C_R   0.566858 0.149338 0.154141 -0.030719
C62   C     C_R   0.434529 0.033329 0.842418 -0.030004
C63   C     C_R   0.935433 0.516688 0.343909 -0.031450
C64   C     C_R   0.064909 0.646865 0.656968 -0.030117
H9    H     H_    0.408166 0.086492 0.147602 0.153779
H10   H     H_    0.588280 0.964356 0.857555 0.127587
H11   H     H_    0.090466 0.465831 0.361981 0.130885
H12   H     H_    0.907017 0.558464 0.648094 0.153445
H13   H     H_    0.271761 0.897630 0.941956 0.110868
H14   H     H_    0.735834 0.067250 0.060985 0.124067
H15   H     H_    0.234475 0.625952 0.561986 0.123734
H16   H     H_    0.773681 0.355254 0.440179 0.112469
H17   H     H_    0.682701 0.133561 0.180533 0.109139
H18   H     H_    0.327085 0.894876 0.822614 0.112741
H19   H     H_    0.829682 0.364924 0.321782 0.114318
H20   H     H_    0.180233 0.669548 0.682277 0.109985
C65   C     C_3   0.153273 0.085031 0.932986 -0.354752
C66   C     C_3   0.148210 0.159750 0.833029 -0.324309
C67   C     C_3   0.201650 0.127212 0.796354 -0.792576
H21   H     H_    0.237246 0.196307 0.843102 0.242124
H22   H     H_    0.210403 0.976422 0.791172 0.221786
H23   H     H_    0.196742 0.186455 0.725348 0.229259
H24   H     H_    0.114021 0.095694 0.781973 0.185867
H25   H     H_    0.141089 0.310528 0.833872 0.214639
H26   H     H_    0.182745 0.177230 0.980220 0.172502
H27   H     H_    0.172647 0.944603 0.935822 0.163638
C68   C     C_3   0.854354 0.861085 0.061832 -0.362759
C69   C     C_3   0.849730 0.971153 0.151545 -0.322439
C70   C     C_3   0.808565 0.883324 0.203798 -0.799690
H28   H     H_    0.793657 0.989175 0.249514 0.219966
H29   H     H_    0.772239 0.824414 0.154601 0.235243
H30   H     H_    0.829025 0.770121 0.248927 0.232890
H31   H     H_    0.890392 0.977877 0.200856 0.192142
H32   H     H_    0.835984 0.115156 0.132482 0.193446
H33   H     H_    0.814251 0.879447 0.011783 0.159018
H34   H     H_    0.857902 0.710966 0.076112 0.184350
C71   C     C_3   0.351777 0.380959 0.556591 -0.361857
C72   C     C_3   0.346588 0.486505 0.647217 -0.323998
C73   C     C_3   0.303964 0.397552 0.695934 -0.794400
H35   H     H_    0.291295 0.498177 0.746476 0.220633
H36   H     H_    0.266462 0.352960 0.644675 0.237800
H37   H     H_    0.322257 0.274132 0.735255 0.230747
H38   H     H_    0.386859 0.488612 0.697869 0.192302
H39   H     H_    0.333890 0.632126 0.630077 0.191862
H40   H     H_    0.312194 0.401852 0.505470 0.160475
H41   H     H_    0.355070 0.230010 0.569468 0.184199
C74   C     C_3   0.655353 0.554402 0.436265 -0.356346
C75   C     C_3   0.652346 0.650562 0.341938 -0.326708
C76   C     C_3   0.705972 0.622731 0.305347 -0.788908
H42   H     H_    0.741848 0.681840 0.355774 0.243170
H43   H     H_    0.713499 0.473021 0.293180 0.223184
H44   H     H_    0.702094 0.694965 0.237721 0.228209
H45   H     H_    0.617901 0.598072 0.287034 0.186436
H46   H     H_    0.646903 0.800908 0.351941 0.216841
H47   H     H_    0.687525 0.628470 0.488115 0.171702
H48   H     H_    0.670393 0.409522 0.430411 0.163750
C77   C     C_3   0.587943 0.172590 0.259428 -0.318102
C78   C     C_3   0.556791 0.043083 0.313957 -0.307455
C79   C     C_3   0.578522 0.057435 0.419629 -0.749242
H49   H     H_    0.624687 0.050155 0.437968 0.219868
H50   H     H_    0.564436 0.189617 0.446384 0.250149
H51   H     H_    0.561120 0.944422 0.455134 0.228878
H52   H     H_    0.511613 0.076567 0.300859 0.232476
H53   H     H_    0.560615 0.898795 0.288903 0.168683
H54   H     H_    0.632978 0.144072 0.281591 0.154495
H55   H     H_    0.580406 0.317302 0.279957 0.202364
C80   C     C_3   0.411795 0.018969 0.737607 -0.338764
C81   C     C_3   0.446689 0.886992 0.687970 -0.299938
C82   C     C_3   0.429234 0.901120 0.581839 -0.746448
H56   H     H_    0.385267 0.858591 0.557507 0.223579
H57   H     H_    0.434418 0.044218 0.559298 0.232686
H58   H     H_    0.456618 0.811528 0.548302 0.234679
H59   H     H_    0.491681 0.919831 0.707207 0.226267
H60   H     H_    0.441853 0.742750 0.709474 0.175879
H61   H     H_    0.367908 0.976026 0.718321 0.153251
H62   H     H_    0.413166 0.159433 0.709881 0.203228
C83   C     C_3   0.913273 0.505563 0.238953 -0.340688
C84   C     C_3   0.948328 0.374975 0.188982 -0.298630
C85   C     C_3   0.930578 0.389624 0.082876 -0.749166
H63   H     H_    0.886529 0.347647 0.058826 0.223796
H64   H     H_    0.936026 0.532685 0.060519 0.233166
H65   H     H_    0.957594 0.300053 0.048724 0.234544
H66   H     H_    0.993233 0.409282 0.208164 0.226048
H67   H     H_    0.943946 0.230524 0.210387 0.175690
H68   H     H_    0.869185 0.464870 0.218737 0.155767
H69   H     H_    0.915572 0.646824 0.212577 0.207880
C86   C     C_3   0.085868 0.675155 0.762165 -0.326535
C87   C     C_3   0.053945 0.554561 0.819837 -0.304686
C88   C     C_3   0.079673 0.561266 0.924448 -0.746791
H70   H     H_    0.124810 0.527389 0.938309 0.221126
H71   H     H_    0.074227 0.701010 0.953135 0.247695
H72   H     H_    0.058151 0.462055 0.962008 0.229772
H73   H     H_    0.010120 0.602483 0.812216 0.238560
H74   H     H_    0.052666 0.409713 0.793249 0.170981
H75   H     H_    0.130749 0.643076 0.784174 0.159353
H76   H     H_    0.079170 0.821376 0.780336 0.196915
O21   O     O_3   0.480091 0.290594 0.171923 -0.567117
C89   C     C_3   0.476109 0.469013 0.132791 -0.269130
H77   H     H_    0.454417 0.466495 0.057905 0.148498
H78   H     H_    0.518010 0.532214 0.140318 0.126445
H79   H     H_    0.451033 0.559366 0.170879 0.154091
O22   O     O_3   0.514052 0.196073 0.811377 -0.564645
C90   C     C_3   0.511154 0.385036 0.838579 -0.292816
H80   H     H_    0.539643 0.413765 0.906841 0.158569
H81   H     H_    0.467801 0.428463 0.842027 0.127975
H82   H     H_    0.524507 0.474161 0.786572 0.143426
O23   O     O_3   0.014050 0.685958 0.314299 -0.564273
C91   C     C_3   0.010336 0.874387 0.341846 -0.292159
H83   H     H_    0.038732 0.903908 0.410098 0.158931
H84   H     H_    0.966820 0.915489 0.345450 0.127996
H85   H     H_    0.023313 0.964585 0.289937 0.141724
O24   O     O_3   0.975968 0.775470 0.671811 -0.568838
C92   C     C_3   0.970730 0.952852 0.631365 -0.267614
H86   H     H_    0.951323 0.946801 0.555405 0.147581
H87   H     H_    0.011879 0.022279 0.642194 0.126594
H88   H     H_    0.942905 0.039606 0.665841 0.153923

loop_
_geom_bond_atom_site_label_1
_geom_bond_atom_site_label_2
_ccdc_geom_bond_type
O17   V3    S    
C24   H3    S    
C55   C56   A    
C35   C51   A    
C89   H77   S    
C16   H8    S    
O19   V1    S    
C1    C32   S    
O13   V1    S    
C83   C84   S    
O1    C5    A    
O3    C7    A    
C72   H38   S    
C60   C64   A    
C15   H7    S    
C48   C52   A    
C73   H37   S    
O15   V3    S    
C2    C31   S    
C47   C55   A    
C82   H56   S    
C38   H13   S    
C65   H26   S    
C14   C25   A    
C84   H67   S    
C53   C54   A    
C69   C70   S    
C44   H11   S    
O7    C3    A    
C85   H64   S    
C74   H47   S    
C62   C80   S    
C50   C62   A    
C9    C18   A    
C57   O21   S    
O9    V1    S    
C18   C65   S    
O10   V2    S    
C14   C18   A    
C76   H43   S    
O4    C8    A    
C69   H32   S    
C88   H72   S    
C86   H75   S    
C84   C85   S    
O1    V3    S    
C80   H62   S    
C30   C38   A    
C12   C23   A    
O2    V4    S    
C52   C64   A    
C79   H51   S    
C83   H68   S    
O3    V1    S    
C66   C67   S    
C70   H30   S    
C89   H79   S    
C14   H6    S    
C61   C77   S    
C1    O15   A    
C71   H41   S    
C67   H21   S    
C2    O16   A    
C91   H83   S    
C7    C9    S    
C39   H16   S    
O2    C6    A    
C79   H49   S    
C19   C74   S    
O14   V2    S    
C21   C25   A    
C77   H55   S    
C16   C20   A    
C60   O24   S    
C36   C40   A    
C90   H82   S    
C59   O23   S    
C68   H34   S    
C46   C54   A    
O11   C7    A    
O22   C90   S    
C45   C53   A    
O23   C91   S    
O12   C8    A    
C78   H53   S    
C55   C60   A    
C57   C61   A    
C9    C22   A    
C10   C17   A    
C34   H18   S    
C11   C24   A    
C33   H17   S    
C82   H57   S    
C65   H27   S    
C58   C62   A    
C42   H9    S    
O5    V1    S    
C84   H66   S    
C88   H71   S    
C41   H10   S    
C85   H65   S    
C74   H48   S    
O7    V3    S    
C27   C28   A    
C36   C52   A    
C75   C76   S    
C65   C66   S    
C76   H44   S    
C75   H46   S    
C37   H14   S    
C69   H31   S    
C23   C27   A    
C86   H76   S    
C29   C41   A    
C20   C71   S    
C88   H70   S    
C8    C10   S    
C86   C87   S    
O8    V4    S    
O5    C1    A    
C34   C50   A    
C49   C61   A    
C46   C50   A    
C33   C49   A    
C80   C81   S    
C58   O22   S    
C56   C59   A    
C45   C49   A    
O8    C4    A    
C51   C63   A    
C32   C44   A    
O9    C5    A    
C67   H22   S    
C10   C21   A    
C81   H59   S    
C17   C68   S    
C68   C69   S    
C11   C20   A    
C63   C83   S    
C85   H63   S    
C70   H28   S    
C87   H74   S    
O6    V2    S    
C31   C39   A    
C21   H2    S    
C81   H60   S    
C78   H52   S    
C43   C47   A    
C73   H35   S    
C66   H25   S    
C83   H69   S    
C82   H58   S    
C87   C88   S    
C74   C75   S    
C71   C72   S    
O16   V4    S    
C92   H88   S    
C29   C37   A    
C92   H86   S    
C3    O13   A    
C89   H78   S    
C72   H39   S    
C44   C48   A    
C73   H36   S    
C54   C57   A    
C75   H45   S    
O6    C2    A    
C15   C19   A    
C53   C58   A    
O11   V3    S    
C5    C11   S    
C40   H15   S    
O12   V4    S    
C16   C27   A    
C6    C12   S    
C22   C26   A    
C3    C30   S    
C81   C82   S    
O10   C6    A    
O20   V2    S    
C72   C73   S    
C48   C56   A    
C76   H42   S    
C47   C51   A    
C4    C29   S    
C35   H19   S    
C34   C38   A    
C31   C43   A    
C91   H85   S    
C33   C37   A    
C22   H1    S    
C13   C26   A    
C43   H12   S    
C80   H61   S    
C15   C28   A    
C67   H23   S    
C35   C39   A    
C79   H50   S    
C64   C86   S    
C13   C17   A    
O21   C89   S    
C13   H5    S    
C70   H29   S    
C87   H73   S    
C59   C63   A    
C90   H80   S    
C24   C28   A    
C71   H40   S    
O24   C92   S    
C91   H84   S    
C25   C26   A    
C42   C46   A    
C4    O14   A    
C41   C45   A    
C78   C79   S    
C30   C42   A    
C12   C19   A    
C36   H20   S    
C77   C78   S    
C92   H87   S    
C77   H54   S    
C66   H24   S    
O18   V4    S    
O4    V2    S    
C32   C40   A    
C23   H4    S    
C90   H81   S    
C68   H33   S    
