data_mof_unit_7932.cif
_audit_creation_date              2012-12-11T15:35:26-0500
_audit_creation_method            fapswitch 2.2
_symmetry_space_group_name_H-M    P1
_symmetry_Int_Tables_number       1
_space_group_crystal_system       triclinic
_cell_length_a                    17.35962
_cell_length_b                    24.268932
_cell_length_c                    14.976572
_cell_angle_alpha                 90.000031
_cell_angle_beta                  125.133182
_cell_angle_gamma                 89.999984
_cell_volume                      5160.11292422

loop_
_atom_site_label
_atom_site_type_symbol
_atom_type_description
_atom_site_fract_x
_atom_site_fract_y
_atom_site_fract_z
_atom_type_partial_charge
C1    C     C_R   0.350988 0.151885 0.906996 -0.133164
C2    C     C_R   0.594684 0.131309 0.910517 -0.124078
C3    C     C_R   0.257814 0.545969 0.301299 -0.153639
C4    C     C_R   0.548775 0.103628 0.329664 0.112870
C5    C     C_R   0.627607 0.137781 0.370113 -0.209057
C6    C     C_R   0.626185 0.192142 0.400153 -0.129293
C7    C     C_R   0.546356 0.212612 0.390328 -0.121786
C8    C     C_R   0.467658 0.178829 0.350091 -0.129425
C9    C     C_R   0.468813 0.124434 0.320076 -0.141186
C10   C     C_R   0.548774 0.896372 0.329664 0.112871
C11   C     C_R   0.468812 0.875566 0.320075 -0.141185
C12   C     C_R   0.467657 0.821171 0.350090 -0.129425
C13   C     C_R   0.094684 0.368691 0.910517 -0.124078
C14   C     C_R   0.546355 0.787388 0.390327 -0.121787
C15   C     C_R   0.626184 0.807858 0.400152 -0.129292
C16   C     C_R   0.627606 0.862219 0.370113 -0.209058
C17   C     C_R   0.048774 0.603628 0.329664 0.112871
C18   C     C_R   0.127606 0.637781 0.370113 -0.209057
C19   C     C_R   0.126184 0.692142 0.400153 -0.129293
C20   C     C_R   0.046355 0.712612 0.390327 -0.121786
C21   C     C_R   0.967657 0.678829 0.350090 -0.129425
C22   C     C_R   0.968812 0.624434 0.320075 -0.141185
C23   C     C_R   0.048774 0.396372 0.329664 0.112871
C24   C     C_R   0.094684 0.631309 0.910517 -0.124078
C25   C     C_R   0.968812 0.375566 0.320075 -0.141185
C26   C     C_R   0.967657 0.321171 0.350090 -0.129425
C27   C     C_R   0.046355 0.287388 0.390327 -0.121786
C28   C     C_R   0.126184 0.307858 0.400152 -0.129293
C29   C     C_R   0.127606 0.362219 0.370113 -0.209058
C30   C     C_R   0.521008 0.000000 0.694789 0.045647
C31   C     C_R   0.021008 0.500000 0.694788 0.045647
C32   C     C_R   0.805394 0.000000 0.362548 0.001186
C33   C     C_R   0.305394 0.500000 0.362548 0.001186
C34   C     C_R   0.684112 0.142990 0.001287 0.039338
C35   C     C_R   0.684112 0.857010 0.001287 0.039338
C36   C     C_R   0.184112 0.642990 0.001287 0.039338
C37   C     C_R   0.350988 0.848115 0.906996 -0.133164
C38   C     C_R   0.184112 0.357010 0.001287 0.039338
C39   C     C_3   0.021972 0.948350 0.636428 -0.396977
C40   C     C_3   0.021972 0.051650 0.636428 -0.396978
C41   C     C_3   0.521972 0.448350 0.636428 -0.396977
C42   C     C_3   0.521972 0.551650 0.636428 -0.396977
C43   C     C_3   0.919447 0.948214 0.534892 -0.406602
C44   C     C_3   0.919447 0.051786 0.534892 -0.406603
C45   C     C_3   0.419447 0.448214 0.534892 -0.406604
C46   C     C_3   0.419447 0.551786 0.534892 -0.406603
C47   C     C_3   0.069931 0.000000 0.528381 -0.390753
C48   C     C_R   0.850988 0.651885 0.906996 -0.133164
C49   C     C_3   0.569931 0.500000 0.528381 -0.390752
C50   C     C_3   0.074045 0.000000 0.634749 0.391718
C51   C     C_3   0.574045 0.500000 0.634749 0.391718
C52   C     C_3   0.900689 0.000000 0.463806 0.400436
C53   C     C_3   0.400689 0.500000 0.463806 0.400437
C54   C     C_R   0.445097 0.846153 0.088318 -0.126169
C55   C     C_R   0.445097 0.153847 0.088318 -0.126169
C56   C     C_R   0.945097 0.346153 0.088318 -0.126169
C57   C     C_R   0.945097 0.653847 0.088318 -0.126169
C58   C     C_3   0.968419 0.000000 0.428428 -0.396875
C59   C     C_R   0.850988 0.348115 0.906996 -0.133164
C60   C     C_3   0.468419 0.500000 0.428428 -0.396874
C61   C     C_R   0.291364 0.731611 0.899141 -0.172083
C62   C     C_R   0.291364 0.268388 0.899141 -0.172084
C63   C     C_R   0.791364 0.231611 0.899141 -0.172083
C64   C     C_R   0.791364 0.768389 0.899141 -0.172084
C65   C     C_R   0.740425 0.188254 0.900609 -0.169920
C66   C     C_R   0.740425 0.811746 0.900609 -0.169920
C67   C     C_R   0.240425 0.688254 0.900609 -0.169920
C68   C     C_R   0.240425 0.311746 0.900609 -0.169920
C69   C     C_R   0.757379 0.171564 0.000207 0.148893
C70   C     C_R   0.687635 0.126571 0.092323 -0.127057
C71   C     C_R   0.757379 0.828436 0.000207 0.148894
C72   C     C_R   0.257379 0.671563 0.000207 0.148893
C73   C     C_R   0.257379 0.328436 0.000207 0.148894
C74   C     C_R   0.839273 0.189047 0.098299 -0.176122
C75   C     C_R   0.839273 0.810953 0.098299 -0.176123
C76   C     C_R   0.339273 0.689047 0.098299 -0.176123
C77   C     C_R   0.339273 0.310953 0.098299 -0.176122
C78   C     C_R   0.391129 0.731726 0.096793 -0.177150
C79   C     C_R   0.391129 0.268274 0.096793 -0.177151
C80   C     C_R   0.891129 0.231726 0.096793 -0.177151
C81   C     C_R   0.687635 0.873429 0.092323 -0.127057
C82   C     C_R   0.891129 0.768274 0.096793 -0.177151
C83   C     C_R   0.360029 0.757389 0.997414 0.143041
C84   C     C_R   0.360029 0.242611 0.997414 0.143041
C85   C     C_R   0.860029 0.257389 0.997414 0.143041
C86   C     C_R   0.860029 0.742611 0.997414 0.143041
C87   C     C_R   0.593023 0.950333 0.616619 -0.178352
C88   C     C_R   0.593023 0.049667 0.616619 -0.178351
C89   C     C_R   0.093023 0.450333 0.616619 -0.178351
C90   C     C_R   0.093023 0.549666 0.616619 -0.178351
C91   C     C_R   0.616575 0.950713 0.543069 -0.171525
C92   C     C_R   0.187635 0.626571 0.092323 -0.127057
C93   C     C_R   0.616575 0.049287 0.543069 -0.171526
C94   C     C_R   0.116575 0.450713 0.543069 -0.171525
C95   C     C_R   0.116575 0.549287 0.543069 -0.171526
C96   C     C_R   0.608981 0.000000 0.489600 0.134218
C97   C     C_R   0.108981 0.500000 0.489600 0.134218
C98   C     C_R   0.550983 0.045339 0.304722 0.023102
C99   C     C_R   0.550983 0.954661 0.304722 0.023102
C100  C     C_R   0.050983 0.545339 0.304722 0.023101
C101  C     C_R   0.050983 0.454661 0.304722 0.023101
C102  C     C_R   0.568992 0.000000 0.641825 0.152498
C103  C     C_R   0.187635 0.373429 0.092323 -0.127057
C104  C     C_R   0.068992 0.500000 0.641824 0.152498
C105  C     C_R   0.231315 0.953650 0.752190 -0.138175
C106  C     C_R   0.231315 0.046349 0.752190 -0.138175
C107  C     C_R   0.731315 0.453651 0.752190 -0.138175
C108  C     C_R   0.731315 0.546349 0.752190 -0.138175
C109  C     C_R   0.383727 0.184976 0.997120 0.034455
C110  C     C_R   0.383727 0.815024 0.997120 0.034455
C111  C     C_R   0.883727 0.684976 0.997120 0.034455
C112  C     C_R   0.883727 0.315024 0.997120 0.034455
C113  C     C_R   0.573521 0.000000 0.372769 -0.068895
C114  C     C_R   0.594684 0.868691 0.910517 -0.124078
C115  C     C_R   0.073521 0.500000 0.372769 -0.068895
C116  C     C_R   0.174726 0.000000 0.725136 -0.005030
C117  C     C_R   0.674727 0.500000 0.725136 -0.005030
C118  C     C_R   0.496920 0.045689 0.728095 -0.136165
C119  C     C_R   0.496920 0.954311 0.728095 -0.136165
C120  C     C_R   0.996920 0.545689 0.728095 -0.136165
C121  C     C_R   0.996920 0.454311 0.728095 -0.136166
C122  C     C_R   0.757814 0.954031 0.301299 -0.153640
C123  C     C_R   0.757814 0.045969 0.301299 -0.153640
C124  C     C_R   0.257814 0.454031 0.301299 -0.153640
H1    H     H_    0.312682 0.165087 0.822930 0.082490
H2    H     H_    0.870246 0.052518 0.559925 0.158599
H3    H     H_    0.370245 0.447482 0.559925 0.158599
H4    H     H_    0.370245 0.552518 0.559925 0.158599
H5    H     H_    0.908332 0.909746 0.488705 0.144173
H6    H     H_    0.908332 0.090254 0.488706 0.144173
H7    H     H_    0.408332 0.409746 0.488706 0.144173
H8    H     H_    0.408332 0.590254 0.488705 0.144173
H9    H     H_    0.106460 0.963040 0.525437 0.155090
H10   H     H_    0.106460 0.036960 0.525437 0.155089
H11   H     H_    0.606460 0.463040 0.525437 0.155089
H12   H     H_    0.312682 0.834913 0.822930 0.082490
H13   H     H_    0.606460 0.536960 0.525437 0.155089
H14   H     H_    0.956048 0.962998 0.377709 0.155671
H15   H     H_    0.956048 0.037002 0.377709 0.155670
H16   H     H_    0.456047 0.462998 0.377709 0.155670
H17   H     H_    0.456047 0.537002 0.377709 0.155671
H18   H     H_    0.269873 0.748005 0.820873 0.105635
H19   H     H_    0.269873 0.251995 0.820873 0.105635
H20   H     H_    0.769873 0.248005 0.820872 0.105635
H21   H     H_    0.769873 0.751995 0.820873 0.105635
H22   H     H_    0.682511 0.172015 0.823230 0.104601
H23   H     H_    0.812682 0.665087 0.822930 0.082490
H24   H     H_    0.682511 0.827985 0.823230 0.104601
H25   H     H_    0.182511 0.672015 0.823230 0.104601
H26   H     H_    0.182511 0.327985 0.823230 0.104601
H27   H     H_    0.858594 0.174054 0.176628 0.103940
H28   H     H_    0.858594 0.825946 0.176628 0.103940
H29   H     H_    0.358594 0.674054 0.176628 0.103940
H30   H     H_    0.358594 0.325946 0.176628 0.103940
H31   H     H_    0.448466 0.747889 0.174263 0.125239
H32   H     H_    0.448466 0.252111 0.174263 0.125238
H33   H     H_    0.948466 0.247889 0.174263 0.125239
H34   H     H_    0.812682 0.334913 0.822930 0.082490
H35   H     H_    0.948466 0.752111 0.174263 0.125239
H36   H     H_    0.588605 0.911149 0.647794 0.108745
H37   H     H_    0.588605 0.088851 0.647794 0.108745
H38   H     H_    0.088605 0.411149 0.647794 0.108745
H39   H     H_    0.088605 0.588851 0.647794 0.108745
H40   H     H_    0.495309 0.829896 0.168160 0.128580
H41   H     H_    0.495308 0.170104 0.168161 0.128580
H42   H     H_    0.995309 0.329896 0.168161 0.128579
H43   H     H_    0.995309 0.670104 0.168161 0.128580
H44   H     H_    0.633574 0.911901 0.524734 0.145798
H45   H     H_    0.023591 0.948160 0.711789 0.159662
H46   H     H_    0.633574 0.088098 0.524734 0.145798
H47   H     H_    0.133574 0.411901 0.524734 0.145798
H48   H     H_    0.133574 0.588098 0.524734 0.145798
H49   H     H_    0.210230 0.910999 0.736430 0.091567
H50   H     H_    0.210230 0.089001 0.736430 0.091567
H51   H     H_    0.710230 0.410999 0.736430 0.091567
H52   H     H_    0.710230 0.589001 0.736430 0.091567
H53   H     H_    0.492599 0.087515 0.702119 0.083523
H54   H     H_    0.492599 0.912485 0.702119 0.083523
H55   H     H_    0.992599 0.587515 0.702119 0.083523
H56   H     H_    0.023591 0.051840 0.711789 0.159662
H57   H     H_    0.992599 0.412485 0.702119 0.083523
H58   H     H_    0.774042 0.911526 0.325566 0.076517
H59   H     H_    0.774042 0.088474 0.325566 0.076516
H60   H     H_    0.274042 0.411526 0.325566 0.076517
H61   H     H_    0.274042 0.588474 0.325566 0.076516
H62   H     H_    0.745175 0.131571 0.176738 0.088703
H63   H     H_    0.745175 0.868429 0.176738 0.088703
H64   H     H_    0.245175 0.631571 0.176738 0.088703
H65   H     H_    0.245175 0.368429 0.176738 0.088703
H66   H     H_    0.564245 0.855464 0.828300 0.082810
H67   H     H_    0.523591 0.448160 0.711789 0.159662
H68   H     H_    0.564245 0.144536 0.828300 0.082810
H69   H     H_    0.064245 0.355464 0.828300 0.082810
H70   H     H_    0.064245 0.644536 0.828300 0.082810
H71   H     H_    0.055748 0.909690 0.635691 0.145197
H72   H     H_    0.055748 0.090310 0.635692 0.145198
H73   H     H_    0.555748 0.409690 0.635692 0.145198
H74   H     H_    0.555748 0.590310 0.635691 0.145198
H75   H     H_    0.690870 0.121971 0.382213 0.112976
H76   H     H_    0.687308 0.218221 0.432051 0.110540
H77   H     H_    0.545410 0.254667 0.413732 0.100889
H78   H     H_    0.523592 0.551840 0.711789 0.159662
H79   H     H_    0.405901 0.194742 0.342505 0.110839
H80   H     H_    0.407919 0.098392 0.290305 0.115437
H81   H     H_    0.407919 0.901608 0.290304 0.115437
H82   H     H_    0.405899 0.805258 0.342504 0.110839
H83   H     H_    0.545408 0.745334 0.413731 0.100889
H84   H     H_    0.687306 0.781779 0.432051 0.110540
H85   H     H_    0.690870 0.878029 0.382214 0.112976
H86   H     H_    0.190870 0.621971 0.382214 0.112975
H87   H     H_    0.187306 0.718221 0.432051 0.110540
H88   H     H_    0.045408 0.754666 0.413731 0.100889
H89   H     H_    0.870245 0.947482 0.559924 0.158598
H90   H     H_    0.905899 0.694742 0.342503 0.110839
H91   H     H_    0.907919 0.598392 0.290304 0.115437
H92   H     H_    0.907919 0.401608 0.290304 0.115437
H93   H     H_    0.905899 0.305258 0.342504 0.110839
H94   H     H_    0.045408 0.245334 0.413731 0.100889
H95   H     H_    0.187306 0.281779 0.432051 0.110540
H96   H     H_    0.190870 0.378028 0.382214 0.112976
N1    N     N_R   0.392140 0.102630 0.941800 -0.038311
N2    N     N_R   0.525160 0.972040 0.206160 -0.065547
N3    N     N_R   0.025160 0.527960 0.206160 -0.065547
N4    N     N_R   0.025160 0.472040 0.206160 -0.065547
N5    N     N_R   0.317870 0.971120 0.792790 -0.038766
N6    N     N_R   0.317870 0.028880 0.792790 -0.038766
N7    N     N_R   0.817870 0.471120 0.792790 -0.038766
N8    N     N_R   0.817870 0.528880 0.792790 -0.038766
N9    N     N_R   0.473480 0.027920 0.793480 -0.038096
N10   N     N_R   0.473480 0.972080 0.793480 -0.038096
N11   N     N_R   0.973480 0.527920 0.793480 -0.038096
N12   N     N_R   0.392140 0.897370 0.941800 -0.038311
N13   N     N_R   0.973480 0.472080 0.793480 -0.038096
N14   N     N_R   0.681610 0.971120 0.207570 -0.032195
N15   N     N_R   0.681610 0.028880 0.207570 -0.032195
N16   N     N_R   0.181610 0.471120 0.207570 -0.032195
N17   N     N_R   0.181610 0.528880 0.207570 -0.032195
N18   N     N_R   0.605410 0.102620 0.056870 -0.039034
N19   N     N_R   0.605410 0.897380 0.056870 -0.039034
N20   N     N_R   0.105410 0.602620 0.056870 -0.039034
N21   N     N_R   0.105410 0.397380 0.056870 -0.039034
N22   N     N_R   0.549680 0.896430 0.944180 -0.038763
N23   N     N_R   0.892140 0.602630 0.941800 -0.038311
N24   N     N_R   0.549680 0.103570 0.944180 -0.038763
N25   N     N_R   0.049680 0.396430 0.944180 -0.038763
N26   N     N_R   0.049680 0.603570 0.944180 -0.038763
N27   N     N_R   0.892140 0.397370 0.941800 -0.038311
N28   N     N_R   0.450890 0.896450 0.057150 -0.042258
N29   N     N_R   0.450890 0.103550 0.057150 -0.042257
N30   N     N_R   0.950890 0.396450 0.057150 -0.042258
N31   N     N_R   0.950890 0.603550 0.057150 -0.042258
N32   N     N_R   0.525160 0.027960 0.206160 -0.065547
Ni1   Ni    Ni4+2 0.433410 0.064680 0.868830 0.207492
Ni2   Ni    Ni4+2 0.433410 0.935320 0.868830 0.207492
Ni3   Ni    Ni4+2 0.933410 0.564680 0.868830 0.207492
Ni4   Ni    Ni4+2 0.933410 0.435320 0.868830 0.207492
Ni5   Ni    Ni4+2 0.565650 0.934380 0.131170 0.212413
Ni6   Ni    Ni4+2 0.565650 0.065620 0.131170 0.212413
Ni7   Ni    Ni4+2 0.065650 0.434380 0.131170 0.212413
Ni8   Ni    Ni4+2 0.065650 0.565620 0.131170 0.212413

loop_
_geom_bond_atom_site_label_1
_geom_bond_atom_site_label_2
_ccdc_geom_bond_type
C58   H15   S    
N14   Ni5   S    
C13   N25   A    
C63   C65   A    
C114  H66   S    
C87   C91   A    
C64   H21   S    
C67   H25   S    
C39   C50   S    
C89   H38   S    
C105  C116  A    
C24   N26   A    
N3    N4    A    
C62   H19   S    
C72   C76   A    
C85   C112  S    
C13   C38   A    
C35   C81   A    
N32   Ni6   S    
C7    C8    A    
C5    H75   S    
C23   C101  S    
N16   N17   A    
C44   H2    S    
C26   C27   A    
C38   C103  A    
C49   C60   S    
N21   N25   A    
C23   C29   A    
C46   H4    S    
C16   H85   S    
C18   H86   S    
C120  H55   S    
C2    H68   S    
C88   H37   S    
C124  H60   S    
C49   H13   S    
C65   H22   S    
C46   H8    S    
C5    C6    A    
C60   H17   S    
C59   H34   S    
C65   C69   A    
C43   C52   S    
N26   Ni3   S    
C3    C33   A    
C118  N9    A    
C44   H6    S    
C15   C16   A    
C87   C102  A    
C48   H23   S    
N18   N24   A    
C76   H29   S    
N23   Ni3   S    
C87   H36   S    
C54   C110  A    
C35   C114  A    
C1    N1    A    
C18   C19   A    
C42   C46   S    
C89   C94   A    
C32   C52   S    
C20   H88   S    
C123  H59   S    
C119  N10   A    
C1    C109  A    
C79   H32   S    
C40   H56   S    
C122  H58   S    
C62   C84   A    
C78   C83   A    
C29   H96   S    
C92   N20   A    
C66   C71   A    
C8    C9    A    
C49   C51   S    
C107  N7    A    
C4    C98   S    
C33   C124  A    
C63   H20   S    
C106  N6    A    
C107  C117  A    
C103  H65   S    
C119  H54   S    
C105  N5    A    
C97   C115  S    
N11   Ni3   S    
C95   H48   S    
N29   Ni6   S    
C66   H24   S    
C15   H84   S    
N13   Ni4   S    
C42   C51   S    
N27   Ni4   S    
C36   C92   A    
C77   C79   A    
C49   H11   S    
C99   N2    A    
C45   C53   S    
C12   H82   S    
C105  H49   S    
C21   C22   A    
C47   H9    S    
C26   H93   S    
N20   N26   A    
C79   C84   A    
C32   C123  A    
C100  C115  A    
C48   N23   A    
C3    H61   S    
C120  N11   A    
C64   C86   A    
C53   C60   S    
C59   C112  A    
C47   C50   S    
N6    Ni1   S    
C98   N32   A    
C33   C53   S    
N25   Ni4   S    
N1    Ni1   S    
C93   H46   S    
C37   H12   S    
N23   N31   A    
C41   H67   S    
C32   C122  A    
C91   H44   S    
C43   H5    S    
N12   Ni2   S    
C31   C121  A    
C101  C115  A    
C41   H73   S    
C61   C83   A    
C88   C93   A    
N5    Ni2   S    
C98   C113  A    
C39   C43   S    
C30   C118  A    
C94   C97   A    
N10   Ni2   S    
C68   C73   A    
C82   C86   A    
C39   H71   S    
C81   N19   A    
C56   N30   A    
N12   N28   A    
C64   C66   A    
C80   C85   A    
C74   C80   A    
C9    H80   S    
C77   H30   S    
N8    Ni3   S    
N14   N15   A    
C61   C67   A    
N9    Ni1   S    
N7    N8    A    
C94   H47   S    
C42   H74   S    
C75   H28   S    
C30   C102  S    
N17   Ni8   S    
C92   H64   S    
C17   C18   A    
C106  H50   S    
C83   C110  S    
C3    N17   A    
C69   C74   A    
N11   N13   A    
C24   C36   A    
N20   Ni8   S    
C34   C69   S    
C90   C104  A    
C37   C110  A    
C6    C7    A    
C52   C58   S    
C60   H16   S    
N4    Ni7   S    
C123  N15   A    
C25   H92   S    
C101  N4    A    
C122  N14   A    
C12   C14   A    
C45   H7    S    
C93   C96   A    
C54   N28   A    
N24   Ni1   S    
C47   H10   S    
C70   N18   A    
N22   Ni2   S    
C19   H87   S    
C74   H27   S    
C42   H78   S    
C57   N31   A    
C24   H70   S    
C55   H41   S    
C43   H89   S    
N30   Ni7   S    
C67   C72   A    
C121  H57   S    
C40   H72   S    
N27   N30   A    
N9    N10   A    
C34   C70   A    
N3    Ni8   S    
C28   C29   A    
N16   Ni7   S    
C41   C45   S    
N21   Ni7   S    
C106  C116  A    
N5    N6    A    
C2    C34   A    
C21   H90   S    
C108  C117  A    
N19   Ni5   S    
C8    H79   S    
C84   C109  S    
C76   C78   A    
C4    C5    A    
C6    H76   S    
C90   C95   A    
C44   C52   S    
C99   C113  A    
C37   N12   A    
C88   C102  A    
C11   C12   A    
C95   C97   A    
C75   C82   A    
N7    Ni4   S    
C57   H43   S    
C114  N22   A    
C28   H95   S    
C108  N8    A    
C121  N13   A    
C17   C22   A    
C100  N3    A    
C62   C68   A    
C90   H39   S    
C1    H1    S    
C31   C104  S    
C19   C20   A    
C86   C111  S    
C25   C26   A    
C89   C104  A    
C10   C16   A    
C47   C58   S    
C71   C75   A    
C82   H35   S    
C58   H14   S    
C80   H33   S    
C57   C111  A    
C107  H51   S    
C45   H3    S    
N15   Ni6   S    
C40   C50   S    
C108  H52   S    
C46   C53   S    
C56   C112  A    
C103  N21   A    
C91   C96   A    
C41   C51   S    
N18   Ni6   S    
N19   N22   A    
C50   C116  S    
C23   C25   A    
C10   C99   S    
C96   C113  S    
C17   C100  S    
C31   C120  A    
N2    Ni5   S    
C68   H26   S    
C10   C11   A    
C70   H62   S    
C35   C71   S    
N28   Ni5   S    
C124  N16   A    
C118  H53   S    
C61   H18   S    
C40   C44   S    
C48   C111  A    
C20   C21   A    
N31   Ni8   S    
C27   H94   S    
C7    H77   S    
C55   N29   A    
C30   C119  A    
C56   H42   S    
C27   C28   A    
C51   C117  S    
C73   C77   A    
C14   C15   A    
C55   C109  A    
C13   H69   S    
C39   H45   S    
C11   H81   S    
C54   H40   S    
C4    C9    A    
C22   H91   S    
C2    N24   A    
N1    N29   A    
C63   C85   A    
C36   C72   S    
C14   H83   S    
C81   H63   S    
C59   N27   A    
C78   H31   S    
C38   C73   S    
N2    N32   A    
