data_mof_unit_19001.cif
_audit_creation_date              2012-12-11T17:43:42-0500
_audit_creation_method            fapswitch 2.2
_symmetry_space_group_name_H-M    P1
_symmetry_Int_Tables_number       1
_space_group_crystal_system       triclinic
_cell_length_a                    15.091979
_cell_length_b                    15.181035
_cell_length_c                    16.943826
_cell_angle_alpha                 109.038372
_cell_angle_beta                  106.331828
_cell_angle_gamma                 109.220907
_cell_volume                      3119.52987225

loop_
_atom_site_label
_atom_site_type_symbol
_atom_type_description
_atom_site_fract_x
_atom_site_fract_y
_atom_site_fract_z
_atom_type_partial_charge
C1    C     C_R   0.089341 0.275842 0.030847 -0.133333
C2    C     C_R   0.081698 0.060994 0.946278 -0.251173
C3    C     C_R   0.997515 0.888270 0.933168 0.057103
C4    C     C_R   0.994217 0.074423 0.946942 0.068613
C5    C     C_R   0.083247 0.966860 0.936903 0.039925
C6    C     C_R   0.903737 0.989320 0.931927 0.045264
C7    C     C_R   0.714847 0.916557 0.834545 -0.162743
C8    C     C_R   0.273757 0.019324 0.002620 -0.175374
C9    C     C_R   0.603892 0.970088 0.894683 -0.152900
C10   C     C_R   0.339701 0.909563 0.925675 -0.125279
C11   C     C_R   0.491050 0.678823 0.353104 -0.113300
C12   C     C_R   0.913557 0.708527 0.919790 -0.158338
C13   C     C_R   0.513932 0.421400 0.727239 -0.128469
C14   C     C_R   0.503714 0.671184 0.272886 -0.135259
C15   C     C_R   0.524606 0.443140 0.817063 -0.122123
C16   C     C_R   0.934165 0.442469 0.737015 -0.112924
C17   C     C_R   0.064801 0.501037 0.261740 -0.126135
C18   C     C_R   0.524150 0.591203 0.224460 0.115745
C19   C     C_R   0.551365 0.544977 0.880559 0.109439
C20   C     C_R   0.532828 0.519934 0.258494 -0.184383
C21   C     C_R   0.565819 0.624197 0.852484 -0.185301
C22   C     C_R   0.520536 0.528171 0.338988 -0.110527
C23   C     C_R   0.024122 0.451636 0.726209 0.052893
C24   C     C_R   0.555753 0.602119 0.762690 -0.106041
C25   C     C_R   0.499482 0.607400 0.386143 -0.099623
C26   C     C_R   0.529787 0.500708 0.700064 -0.104036
C27   C     C_R   0.617283 0.567867 0.124929 -0.243500
C28   C     C_R   0.478725 0.584828 0.989207 -0.234905
C29   C     C_R   0.626577 0.557400 0.042739 0.070909
C30   C     C_R   0.462111 0.583841 0.065814 0.059517
C31   C     C_R   0.556937 0.567214 0.974374 0.016490
C32   C     C_R   0.534248 0.581006 0.137549 0.024397
C33   C     C_R   0.616631 0.907914 0.822072 -0.197162
C34   C     C_R   0.973286 0.457395 0.269558 0.074456
C35   C     C_R   0.356232 0.997510 0.000627 -0.187209
C36   C     C_R   0.963640 0.438963 0.346770 0.037886
C37   C     C_R   0.025066 0.402457 0.635500 0.043502
C38   C     C_R   0.121548 0.415486 0.543481 -0.254118
C39   C     C_R   0.859033 0.386435 0.423457 -0.252667
C40   C     C_R   0.719632 0.215948 0.823537 -0.159640
C41   C     C_R   0.222785 0.796820 0.187352 -0.135183
C42   C     C_R   0.117067 0.412336 0.624504 0.226241
C43   C     C_R   0.873571 0.426309 0.362321 0.230883
C44   C     C_R   0.934093 0.368154 0.557420 -0.278416
C45   C     C_R   0.663008 0.217664 0.744772 0.094121
C46   C     C_R   0.044165 0.429321 0.403921 -0.293896
C47   C     C_R   0.941277 0.382289 0.482869 0.140724
C48   C     C_R   0.036072 0.408048 0.476068 0.146303
C49   C     C_R   0.554135 0.143016 0.677519 0.101335
C50   C     C_R   0.277147 0.898768 0.359743 0.093565
C51   C     C_R   0.377486 0.088549 0.445154 0.217799
C52   C     C_R   0.406407 0.969742 0.607837 0.208551
C53   C     C_R   0.310755 0.997244 0.361513 -0.239420
C54   C     C_R   0.500159 0.051588 0.682249 -0.252604
C55   C     C_R   0.292730 0.892822 0.442587 -0.278755
C56   C     C_R   0.239373 0.803316 0.274109 0.079626
C57   C     C_R   0.507581 0.158486 0.602952 -0.297829
C58   C     C_R   0.368196 0.980274 0.526563 0.088641
C59   C     C_R   0.415704 0.078111 0.526456 0.077814
C60   C     C_R   0.689112 0.040112 0.981821 0.299336
C61   C     C_R   0.240394 0.843663 0.849903 0.280326
C62   C     C_R   0.787759 0.045877 0.995411 -0.249306
C63   C     C_R   0.157650 0.865515 0.853365 -0.263980
C64   C     C_R   0.300617 0.597476 0.006048 -0.160844
C65   C     C_R   0.735175 0.461377 0.045524 -0.143181
C66   C     C_R   0.801518 0.986409 0.920826 0.088395
C67   C     C_R   0.358735 0.564624 0.055775 0.060347
C68   C     C_R   0.173329 0.951762 0.930138 0.114238
C69   C     C_R   0.724834 0.310193 0.747357 -0.149008
C70   C     C_R   0.219509 0.703581 0.265707 -0.133380
C71   C     C_R   0.295202 0.498943 0.078958 -0.125518
C72   C     C_R   0.752055 0.563592 0.974699 -0.110245
C73   C     C_R   0.107535 0.529023 0.811825 -0.156478
C74   C     C_R   0.891890 0.414815 0.183473 -0.183407
C75   C     C_R   0.916704 0.195848 0.945123 -0.122694
C76   C     C_R   0.085819 0.796048 0.000406 -0.137017
C77   C     C_R   0.001478 0.178207 0.968700 0.050635
C78   C     C_R   0.706769 0.533635 0.027525 0.048686
C79   C     C_R   0.000402 0.800574 0.948649 0.071394
C80   C     C_3   0.796541 0.462209 0.322355 -0.415784
C81   C     C_3   0.789929 0.544381 0.398766 -0.886878
C82   C     C_3   0.208633 0.417445 0.695579 -0.400198
C83   C     C_3   0.234908 0.329603 0.653058 -0.861774
C84   C     C_3   0.412329 0.192948 0.442550 -0.381128
C85   C     C_3   0.501419 0.215209 0.413851 -0.921176
C86   C     C_3   0.356884 0.869649 0.614868 -0.356783
C87   C     C_3   0.394290 0.790796 0.574822 -0.938595
C88   C     C_3   0.673809 0.106787 0.059752 -0.394541
C89   C     C_R   0.908000 0.898781 0.926359 -0.247775
C90   C     C_3   0.631148 0.177108 0.034181 -0.955946
C91   C     C_3   0.218015 0.750384 0.763959 -0.373684
C92   C     C_3   0.307057 0.722016 0.768960 -0.967040
H1    H     H_    0.169018 0.291269 0.064670 0.097466
H2    H     H_    0.511006 0.380644 0.836879 0.114786
H3    H     H_    0.547708 0.457179 0.222138 0.117750
H4    H     H_    0.585020 0.702838 0.900200 0.125471
H5    H     H_    0.673714 0.564086 0.178173 0.131025
H6    H     H_    0.422370 0.585260 0.933221 0.128224
H7    H     H_    0.114466 0.441342 0.394504 0.130761
H8    H     H_    0.859607 0.348466 0.559417 0.125092
H9    H     H_    0.193229 0.430276 0.535888 0.134517
H10   H     H_    0.787918 0.370486 0.432335 0.138905
H11   H     H_    0.854736 0.389427 0.686949 0.096254
H12   H     H_    0.835823 0.679381 0.867787 0.101920
H13   H     H_    0.142816 0.526302 0.310563 0.086819
H14   H     H_    0.548749 0.229025 0.599824 0.138378
H15   H     H_    0.255340 0.817435 0.439932 0.143162
H16   H     H_    0.533668 0.040146 0.741133 0.133344
H17   H     H_    0.290831 0.003782 0.297907 0.126249
H18   H     H_    0.527493 0.964024 0.882428 0.114095
H19   H     H_    0.404815 0.893859 0.927997 0.122312
H20   H     H_    0.690100 0.164664 0.851725 0.110111
H21   H     H_    0.231941 0.859285 0.168465 0.094773
H22   H     H_    0.328561 0.658749 0.986575 0.097021
H23   H     H_    0.723446 0.868118 0.777026 0.120901
H24   H     H_    0.710543 0.420326 0.082939 0.100858
H25   H     H_    0.317322 0.465204 0.123528 0.108325
H26   H     H_    0.748908 0.620559 0.950707 0.112462
H27   H     H_    0.189538 0.559692 0.829223 0.108894
H28   H     H_    0.811940 0.360759 0.160701 0.117688
H29   H     H_    0.838250 0.140920 0.893737 0.126568
H30   H     H_    0.166888 0.849809 0.026636 0.113780
H31   H     H_    0.841308 0.838218 0.922438 0.133711
H32   H     H_    0.148695 0.123789 0.952887 0.132231
H33   H     H_    0.527009 0.472847 0.364629 0.109520
H34   H     H_    0.287205 0.086128 0.062347 0.117935
H35   H     H_    0.567369 0.663401 0.741481 0.111513
H36   H     H_    0.749579 0.508210 0.434149 0.249388
H37   H     H_    0.869239 0.608456 0.450547 0.263456
H38   H     H_    0.745218 0.579503 0.368027 0.256996
H39   H     H_    0.819474 0.500767 0.281086 0.202442
H40   H     H_    0.718127 0.393313 0.276777 0.183119
H41   H     H_    0.164263 0.251931 0.616104 0.258642
H42   H     H_    0.267261 0.341950 0.604053 0.250168
H43   H     H_    0.294316 0.329063 0.708909 0.254063
H44   H     H_    0.278083 0.494852 0.726275 0.196967
H45   H     H_    0.489666 0.613441 0.448262 0.102417
H46   H     H_    0.190695 0.407314 0.752123 0.199668
H47   H     H_    0.550120 0.852800 0.756027 0.140487
H48   H     H_    0.432975 0.048068 0.058090 0.137563
H49   H     H_    0.569560 0.217021 0.462768 0.257735
H50   H     H_    0.475656 0.153755 0.342880 0.260260
H51   H     H_    0.525878 0.292727 0.413962 0.244682
H52   H     H_    0.345620 0.191580 0.392031 0.188215
H53   H     H_    0.435623 0.258601 0.510275 0.175076
H54   H     H_    0.363683 0.758233 0.498462 0.251307
H55   H     H_    0.480699 0.829067 0.605036 0.259882
H56   H     H_    0.521152 0.483343 0.630290 0.097886
H57   H     H_    0.366810 0.724520 0.591194 0.254127
H58   H     H_    0.377711 0.888719 0.688855 0.187911
H59   H     H_    0.270518 0.833366 0.580260 0.182728
H60   H     H_    0.681198 0.224098 0.010824 0.262288
H61   H     H_    0.550467 0.129402 0.977966 0.263652
H62   H     H_    0.629176 0.231232 0.095533 0.245710
H63   H     H_    0.618334 0.054599 0.075810 0.184192
H64   H     H_    0.748676 0.157500 0.123619 0.192443
H65   H     H_    0.375253 0.787000 0.776232 0.259371
H66   H     H_    0.330128 0.704317 0.827947 0.252843
H67   H     H_    0.474617 0.740098 0.389614 0.117166
H68   H     H_    0.280961 0.651263 0.703745 0.263006
H69   H     H_    0.149211 0.680315 0.749742 0.201322
H70   H     H_    0.196763 0.766799 0.703896 0.190317
H71   H     H_    0.853995 0.097987 0.062655 0.125742
H72   H     H_    0.080209 0.814137 0.796753 0.121710
H73   H     H_    0.700814 0.346376 0.705935 0.090149
H74   H     H_    0.228895 0.681125 0.320256 0.091319
H75   H     H_    0.491788 0.342657 0.678390 0.110615
H76   H     H_    0.497103 0.727280 0.248280 0.114276
N1    N     N_R   0.055660 0.348550 0.045620 -0.041245
N2    N     N_R   0.185200 0.638170 0.176300 -0.040074
N3    N     N_R   0.201680 0.494570 0.045620 -0.040245
N4    N     N_R   0.798320 0.505430 0.954380 -0.040912
N5    N     N_R   0.068420 0.560530 0.871650 -0.036567
N6    N     N_R   0.931580 0.439470 0.128350 -0.032506
N7    N     N_R   0.948070 0.295860 0.997670 -0.042161
N8    N     N_R   0.051930 0.704140 0.002330 -0.040218
N9    N     N_R   0.944340 0.651450 0.954380 -0.038675
N10   N     N_R   0.960830 0.507850 0.823700 -0.042533
N11   N     N_R   0.039170 0.492150 0.176300 -0.037660
N12   N     N_R   0.811290 0.303410 0.871650 -0.040481
N13   N     N_R   0.188710 0.696590 0.128350 -0.040818
N14   N     N_R   0.205200 0.552990 0.997670 -0.037090
N15   N     N_R   0.794800 0.447010 0.002330 -0.039183
N16   N     N_R   0.814800 0.361830 0.823700 -0.038943
Ni1   Ni    Ni4+2 0.119340 0.493420 0.109960 0.216140
Ni2   Ni    Ni4+2 0.880660 0.506580 0.890040 0.214616
Ni3   Ni    Ni4+2 0.872590 0.372590 0.000000 0.212594
Ni4   Ni    Ni4+2 0.127410 0.627410 0.000000 0.215658

loop_
_geom_bond_atom_site_label_1
_geom_bond_atom_site_label_2
_ccdc_geom_bond_type
C46   H7    S    
C52   C86   S    
N5    Ni4   S    
C73   H27   S    
C87   H54   S    
C27   C29   A    
C1    C77   A    
C14   C18   A    
N3    N14   A    
C25   H45   S    
C42   C82   S    
C76   C79   A    
C19   C31   S    
C85   H51   S    
C15   H2    S    
C60   C88   S    
C11   H67   S    
C40   H20   S    
C84   H53   S    
C15   C19   A    
C6    C66   S    
C87   H55   S    
C80   H40   S    
C88   H64   S    
C92   H66   S    
C19   C21   A    
C24   C26   A    
C38   C42   A    
C38   H9    S    
N15   Ni3   S    
C70   H74   S    
N6    Ni3   S    
C11   C14   A    
C57   C59   A    
C67   C71   A    
C84   H52   S    
C28   H6    S    
C49   C54   A    
C12   C79   A    
C49   C57   A    
C60   C62   A    
C7    H23   S    
C37   C42   A    
C61   C63   A    
C83   H42   S    
C72   C78   A    
C90   H60   S    
C40   N12   A    
C29   C78   S    
C62   H71   S    
N4    Ni2   S    
C22   C25   A    
C24   H35   S    
C91   H70   S    
C36   C46   A    
C10   C35   A    
C90   H62   S    
C83   H43   S    
C30   C67   S    
C44   C47   A    
C64   N14   A    
C17   N11   A    
C12   N9    A    
C3    C79   S    
C80   H39   S    
C9    C33   A    
C7    C33   A    
C41   N13   A    
C40   C45   A    
N2    N13   A    
C23   C73   A    
C5    C68   S    
N13   Ni4   S    
C52   C54   A    
N8    Ni4   S    
C63   H72   S    
C46   C48   A    
C50   C53   A    
C64   H22   S    
C62   C66   A    
C45   C69   A    
C88   H63   S    
C76   N8    A    
C84   C85   S    
C4    C6    A    
C85   H49   S    
C91   C92   S    
C71   H25   S    
C86   C87   S    
C44   H8    S    
C22   H33   S    
C39   C43   A    
C89   H31   S    
C43   C80   S    
C23   C37   S    
C75   N7    A    
C1    H1    S    
C50   C56   S    
N9    Ni2   S    
C55   H15   S    
C92   H65   S    
C51   C53   A    
C8    C35   A    
C2    C4    A    
C64   C67   A    
C41   C56   A    
N3    Ni1   S    
C17   H13   S    
C35   H48   S    
C16   H11   S    
C81   H37   S    
C47   C48   A    
C82   H44   S    
C45   C49   S    
N1    N7    A    
C10   H19   S    
C12   H12   S    
N14   Ni4   S    
C90   H61   S    
C26   H56   S    
C75   C77   A    
C52   C58   A    
C10   C61   A    
C34   C74   A    
N12   Ni3   S    
C8    H34   S    
N8    N9    A    
C16   N10   A    
C20   H3    S    
C88   C90   S    
C8    C68   A    
C16   C23   A    
C56   C70   A    
C13   C15   A    
C81   H36   S    
C65   H24   S    
C71   N3    A    
C13   C26   A    
C58   C59   A    
C2    C5    A    
C18   C32   S    
C17   C34   A    
C21   C24   A    
C14   H76   S    
C72   N4    A    
C39   H10   S    
C39   C47   A    
C65   N15   A    
C53   H17   S    
C9    H18   S    
C63   C68   A    
C27   H5    S    
C65   C78   A    
C27   C32   A    
C75   H29   S    
C38   C48   A    
C28   C31   A    
C20   C22   A    
C80   C81   S    
C3    C5    A    
C85   H50   S    
C74   N6    A    
N11   Ni1   S    
C21   H4    S    
C2    H32   S    
C6    C89   A    
C74   H28   S    
C50   C55   A    
C54   H16   S    
C3    C89   A    
C9    C60   A    
C76   H30   S    
C37   C44   A    
C86   H58   S    
C70   N2    A    
C41   H21   S    
N1    Ni1   S    
C28   C30   A    
C29   C31   A    
C86   H59   S    
C7    C66   A    
C30   C32   A    
C92   H68   S    
N4    N15   A    
C81   H38   S    
N5    N10   A    
C33   H47   S    
N6    N11   A    
N2    Ni1   S    
C1    N1    A    
C34   C36   S    
N16   Ni2   S    
C57   H14   S    
C18   C20   A    
C73   N5    A    
C69   H73   S    
C83   H41   S    
C13   H75   S    
C69   N16   A    
N7    Ni3   S    
N10   Ni2   S    
C61   C91   S    
C4    C77   S    
C51   C59   A    
C82   H46   S    
C82   C83   S    
C87   H57   S    
C55   C58   A    
C72   H26   S    
C11   C25   A    
C91   H69   S    
C36   C43   A    
C51   C84   S    
N12   N16   A    
