data_mof_unit_36995.cif
_audit_creation_date              2012-12-10T17:18:57-0500
_audit_creation_method            fapswitch 2.2
_symmetry_space_group_name_H-M    P1
_symmetry_Int_Tables_number       1
_space_group_crystal_system       triclinic
_cell_length_a                    9.655071
_cell_length_b                    10.808527
_cell_length_c                    13.555888
_cell_angle_alpha                 95.121082
_cell_angle_beta                  73.661122
_cell_angle_gamma                 90.546598
_cell_volume                      1351.92353134

loop_
_atom_site_label
_atom_site_type_symbol
_atom_type_description
_atom_site_fract_x
_atom_site_fract_y
_atom_site_fract_z
_atom_type_partial_charge
C1    C     C_R   0.503541 0.736492 0.492675 0.792799
C2    C     C_R   0.429425 0.515990 0.981514 0.029290
C3    C     C_R   0.465450 0.547129 0.877535 -0.123095
C4    C     C_R   0.536135 0.529604 0.036088 0.000915
C5    C     C_R   0.678316 0.561614 0.983040 -0.102808
C6    C     C_R   0.707951 0.594849 0.882136 0.429284
C7    C     C_R   0.595479 0.610434 0.838947 0.388476
C8    C     C_R   0.508373 0.506986 0.139900 -0.248528
C9    C     C_R   0.760513 0.537695 0.134272 0.476567
C10   C     C_R   0.374571 0.508769 0.814572 -0.071398
C11   C     C_R   0.303853 0.873899 0.407115 -0.141849
C12   C     C_R   0.422375 0.505247 0.700018 0.844339
C13   C     C_R   0.176532 0.931909 0.405105 -0.186306
C14   C     C_R   0.133661 0.044468 0.463698 -0.149988
C15   C     C_R   0.225780 0.105631 0.514570 0.196032
C16   C     C_R   0.367870 0.058756 0.498939 0.061604
C17   C     C_R   0.394271 0.933019 0.462250 0.082605
C18   C     C_R   0.507534 0.870424 0.485179 -0.107328
C19   C     C_R   0.614006 0.938676 0.516830 -0.232691
C20   C     C_R   0.605937 0.067045 0.528551 -0.211779
C21   C     C_R   0.484630 0.129092 0.518440 -0.113475
C22   C     C_R   0.926750 0.334303 0.344016 0.523882
C23   C     C_R   0.494521 0.263509 0.509082 0.818358
C24   C     C_R   0.043243 0.284693 0.261938 -0.375138
C25   C     C_R   0.180593 0.277659 0.272528 0.383216
C26   C     C_R   0.206659 0.340151 0.357876 -0.202301
C27   C     C_R   0.103767 0.418697 0.430097 0.042909
C28   C     C_R   0.955142 0.417832 0.427072 0.081565
C29   C     C_R   0.902624 0.584293 0.559564 -0.074564
C30   C     C_R   0.049312 0.585833 0.559360 0.250597
C31   C     C_R   0.576836 0.500959 0.301005 0.834510
C32   C     C_R   0.789472 0.561491 0.031192 -0.242643
C33   C     C_R   0.617978 0.512288 0.189578 -0.140171
C34   C     C_R   0.239431 0.459317 0.860888 -0.164673
C35   C     C_R   0.196465 0.442818 0.965326 -0.144012
C36   C     C_R   0.290728 0.468127 0.024948 -0.098064
Cu1   Cu    Cu3+1 0.359340 0.500010 0.500010 0.970043
Cu2   Cu    Cu3+1 0.640660 0.499990 0.499990 1.017495
H1    H     H_    0.330971 0.783321 0.365275 0.148975
H2    H     H_    0.105997 0.885083 0.364787 0.129415
H3    H     H_    0.025919 0.080825 0.473916 0.141911
H4    H     H_    0.694767 0.117780 0.545990 0.174151
H5    H     H_    0.829181 0.654287 0.607361 0.221696
H6    H     H_    0.025095 0.244987 0.190850 0.170267
H7    H     H_    0.313746 0.327886 0.360236 0.238492
H8    H     H_    0.899283 0.582097 0.989553 0.192667
H9    H     H_    0.400736 0.487889 0.184655 0.180559
H10   H     H_    0.168730 0.427670 0.815415 0.171206
H11   H     H_    0.252707 0.445604 0.103659 0.155093
H12   H     H_    0.091961 0.403768 0.999216 0.165384
H13   H     H_    0.703975 0.893027 0.532503 0.175445
N1    N     N_R   0.852480 0.498790 0.499000 -0.204606
N2    N     N_R   0.148360 0.498710 0.498970 -0.193065
O1    O     O_R   0.381190 0.680360 0.500010 -0.560758
O2    O     O_R   0.618760 0.680340 0.500000 -0.585913
O3    O     O_R   0.323240 0.499990 0.650990 -0.565842
O4    O     O_R   0.560820 0.499960 0.650980 -0.543581
O5    O     O_R   0.381240 0.319660 0.500000 -0.593459
O6    O     O_R   0.618810 0.319640 0.499990 -0.531511
O7    O     O_R   0.439180 0.500040 0.349020 -0.636124
O8    O     O_R   0.676760 0.500010 0.349010 -0.479774
O9    O     O_3   0.872611 0.532591 0.178924 -0.566525
C37   C     C_3   0.917438 0.654335 0.199633 -0.326716
H14   H     H_    0.997302 0.649803 0.244260 0.182553
H15   H     H_    0.825604 0.714445 0.247531 0.151933
H16   H     H_    0.971622 0.696592 0.127070 0.157640
I1    I     I_    0.120286 0.222220 0.648310 -0.450933
O10   O     O_3   0.789660 0.306423 0.337038 -0.510516
C38   C     C_3   0.774755 0.182498 0.297218 -0.322231
H17   H     H_    0.833629 0.114133 0.328069 0.141779
H18   H     H_    0.808067 0.173976 0.211565 0.161882
H19   H     H_    0.659052 0.158565 0.319683 0.181075
O11   O     O_3   0.296607 0.219549 0.197683 -0.569748
C39   C     C_3   0.258038 0.104470 0.155642 -0.298009
H20   H     H_    0.210150 0.118587 0.091897 0.166287
H21   H     H_    0.183855 0.051252 0.214963 0.150408
H22   H     H_    0.357524 0.047002 0.122098 0.186322
O12   O     O_3   0.847957 0.604096 0.822332 -0.553334
C40   C     C_3   0.896607 0.482047 0.781991 -0.289090
H23   H     H_    0.009671 0.485515 0.734831 0.220561
H24   H     H_    0.832405 0.440259 0.731249 0.182839
H25   H     H_    0.895076 0.420301 0.843740 0.159815
I2    I     I_    0.102058 0.732936 0.657322 -0.285619
O13   O     O_3   0.618207 0.683429 0.757304 -0.561539
C41   C     C_3   0.528507 0.790312 0.788587 -0.290048
H26   H     H_    0.557022 0.853620 0.726166 0.196806
H27   H     H_    0.545161 0.841607 0.859255 0.155345
H28   H     H_    0.412872 0.766742 0.801075 0.164759

loop_
_geom_bond_atom_site_label_1
_geom_bond_atom_site_label_2
_ccdc_geom_bond_type
C23   O5    A    
C37   H15   S    
C16   C21   A    
C28   N1    A    
O11   C39   S    
C31   O8    A    
C35   C36   A    
C4    C8    A    
C41   H26   S    
C23   O6    A    
C26   C27   A    
Cu1   Cu2   S    
C39   H21   S    
C18   C19   A    
C3    C7    A    
C5    C6    A    
C6    O12   S    
Cu2   N1    S    
C15   C16   A    
C34   C35   A    
C30   I2    S    
C38   H18   S    
C13   H2    S    
C9    C32   A    
Cu1   O3    S    
Cu2   O2    S    
C19   C20   A    
C16   C17   A    
C39   H22   S    
C31   C33   S    
Cu1   O5    S    
C26   H7    S    
Cu2   O8    S    
Cu1   N2    S    
Cu2   O6    S    
C7    O13   S    
C37   H16   S    
C22   C28   A    
C13   C14   A    
C29   H5    S    
C9    C33   A    
C41   H27   S    
C30   N2    A    
C39   H20   S    
C9    O9    S    
C24   C25   A    
C40   H24   S    
O12   C40   S    
O10   C38   S    
C25   C26   A    
C37   H14   S    
C31   O7    A    
C38   H19   S    
C2    C4    A    
C1    O1    A    
C29   C30   A    
Cu2   O4    S    
C15   I1    S    
C35   H12   S    
C17   C18   A    
C1    C18   S    
C10   C34   A    
O13   C41   S    
C11   H1    S    
C22   O10   S    
C12   O3    A    
C10   C12   S    
C14   H3    S    
C12   O4    A    
C21   C23   S    
C24   H6    S    
C22   C24   A    
C34   H10   S    
Cu1   O1    S    
C41   H28   S    
C2    C36   A    
C11   C17   A    
C32   H8    S    
C4    C5    A    
C40   H25   S    
C20   H4    S    
C27   N2    A    
C6    C7    A    
C5    C32   A    
C2    C3    A    
C1    O2    A    
C8    H9    S    
C3    C10   A    
C11   C13   A    
C25   O11   S    
C8    C33   A    
C38   H17   S    
Cu1   O7    S    
C40   H23   S    
C19   H13   S    
C20   C21   A    
C27   C28   A    
C14   C15   A    
O9    C37   S    
C36   H11   S    
C29   N1    A    
