data_mof_unit_63009.cif
_audit_creation_date              2013-03-05T15:54:03-0500
_audit_creation_method            fapswitch 2.2
_symmetry_space_group_name_H-M    P1
_symmetry_Int_Tables_number       1
_space_group_crystal_system       tetragonal
_cell_length_a                    34.439633
_cell_length_b                    34.439633
_cell_length_c                    34.439632
_cell_angle_alpha                 90.0
_cell_angle_beta                  90.0
_cell_angle_gamma                 90.0
_cell_volume                      40848.4453008

loop_
_atom_site_label
_atom_site_type_symbol
_atom_site_description
_atom_site_fract_x
_atom_site_fract_y
_atom_site_fract_z
_atom_type_partial_charge
Zn1   Zn    Zn3+2 0.217260 0.282740 0.717260 1.158998
Zn2   Zn    Zn3+2 0.782740 0.717260 0.282740 1.158998
Zn3   Zn    Zn3+2 0.282740 0.282740 0.217260 1.158998
Zn4   Zn    Zn3+2 0.717260 0.717260 0.782740 1.158998
Zn5   Zn    Zn3+2 0.782740 0.282740 0.282740 1.158998
Zn6   Zn    Zn3+2 0.217260 0.717260 0.717260 1.158998
Zn7   Zn    Zn3+2 0.717260 0.282740 0.782740 1.158998
Zn8   Zn    Zn3+2 0.282740 0.717260 0.217260 1.158998
Zn9   Zn    Zn3+2 0.217260 0.717260 0.282740 1.158998
Zn10  Zn    Zn3+2 0.782740 0.282740 0.717260 1.158998
Zn11  Zn    Zn3+2 0.282740 0.717260 0.782740 1.158998
Zn12  Zn    Zn3+2 0.717260 0.282740 0.217260 1.158998
Zn13  Zn    Zn3+2 0.782740 0.717260 0.717260 1.158998
Zn14  Zn    Zn3+2 0.217260 0.282740 0.282740 1.158998
Zn15  Zn    Zn3+2 0.717260 0.717260 0.217260 1.158998
Zn16  Zn    Zn3+2 0.282740 0.282740 0.782740 1.158998
Zn17  Zn    Zn3+2 0.282740 0.217260 0.282740 1.158998
Zn18  Zn    Zn3+2 0.717260 0.782740 0.717260 1.158998
Zn19  Zn    Zn3+2 0.282740 0.782740 0.717260 1.158999
Zn20  Zn    Zn3+2 0.717260 0.217260 0.282740 1.158999
Zn21  Zn    Zn3+2 0.717260 0.782740 0.282740 1.158998
Zn22  Zn    Zn3+2 0.282740 0.217260 0.717260 1.158998
Zn23  Zn    Zn3+2 0.717260 0.217260 0.717260 1.158998
Zn24  Zn    Zn3+2 0.282740 0.782740 0.282740 1.158998
Zn25  Zn    Zn3+2 0.217260 0.782740 0.217260 1.158998
Zn26  Zn    Zn3+2 0.782740 0.217260 0.782740 1.158998
Zn27  Zn    Zn3+2 0.782740 0.782740 0.217260 1.158998
Zn28  Zn    Zn3+2 0.217260 0.217260 0.782740 1.158998
Zn29  Zn    Zn3+2 0.782740 0.782740 0.782740 1.158998
Zn30  Zn    Zn3+2 0.217260 0.217260 0.217260 1.158998
Zn31  Zn    Zn3+2 0.217260 0.782740 0.782740 1.158998
Zn32  Zn    Zn3+2 0.782740 0.217260 0.217260 1.158999
O1    O     O_3   0.250000 0.250000 0.750000 -0.591061
O2    O     O_3   0.750000 0.750000 0.250000 -0.591061
O3    O     O_3   0.250000 0.250000 0.250000 -0.591061
O4    O     O_3   0.750000 0.750000 0.750000 -0.591061
O5    O     O_3   0.750000 0.250000 0.250000 -0.591061
O6    O     O_3   0.250000 0.750000 0.750000 -0.591061
O7    O     O_3   0.750000 0.250000 0.750000 -0.591061
O8    O     O_3   0.250000 0.750000 0.250000 -0.591061
O9    O     O_R   0.337440 0.272960 0.772960 -0.595310
O10   O     O_R   0.662560 0.727040 0.227040 -0.595310
O11   O     O_R   0.227040 0.272960 0.337440 -0.595311
O12   O     O_R   0.772960 0.727040 0.662560 -0.595311
O13   O     O_R   0.662560 0.272960 0.227040 -0.595311
O14   O     O_R   0.337440 0.727040 0.772960 -0.595310
O15   O     O_R   0.772960 0.272960 0.662560 -0.595310
O16   O     O_R   0.227040 0.727040 0.337440 -0.595310
O17   O     O_R   0.337440 0.727040 0.227040 -0.595310
O18   O     O_R   0.662560 0.272960 0.772960 -0.595310
O19   O     O_R   0.227040 0.727040 0.662560 -0.595311
O20   O     O_R   0.772960 0.272960 0.337440 -0.595310
O21   O     O_R   0.662560 0.727040 0.772960 -0.595310
O22   O     O_R   0.337440 0.272960 0.227040 -0.595310
O23   O     O_R   0.772960 0.727040 0.337440 -0.595310
O24   O     O_R   0.227040 0.272960 0.662560 -0.595310
O25   O     O_R   0.272960 0.772960 0.337440 -0.595310
O26   O     O_R   0.727040 0.227040 0.662560 -0.595311
O27   O     O_R   0.272960 0.337440 0.227040 -0.595310
O28   O     O_R   0.727040 0.662560 0.772960 -0.595310
O29   O     O_R   0.272960 0.227040 0.662560 -0.595311
O30   O     O_R   0.727040 0.772960 0.337440 -0.595310
O31   O     O_R   0.272960 0.662560 0.772960 -0.595310
O32   O     O_R   0.727040 0.337440 0.227040 -0.595310
O33   O     O_R   0.727040 0.227040 0.337440 -0.595310
O34   O     O_R   0.272960 0.772960 0.662560 -0.595310
O35   O     O_R   0.727040 0.662560 0.227040 -0.595311
O36   O     O_R   0.272960 0.337440 0.772960 -0.595310
O37   O     O_R   0.727040 0.772960 0.662560 -0.595310
O38   O     O_R   0.272960 0.227040 0.337440 -0.595310
O39   O     O_R   0.727040 0.337440 0.772960 -0.595311
O40   O     O_R   0.272960 0.662560 0.227040 -0.595311
O41   O     O_R   0.772960 0.337440 0.272960 -0.595310
O42   O     O_R   0.227040 0.662560 0.727040 -0.595311
O43   O     O_R   0.337440 0.227040 0.272960 -0.595310
O44   O     O_R   0.662560 0.772960 0.727040 -0.595311
O45   O     O_R   0.227040 0.662560 0.272960 -0.595310
O46   O     O_R   0.772960 0.337440 0.727040 -0.595310
O47   O     O_R   0.662560 0.772960 0.272960 -0.595310
O48   O     O_R   0.337440 0.227040 0.727040 -0.595310
O49   O     O_R   0.227040 0.337440 0.727040 -0.595310
O50   O     O_R   0.772960 0.662560 0.272960 -0.595310
O51   O     O_R   0.662560 0.227040 0.727040 -0.595311
O52   O     O_R   0.337440 0.772960 0.272960 -0.595311
O53   O     O_R   0.772960 0.662560 0.727040 -0.595311
O54   O     O_R   0.227040 0.337440 0.272960 -0.595310
O55   O     O_R   0.337440 0.772960 0.727040 -0.595310
O56   O     O_R   0.662560 0.227040 0.272960 -0.595310
O57   O     O_R   0.837440 0.772960 0.772960 -0.595311
O58   O     O_R   0.162560 0.227040 0.227040 -0.595311
O59   O     O_R   0.227040 0.772960 0.837440 -0.595311
O60   O     O_R   0.772960 0.227040 0.162560 -0.595310
O61   O     O_R   0.162560 0.772960 0.227040 -0.595311
O62   O     O_R   0.837440 0.227040 0.772960 -0.595310
O63   O     O_R   0.772960 0.772960 0.162560 -0.595310
O64   O     O_R   0.227040 0.227040 0.837440 -0.595310
O65   O     O_R   0.837440 0.227040 0.227040 -0.595310
O66   O     O_R   0.162560 0.772960 0.772960 -0.595310
O67   O     O_R   0.227040 0.227040 0.162560 -0.595311
O68   O     O_R   0.772960 0.772960 0.837440 -0.595311
O69   O     O_R   0.162560 0.227040 0.772960 -0.595310
O70   O     O_R   0.837440 0.772960 0.227040 -0.595310
O71   O     O_R   0.772960 0.227040 0.837440 -0.595310
O72   O     O_R   0.227040 0.772960 0.162560 -0.595310
O73   O     O_R   0.772960 0.837440 0.227040 -0.595310
O74   O     O_R   0.227040 0.162560 0.772960 -0.595310
O75   O     O_R   0.772960 0.162560 0.772960 -0.595310
O76   O     O_R   0.227040 0.837440 0.227040 -0.595310
O77   O     O_R   0.227040 0.162560 0.227040 -0.595311
O78   O     O_R   0.772960 0.837440 0.772960 -0.595311
O79   O     O_R   0.227040 0.837440 0.772960 -0.595311
O80   O     O_R   0.772960 0.162560 0.227040 -0.595309
O81   O     O_R   0.837440 0.272960 0.272960 -0.595310
O82   O     O_R   0.162560 0.727040 0.727040 -0.595310
O83   O     O_R   0.727040 0.272960 0.837440 -0.595310
O84   O     O_R   0.272960 0.727040 0.162560 -0.595311
O85   O     O_R   0.162560 0.272960 0.727040 -0.595310
O86   O     O_R   0.837440 0.727040 0.272960 -0.595310
O87   O     O_R   0.272960 0.272960 0.162560 -0.595310
O88   O     O_R   0.727040 0.727040 0.837440 -0.595310
O89   O     O_R   0.837440 0.727040 0.727040 -0.595310
O90   O     O_R   0.162560 0.272960 0.272960 -0.595310
O91   O     O_R   0.727040 0.727040 0.162560 -0.595311
O92   O     O_R   0.272960 0.272960 0.837440 -0.595311
O93   O     O_R   0.162560 0.727040 0.272960 -0.595310
O94   O     O_R   0.837440 0.272960 0.727040 -0.595310
O95   O     O_R   0.272960 0.727040 0.837440 -0.595310
O96   O     O_R   0.727040 0.272960 0.162560 -0.595310
O97   O     O_R   0.272960 0.837440 0.727040 -0.595310
O98   O     O_R   0.727040 0.162560 0.272960 -0.595310
O99   O     O_R   0.272960 0.162560 0.272960 -0.595310
O100  O     O_R   0.727040 0.837440 0.727040 -0.595310
O101  O     O_R   0.727040 0.162560 0.727040 -0.595310
O102  O     O_R   0.272960 0.837440 0.272960 -0.595310
O103  O     O_R   0.727040 0.837440 0.272960 -0.595310
O104  O     O_R   0.272960 0.162560 0.727040 -0.595311
C1    C     C_R   0.355629 0.250000 0.750000 0.914521
C2    C     C_R   0.644371 0.750000 0.250000 0.914521
C3    C     C_R   0.250000 0.250000 0.355629 0.914521
C4    C     C_R   0.750000 0.750000 0.644371 0.914521
C5    C     C_R   0.644371 0.250000 0.250000 0.914521
C6    C     C_R   0.355629 0.750000 0.750000 0.914521
C7    C     C_R   0.750000 0.250000 0.644371 0.914521
C8    C     C_R   0.250000 0.750000 0.355629 0.914521
C9    C     C_R   0.355629 0.750000 0.250000 0.914521
C10   C     C_R   0.644371 0.250000 0.750000 0.914521
C11   C     C_R   0.250000 0.750000 0.644371 0.914521
C12   C     C_R   0.750000 0.250000 0.355629 0.914521
C13   C     C_R   0.644371 0.750000 0.750000 0.914521
C14   C     C_R   0.355629 0.250000 0.250000 0.914520
C15   C     C_R   0.750000 0.750000 0.355629 0.914520
C16   C     C_R   0.250000 0.250000 0.644371 0.914521
C17   C     C_R   0.250000 0.355629 0.250000 0.914521
C18   C     C_R   0.750000 0.644371 0.750000 0.914521
C19   C     C_R   0.250000 0.644371 0.750000 0.914521
C20   C     C_R   0.750000 0.355629 0.250000 0.914521
C21   C     C_R   0.750000 0.644371 0.250000 0.914521
C22   C     C_R   0.250000 0.355629 0.750000 0.914521
C23   C     C_R   0.750000 0.355629 0.750000 0.914521
C24   C     C_R   0.250000 0.644371 0.250000 0.914521
C25   C     C_R   0.855629 0.750000 0.750000 0.914521
C26   C     C_R   0.144371 0.250000 0.250000 0.914521
C27   C     C_R   0.250000 0.750000 0.855629 0.914521
C28   C     C_R   0.750000 0.250000 0.144371 0.914521
C29   C     C_R   0.144371 0.750000 0.250000 0.914521
C30   C     C_R   0.855629 0.250000 0.750000 0.914521
C31   C     C_R   0.750000 0.750000 0.144371 0.914521
C32   C     C_R   0.250000 0.250000 0.855629 0.914521
C33   C     C_R   0.855629 0.250000 0.250000 0.914521
C34   C     C_R   0.144371 0.750000 0.750000 0.914521
C35   C     C_R   0.250000 0.250000 0.144371 0.914521
C36   C     C_R   0.750000 0.750000 0.855629 0.914521
C37   C     C_R   0.144371 0.250000 0.750000 0.914521
C38   C     C_R   0.855629 0.750000 0.250000 0.914521
C39   C     C_R   0.750000 0.250000 0.855629 0.914521
C40   C     C_R   0.250000 0.750000 0.144371 0.914521
C41   C     C_R   0.750000 0.855629 0.250000 0.914517
C42   C     C_R   0.250000 0.144371 0.750000 0.914521
C43   C     C_R   0.750000 0.144371 0.750000 0.914521
C44   C     C_R   0.250000 0.855629 0.250000 0.914521
C45   C     C_R   0.250000 0.144371 0.250000 0.914521
C46   C     C_R   0.750000 0.855629 0.750000 0.914521
C47   C     C_R   0.250000 0.855629 0.750000 0.914521
C48   C     C_R   0.750000 0.144371 0.250000 0.914520
C49   C     C_R   0.253929 0.581997 0.714704 0.298776
C50   C     C_R   0.746071 0.418003 0.285296 0.298777
C51   C     C_R   0.253929 0.581997 0.285296 0.298777
C52   C     C_R   0.746071 0.418003 0.714704 0.298777
C53   C     C_R   0.746071 0.581997 0.285296 0.298777
C54   C     C_R   0.253929 0.418003 0.714704 0.298776
C55   C     C_R   0.746071 0.581997 0.714704 0.298777
C56   C     C_R   0.253929 0.418003 0.285296 0.298776
C57   C     C_R   0.581997 0.714704 0.253929 0.298777
C58   C     C_R   0.418003 0.285296 0.746071 0.298776
C59   C     C_R   0.581997 0.285296 0.253929 0.298776
C60   C     C_R   0.418003 0.714704 0.746071 0.298777
C61   C     C_R   0.581997 0.285296 0.746071 0.298777
C62   C     C_R   0.418003 0.714704 0.253929 0.298776
C63   C     C_R   0.581997 0.714704 0.746071 0.298777
C64   C     C_R   0.418003 0.285296 0.253930 0.298776
C65   C     C_R   0.714704 0.253929 0.581997 0.298777
C66   C     C_R   0.285296 0.746071 0.418003 0.298777
C67   C     C_R   0.285296 0.253929 0.581997 0.298777
C68   C     C_R   0.714704 0.746070 0.418003 0.298777
C69   C     C_R   0.285296 0.746071 0.581997 0.298777
C70   C     C_R   0.714704 0.253929 0.418003 0.298777
C71   C     C_R   0.714704 0.746071 0.581997 0.298777
C72   C     C_R   0.285296 0.253930 0.418003 0.298778
C73   C     C_R   0.753929 0.081997 0.714704 0.298777
C74   C     C_R   0.246071 0.918003 0.285296 0.298777
C75   C     C_R   0.253929 0.081997 0.785296 0.298777
C76   C     C_R   0.746070 0.918003 0.214704 0.298778
C77   C     C_R   0.246071 0.081997 0.285296 0.298777
C78   C     C_R   0.753929 0.918003 0.714704 0.298777
C79   C     C_R   0.746071 0.081997 0.214704 0.298776
C80   C     C_R   0.253929 0.918003 0.785296 0.298777
C81   C     C_R   0.753929 0.918003 0.285296 0.298777
C82   C     C_R   0.246071 0.081997 0.714704 0.298776
C83   C     C_R   0.253929 0.918003 0.214704 0.298777
C84   C     C_R   0.746071 0.081997 0.785296 0.298776
C85   C     C_R   0.246071 0.918003 0.714704 0.298777
C86   C     C_R   0.753929 0.081997 0.285296 0.298776
C87   C     C_R   0.746071 0.918003 0.785296 0.298776
C88   C     C_R   0.253929 0.081997 0.214704 0.298777
C89   C     C_R   0.081997 0.714704 0.753929 0.298777
C90   C     C_R   0.918003 0.285296 0.246071 0.298776
C91   C     C_R   0.081997 0.785296 0.253929 0.298777
C92   C     C_R   0.918003 0.214704 0.746071 0.298776
C93   C     C_R   0.081997 0.285296 0.246071 0.298777
C94   C     C_R   0.918003 0.714704 0.753929 0.298777
C95   C     C_R   0.081997 0.214704 0.746071 0.298777
C96   C     C_R   0.918003 0.785296 0.253929 0.298776
C97   C     C_R   0.918003 0.285296 0.753929 0.298777
C98   C     C_R   0.081997 0.714704 0.246071 0.298777
C99   C     C_R   0.918003 0.214704 0.253929 0.298777
C100  C     C_R   0.081997 0.785296 0.746070 0.298777
C101  C     C_R   0.918003 0.714704 0.246071 0.298777
C102  C     C_R   0.081997 0.285296 0.753929 0.298776
C103  C     C_R   0.918003 0.785296 0.746071 0.298776
C104  C     C_R   0.081997 0.214704 0.253929 0.298776
C105  C     C_R   0.714704 0.753930 0.081997 0.298777
C106  C     C_R   0.285296 0.246071 0.918003 0.298777
C107  C     C_R   0.785296 0.253929 0.081997 0.298777
C108  C     C_R   0.214704 0.746071 0.918003 0.298777
C109  C     C_R   0.285296 0.246071 0.081997 0.298777
C110  C     C_R   0.714704 0.753930 0.918003 0.298777
C111  C     C_R   0.214704 0.746071 0.081997 0.298777
C112  C     C_R   0.785296 0.253929 0.918003 0.298777
C113  C     C_R   0.285296 0.753929 0.918003 0.298777
C114  C     C_R   0.714704 0.246071 0.081997 0.298777
C115  C     C_R   0.214704 0.253929 0.918003 0.298777
C116  C     C_R   0.785296 0.746070 0.081997 0.298777
C117  C     C_R   0.714704 0.246071 0.918003 0.298777
C118  C     C_R   0.285296 0.753929 0.081997 0.298777
C119  C     C_R   0.785296 0.746070 0.918003 0.298777
C120  C     C_R   0.214704 0.253929 0.081997 0.298777
C121  C     C_R   0.753929 0.581997 0.214704 0.298777
C122  C     C_R   0.246071 0.418003 0.785296 0.298776
C123  C     C_R   0.753929 0.581997 0.785296 0.298777
C124  C     C_R   0.246071 0.418003 0.214704 0.298777
C125  C     C_R   0.246071 0.581997 0.785296 0.298777
C126  C     C_R   0.753929 0.418003 0.214704 0.298777
C127  C     C_R   0.246071 0.581997 0.214704 0.298777
C128  C     C_R   0.753929 0.418003 0.785296 0.298777
C129  C     C_R   0.581997 0.214704 0.753929 0.298776
C130  C     C_R   0.418003 0.785296 0.246071 0.298776
C131  C     C_R   0.581997 0.785296 0.753929 0.298777
C132  C     C_R   0.418003 0.214704 0.246070 0.298777
C133  C     C_R   0.581997 0.785296 0.246071 0.298776
C134  C     C_R   0.418003 0.214704 0.753929 0.298777
C135  C     C_R   0.581997 0.214704 0.246070 0.298777
C136  C     C_R   0.418003 0.785296 0.753929 0.298776
C137  C     C_R   0.214704 0.753929 0.581997 0.298777
C138  C     C_R   0.785296 0.246071 0.418003 0.298777
C139  C     C_R   0.785296 0.753930 0.581997 0.298777
C140  C     C_R   0.214704 0.246070 0.418003 0.298777
C141  C     C_R   0.785296 0.246071 0.581997 0.298777
C142  C     C_R   0.214704 0.753929 0.418003 0.298777
C143  C     C_R   0.214704 0.246070 0.581997 0.298777
C144  C     C_R   0.785296 0.753930 0.418003 0.298777
C145  C     C_R   0.250000 0.602013 0.750000 -0.260424
C146  C     C_R   0.750000 0.397986 0.250000 -0.260425
C147  C     C_R   0.250000 0.602013 0.250000 -0.260424
C148  C     C_R   0.750000 0.397986 0.750000 -0.260425
C149  C     C_R   0.750000 0.602013 0.250000 -0.260424
C150  C     C_R   0.250000 0.397986 0.750000 -0.260424
C151  C     C_R   0.750000 0.602013 0.750000 -0.260424
C152  C     C_R   0.250000 0.397986 0.250000 -0.260424
C153  C     C_R   0.602013 0.750000 0.250000 -0.260424
C154  C     C_R   0.397986 0.250000 0.750000 -0.260424
C155  C     C_R   0.602013 0.250000 0.250000 -0.260424
C156  C     C_R   0.397986 0.750000 0.750000 -0.260424
C157  C     C_R   0.602013 0.250000 0.750000 -0.260424
C158  C     C_R   0.397986 0.750000 0.250000 -0.260424
C159  C     C_R   0.602013 0.750000 0.750000 -0.260424
C160  C     C_R   0.397986 0.250000 0.250000 -0.260425
C161  C     C_R   0.750000 0.250000 0.602013 -0.260424
C162  C     C_R   0.250000 0.750000 0.397986 -0.260425
C163  C     C_R   0.250000 0.250000 0.602013 -0.260424
C164  C     C_R   0.750000 0.750000 0.397986 -0.260425
C165  C     C_R   0.250000 0.750000 0.602013 -0.260424
C166  C     C_R   0.750000 0.250000 0.397986 -0.260424
C167  C     C_R   0.750000 0.750000 0.602013 -0.260424
C168  C     C_R   0.250000 0.250000 0.397986 -0.260425
C169  C     C_R   0.750000 0.102014 0.750000 -0.260424
C170  C     C_R   0.250000 0.897986 0.250000 -0.260425
C171  C     C_R   0.250000 0.102014 0.750000 -0.260424
C172  C     C_R   0.750000 0.897986 0.250000 -0.260424
C173  C     C_R   0.250000 0.102013 0.250000 -0.260424
C174  C     C_R   0.750000 0.897986 0.750000 -0.260424
C175  C     C_R   0.750000 0.102013 0.250000 -0.260425
C176  C     C_R   0.250000 0.897986 0.750000 -0.260424
C177  C     C_R   0.102014 0.750000 0.750000 -0.260424
C178  C     C_R   0.897986 0.250000 0.250000 -0.260424
C179  C     C_R   0.102014 0.750000 0.250000 -0.260424
C180  C     C_R   0.897986 0.250000 0.750000 -0.260425
C181  C     C_R   0.102013 0.250000 0.250000 -0.260424
C182  C     C_R   0.897986 0.750000 0.750000 -0.260424
C183  C     C_R   0.102014 0.250000 0.750000 -0.260424
C184  C     C_R   0.897986 0.750000 0.250000 -0.260424
C185  C     C_R   0.750000 0.750000 0.102013 -0.260425
C186  C     C_R   0.250000 0.250000 0.897986 -0.260424
C187  C     C_R   0.750000 0.250000 0.102013 -0.260424
C188  C     C_R   0.250000 0.750000 0.897986 -0.260424
C189  C     C_R   0.250000 0.250000 0.102013 -0.260424
C190  C     C_R   0.750000 0.750000 0.897986 -0.260425
C191  C     C_R   0.250000 0.750000 0.102013 -0.260424
C192  C     C_R   0.750000 0.250000 0.897986 -0.260424
C193  C     C_R   0.245177 0.541091 0.785436 -0.178730
C194  C     C_R   0.754822 0.458909 0.214564 -0.178730
C195  C     C_R   0.245177 0.541091 0.214564 -0.178730
C196  C     C_R   0.754822 0.458909 0.785436 -0.178730
C197  C     C_R   0.754822 0.541091 0.214564 -0.178730
C198  C     C_R   0.245177 0.458909 0.785436 -0.178730
C199  C     C_R   0.754822 0.541091 0.785436 -0.178730
C200  C     C_R   0.245177 0.458909 0.214564 -0.178730
C201  C     C_R   0.541091 0.785436 0.245177 -0.178730
C202  C     C_R   0.458909 0.214564 0.754822 -0.178730
C203  C     C_R   0.541091 0.214564 0.245177 -0.178730
C204  C     C_R   0.458909 0.785436 0.754822 -0.178730
C205  C     C_R   0.541091 0.214564 0.754822 -0.178730
C206  C     C_R   0.458909 0.785436 0.245177 -0.178730
C207  C     C_R   0.541091 0.785436 0.754822 -0.178730
C208  C     C_R   0.458909 0.214564 0.245177 -0.178730
C209  C     C_R   0.785436 0.245177 0.541091 -0.178730
C210  C     C_R   0.214564 0.754822 0.458909 -0.178730
C211  C     C_R   0.214564 0.245177 0.541091 -0.178730
C212  C     C_R   0.785436 0.754823 0.458909 -0.178730
C213  C     C_R   0.214564 0.754822 0.541091 -0.178730
C214  C     C_R   0.785436 0.245177 0.458909 -0.178730
C215  C     C_R   0.785436 0.754823 0.541091 -0.178730
C216  C     C_R   0.214564 0.245177 0.458909 -0.178730
C217  C     C_R   0.745177 0.041091 0.785436 -0.178730
C218  C     C_R   0.254823 0.958909 0.214564 -0.178730
C219  C     C_R   0.245177 0.041091 0.714564 -0.178730
C220  C     C_R   0.754822 0.958909 0.285436 -0.178730
C221  C     C_R   0.254823 0.041091 0.214564 -0.178730
C222  C     C_R   0.745177 0.958909 0.785436 -0.178730
C223  C     C_R   0.754822 0.041091 0.285436 -0.178730
C224  C     C_R   0.245177 0.958909 0.714564 -0.178730
C225  C     C_R   0.745177 0.958909 0.214564 -0.178731
C226  C     C_R   0.254823 0.041091 0.785436 -0.178730
C227  C     C_R   0.245177 0.958909 0.285436 -0.178730
C228  C     C_R   0.754823 0.041091 0.714564 -0.178730
C229  C     C_R   0.254823 0.958909 0.785436 -0.178730
C230  C     C_R   0.745177 0.041091 0.214564 -0.178729
C231  C     C_R   0.754823 0.958909 0.714564 -0.178730
C232  C     C_R   0.245177 0.041091 0.285436 -0.178730
C233  C     C_R   0.041090 0.785436 0.745177 -0.178730
C234  C     C_R   0.958909 0.214564 0.254823 -0.178730
C235  C     C_R   0.041091 0.714564 0.245177 -0.178730
C236  C     C_R   0.958909 0.285436 0.754822 -0.178730
C237  C     C_R   0.041091 0.214564 0.254823 -0.178730
C238  C     C_R   0.958909 0.785436 0.745177 -0.178730
C239  C     C_R   0.041090 0.285436 0.754822 -0.178730
C240  C     C_R   0.958909 0.714564 0.245177 -0.178730
C241  C     C_R   0.958909 0.214564 0.745177 -0.178730
C242  C     C_R   0.041090 0.785436 0.254823 -0.178730
C243  C     C_R   0.958909 0.285436 0.245177 -0.178730
C244  C     C_R   0.041091 0.714564 0.754823 -0.178730
C245  C     C_R   0.958909 0.785436 0.254823 -0.178730
C246  C     C_R   0.041090 0.214564 0.745177 -0.178730
C247  C     C_R   0.958909 0.714564 0.754823 -0.178730
C248  C     C_R   0.041091 0.285436 0.245177 -0.178730
C249  C     C_R   0.785436 0.745177 0.041091 -0.178730
C250  C     C_R   0.214564 0.254823 0.958909 -0.178730
C251  C     C_R   0.714564 0.245177 0.041091 -0.178730
C252  C     C_R   0.285436 0.754822 0.958909 -0.178730
C253  C     C_R   0.214564 0.254823 0.041091 -0.178730
C254  C     C_R   0.785436 0.745177 0.958909 -0.178730
C255  C     C_R   0.285436 0.754822 0.041091 -0.178730
C256  C     C_R   0.714564 0.245177 0.958909 -0.178730
C257  C     C_R   0.214564 0.745177 0.958909 -0.178730
C258  C     C_R   0.785436 0.254823 0.041091 -0.178730
C259  C     C_R   0.285436 0.245177 0.958909 -0.178730
C260  C     C_R   0.714564 0.754823 0.041091 -0.178730
C261  C     C_R   0.785436 0.254823 0.958909 -0.178730
C262  C     C_R   0.214564 0.745177 0.041091 -0.178730
C263  C     C_R   0.714564 0.754823 0.958909 -0.178730
C264  C     C_R   0.285436 0.245177 0.041091 -0.178730
C265  C     C_R   0.745177 0.541091 0.285436 -0.178730
C266  C     C_R   0.254823 0.458909 0.714564 -0.178730
C267  C     C_R   0.745177 0.541091 0.714564 -0.178730
C268  C     C_R   0.254823 0.458909 0.285436 -0.178730
C269  C     C_R   0.254823 0.541091 0.714564 -0.178730
C270  C     C_R   0.745177 0.458909 0.285436 -0.178730
C271  C     C_R   0.254823 0.541091 0.285436 -0.178730
C272  C     C_R   0.745177 0.458909 0.714564 -0.178730
C273  C     C_R   0.541091 0.285436 0.745177 -0.178730
C274  C     C_R   0.458909 0.714564 0.254822 -0.178730
C275  C     C_R   0.541091 0.714564 0.745177 -0.178730
C276  C     C_R   0.458909 0.285436 0.254823 -0.178729
C277  C     C_R   0.541091 0.714564 0.254822 -0.178731
C278  C     C_R   0.458909 0.285436 0.745177 -0.178730
C279  C     C_R   0.541091 0.285436 0.254823 -0.178730
C280  C     C_R   0.458909 0.714564 0.745177 -0.178730
C281  C     C_R   0.285436 0.745177 0.541091 -0.178730
C282  C     C_R   0.714564 0.254823 0.458909 -0.178730
C283  C     C_R   0.714564 0.745177 0.541091 -0.178730
C284  C     C_R   0.285436 0.254823 0.458909 -0.178730
C285  C     C_R   0.714564 0.254823 0.541091 -0.178730
C286  C     C_R   0.285436 0.745177 0.458909 -0.178730
C287  C     C_R   0.285436 0.254823 0.541091 -0.178730
C288  C     C_R   0.714564 0.745177 0.458909 -0.178730
C289  C     C_R   0.250000 0.520577 0.750000 -0.098300
C290  C     C_R   0.750000 0.479423 0.250000 -0.098300
C291  C     C_R   0.250000 0.520577 0.250000 -0.098300
C292  C     C_R   0.750000 0.479423 0.750000 -0.098300
C293  C     C_R   0.750000 0.520577 0.250000 -0.098300
C294  C     C_R   0.250000 0.479423 0.750000 -0.098300
C295  C     C_R   0.750000 0.520577 0.750000 -0.098300
C296  C     C_R   0.250000 0.479423 0.250000 -0.098300
C297  C     C_R   0.520577 0.750000 0.250000 -0.098299
C298  C     C_R   0.479423 0.250000 0.750000 -0.098300
C299  C     C_R   0.520577 0.250000 0.250000 -0.098300
C300  C     C_R   0.479423 0.750000 0.750000 -0.098300
C301  C     C_R   0.520577 0.250000 0.750000 -0.098300
C302  C     C_R   0.479423 0.750000 0.250000 -0.098299
C303  C     C_R   0.520577 0.750000 0.750000 -0.098300
C304  C     C_R   0.479423 0.250000 0.250000 -0.098300
C305  C     C_R   0.750000 0.250000 0.520577 -0.098300
C306  C     C_R   0.250000 0.750000 0.479423 -0.098300
C307  C     C_R   0.250000 0.250000 0.520577 -0.098300
C308  C     C_R   0.750000 0.750000 0.479423 -0.098299
C309  C     C_R   0.250000 0.750000 0.520577 -0.098300
C310  C     C_R   0.750000 0.250000 0.479423 -0.098300
C311  C     C_R   0.750000 0.750000 0.520577 -0.098299
C312  C     C_R   0.250000 0.250000 0.479423 -0.098300
C313  C     C_R   0.750000 0.020577 0.750000 -0.098300
C314  C     C_R   0.250000 0.979423 0.250000 -0.098300
C315  C     C_R   0.250000 0.020577 0.750000 -0.098300
C316  C     C_R   0.750000 0.979423 0.250000 -0.098299
C317  C     C_R   0.250000 0.020577 0.250000 -0.098300
C318  C     C_R   0.750000 0.979423 0.750000 -0.098300
C319  C     C_R   0.750000 0.020577 0.250000 -0.098300
C320  C     C_R   0.250000 0.979423 0.750000 -0.098300
C321  C     C_R   0.020577 0.750000 0.750000 -0.098299
C322  C     C_R   0.979423 0.250000 0.250000 -0.098300
C323  C     C_R   0.020577 0.750000 0.250000 -0.098300
C324  C     C_R   0.979423 0.250000 0.750000 -0.098300
C325  C     C_R   0.020577 0.250000 0.250000 -0.098300
C326  C     C_R   0.979423 0.750000 0.750000 -0.098300
C327  C     C_R   0.020577 0.250000 0.750000 -0.098300
C328  C     C_R   0.979423 0.750000 0.250000 -0.098300
C329  C     C_R   0.750000 0.750000 0.020577 -0.098300
C330  C     C_R   0.250000 0.250000 0.979423 -0.098300
C331  C     C_R   0.750000 0.250000 0.020577 -0.098300
C332  C     C_R   0.250000 0.750000 0.979423 -0.098300
C333  C     C_R   0.250000 0.250000 0.020577 -0.098300
C334  C     C_R   0.750000 0.750000 0.979423 -0.098300
C335  C     C_R   0.250000 0.750000 0.020577 -0.098300
C336  C     C_R   0.750000 0.250000 0.979423 -0.098300
C337  C     C_R   0.238803 0.520130 0.819978 0.621034
C338  C     C_R   0.761197 0.479870 0.180022 0.621034
C339  C     C_R   0.238803 0.520130 0.180022 0.621034
C340  C     C_R   0.761197 0.479870 0.819978 0.621034
C341  C     C_R   0.761197 0.520130 0.180022 0.621034
C342  C     C_R   0.238803 0.479870 0.819978 0.621034
C343  C     C_R   0.761197 0.520130 0.819978 0.621034
C344  C     C_R   0.238803 0.479870 0.180022 0.621034
C345  C     C_R   0.520130 0.819978 0.238803 0.621035
C346  C     C_R   0.479870 0.180022 0.761197 0.621034
C347  C     C_R   0.520130 0.180022 0.238802 0.621034
C348  C     C_R   0.479870 0.819978 0.761197 0.621034
C349  C     C_R   0.520130 0.180022 0.761197 0.621034
C350  C     C_R   0.479870 0.819978 0.238803 0.621035
C351  C     C_R   0.520130 0.819978 0.761197 0.621034
C352  C     C_R   0.479870 0.180022 0.238802 0.621035
C353  C     C_R   0.819978 0.238803 0.520130 0.621034
C354  C     C_R   0.180022 0.761197 0.479870 0.621034
C355  C     C_R   0.180022 0.238802 0.520130 0.621034
C356  C     C_R   0.819978 0.761198 0.479870 0.621034
C357  C     C_R   0.180022 0.761197 0.520130 0.621034
C358  C     C_R   0.819978 0.238803 0.479870 0.621034
C359  C     C_R   0.819978 0.761198 0.520130 0.621034
C360  C     C_R   0.180022 0.238802 0.479870 0.621034
C361  C     C_R   0.738803 0.020130 0.819978 0.621034
C362  C     C_R   0.261197 0.979870 0.180022 0.621034
C363  C     C_R   0.238803 0.020130 0.680022 0.621034
C364  C     C_R   0.761196 0.979870 0.319978 0.621034
C365  C     C_R   0.261197 0.020130 0.180022 0.621034
C366  C     C_R   0.738803 0.979870 0.819978 0.621034
C367  C     C_R   0.761196 0.020130 0.319978 0.621035
C368  C     C_R   0.238803 0.979870 0.680022 0.621034
C369  C     C_R   0.738803 0.979870 0.180022 0.621033
C370  C     C_R   0.261197 0.020130 0.819978 0.621034
C371  C     C_R   0.238803 0.979870 0.319978 0.621034
C372  C     C_R   0.761197 0.020130 0.680022 0.621033
C373  C     C_R   0.261197 0.979870 0.819978 0.621034
C374  C     C_R   0.738803 0.020130 0.180022 0.621034
C375  C     C_R   0.761197 0.979870 0.680022 0.621034
C376  C     C_R   0.238803 0.020130 0.319978 0.621034
C377  C     C_R   0.020130 0.819978 0.738803 0.621034
C378  C     C_R   0.979870 0.180022 0.261197 0.621034
C379  C     C_R   0.020130 0.680022 0.238803 0.621034
C380  C     C_R   0.979870 0.319978 0.761197 0.621034
C381  C     C_R   0.020130 0.180022 0.261197 0.621034
C382  C     C_R   0.979870 0.819978 0.738803 0.621034
C383  C     C_R   0.020130 0.319978 0.761197 0.621034
C384  C     C_R   0.979870 0.680022 0.238803 0.621034
C385  C     C_R   0.979870 0.180022 0.738803 0.621034
C386  C     C_R   0.020130 0.819978 0.261197 0.621034
C387  C     C_R   0.979870 0.319978 0.238803 0.621034
C388  C     C_R   0.020130 0.680022 0.761197 0.621034
C389  C     C_R   0.979870 0.819978 0.261197 0.621034
C390  C     C_R   0.020130 0.180022 0.738803 0.621034
C391  C     C_R   0.979870 0.680022 0.761197 0.621034
C392  C     C_R   0.020130 0.319978 0.238803 0.621034
C393  C     C_R   0.819978 0.738802 0.020130 0.621034
C394  C     C_R   0.180022 0.261197 0.979870 0.621034
C395  C     C_R   0.680022 0.238803 0.020130 0.621034
C396  C     C_R   0.319978 0.761197 0.979870 0.621034
C397  C     C_R   0.180022 0.261197 0.020130 0.621034
C398  C     C_R   0.819978 0.738802 0.979870 0.621034
C399  C     C_R   0.319978 0.761197 0.020130 0.621034
C400  C     C_R   0.680022 0.238803 0.979870 0.621034
C401  C     C_R   0.180022 0.738803 0.979870 0.621034
C402  C     C_R   0.819978 0.261197 0.020130 0.621034
C403  C     C_R   0.319978 0.238803 0.979870 0.621034
C404  C     C_R   0.680022 0.761198 0.020130 0.621034
C405  C     C_R   0.819978 0.261197 0.979870 0.621034
C406  C     C_R   0.180022 0.738803 0.020130 0.621034
C407  C     C_R   0.680022 0.761198 0.979870 0.621034
C408  C     C_R   0.319978 0.238803 0.020130 0.621034
C409  C     C_R   0.738803 0.520130 0.319978 0.621034
C410  C     C_R   0.261197 0.479870 0.680022 0.621034
C411  C     C_R   0.738803 0.520130 0.680022 0.621034
C412  C     C_R   0.261197 0.479870 0.319978 0.621034
C413  C     C_R   0.261197 0.520130 0.680022 0.621034
C414  C     C_R   0.738803 0.479870 0.319978 0.621034
C415  C     C_R   0.261197 0.520130 0.319978 0.621034
C416  C     C_R   0.738803 0.479870 0.680022 0.621034
C417  C     C_R   0.520130 0.319978 0.738803 0.621034
C418  C     C_R   0.479870 0.680022 0.261197 0.621034
C419  C     C_R   0.520130 0.680022 0.738803 0.621034
C420  C     C_R   0.479870 0.319978 0.261198 0.621033
C421  C     C_R   0.520130 0.680022 0.261197 0.621034
C422  C     C_R   0.479870 0.319978 0.738803 0.621034
C423  C     C_R   0.520130 0.319978 0.261198 0.621033
C424  C     C_R   0.479870 0.680022 0.738803 0.621034
C425  C     C_R   0.319978 0.738803 0.520130 0.621034
C426  C     C_R   0.680022 0.261197 0.479870 0.621034
C427  C     C_R   0.680022 0.738802 0.520130 0.621034
C428  C     C_R   0.319978 0.261198 0.479870 0.621035
C429  C     C_R   0.680022 0.261197 0.520130 0.621034
C430  C     C_R   0.319978 0.738803 0.479870 0.621034
C431  C     C_R   0.319978 0.261198 0.520130 0.621034
C432  C     C_R   0.680022 0.738802 0.479870 0.621034
N1    N     N_R   0.257580 0.603627 0.679256 0.261774
O105  O     O_R   0.288176 0.624928 0.673130 -0.280567
O106  O     O_R   0.228354 0.605693 0.655406 -0.236436
N2    N     N_R   0.742420 0.396373 0.320744 0.261773
O107  O     O_R   0.771646 0.394307 0.344594 -0.236436
O108  O     O_R   0.711824 0.375072 0.326870 -0.280566
N3    N     N_R   0.257580 0.603627 0.320744 0.261773
O109  O     O_R   0.228354 0.605693 0.344594 -0.236435
O110  O     O_R   0.288176 0.624928 0.326870 -0.280566
N4    N     N_R   0.742420 0.396373 0.679256 0.261773
O111  O     O_R   0.711824 0.375072 0.673130 -0.280567
O112  O     O_R   0.771646 0.394307 0.655406 -0.236436
N5    N     N_R   0.742420 0.603627 0.320744 0.261773
O113  O     O_R   0.711824 0.624928 0.326870 -0.280566
O114  O     O_R   0.771646 0.605693 0.344594 -0.236435
N6    N     N_R   0.257580 0.396373 0.679256 0.261773
O115  O     O_R   0.228354 0.394307 0.655406 -0.236435
O116  O     O_R   0.288176 0.375072 0.673130 -0.280566
N7    N     N_R   0.742420 0.603627 0.679256 0.261773
O117  O     O_R   0.771646 0.605693 0.655406 -0.236436
O118  O     O_R   0.711824 0.624928 0.673130 -0.280566
N8    N     N_R   0.257580 0.396373 0.320744 0.261773
O119  O     O_R   0.288176 0.375072 0.326870 -0.280565
O120  O     O_R   0.228354 0.394307 0.344594 -0.236436
N9    N     N_R   0.603627 0.679256 0.257580 0.261773
O121  O     O_R   0.624927 0.673130 0.288176 -0.280566
O122  O     O_R   0.605693 0.655406 0.228354 -0.236436
N10   N     N_R   0.396373 0.320744 0.742420 0.261773
O123  O     O_R   0.394307 0.344594 0.771646 -0.236435
O124  O     O_R   0.375072 0.326870 0.711824 -0.280566
N11   N     N_R   0.603627 0.320744 0.257580 0.261773
O125  O     O_R   0.605693 0.344595 0.228355 -0.236436
O126  O     O_R   0.624928 0.326870 0.288176 -0.280566
N12   N     N_R   0.396373 0.679256 0.742420 0.261773
O127  O     O_R   0.375072 0.673130 0.711824 -0.280566
O128  O     O_R   0.394307 0.655406 0.771646 -0.236435
N13   N     N_R   0.603627 0.320744 0.742420 0.261773
O129  O     O_R   0.624928 0.326870 0.711824 -0.280566
O130  O     O_R   0.605693 0.344594 0.771646 -0.236435
N14   N     N_R   0.396373 0.679256 0.257580 0.261774
O131  O     O_R   0.394307 0.655406 0.228354 -0.236436
O132  O     O_R   0.375072 0.673130 0.288175 -0.280567
N15   N     N_R   0.603627 0.679256 0.742420 0.261773
O133  O     O_R   0.605693 0.655406 0.771646 -0.236436
O134  O     O_R   0.624928 0.673130 0.711824 -0.280566
N16   N     N_R   0.396373 0.320744 0.257581 0.261773
O135  O     O_R   0.375073 0.326870 0.288177 -0.280564
O136  O     O_R   0.394306 0.344595 0.228356 -0.236436
N17   N     N_R   0.679256 0.257580 0.603627 0.261773
O137  O     O_R   0.673130 0.288176 0.624928 -0.280567
O138  O     O_R   0.655406 0.228354 0.605693 -0.236436
N18   N     N_R   0.320744 0.742420 0.396373 0.261773
O139  O     O_R   0.344594 0.771646 0.394307 -0.236436
O140  O     O_R   0.326870 0.711824 0.375072 -0.280567
N19   N     N_R   0.320744 0.257580 0.603627 0.261773
O141  O     O_R   0.344595 0.228355 0.605693 -0.236436
O142  O     O_R   0.326870 0.288176 0.624928 -0.280566
N20   N     N_R   0.679256 0.742419 0.396373 0.261773
O143  O     O_R   0.673130 0.711823 0.375072 -0.280566
O144  O     O_R   0.655405 0.771645 0.394307 -0.236436
N21   N     N_R   0.320744 0.742420 0.603627 0.261773
O145  O     O_R   0.326870 0.711824 0.624928 -0.280566
O146  O     O_R   0.344594 0.771646 0.605693 -0.236436
N22   N     N_R   0.679256 0.257580 0.396373 0.261773
O147  O     O_R   0.655406 0.228354 0.394307 -0.236435
O148  O     O_R   0.673130 0.288176 0.375072 -0.280566
N23   N     N_R   0.679256 0.742420 0.603627 0.261773
O149  O     O_R   0.655405 0.771645 0.605693 -0.236436
O150  O     O_R   0.673130 0.711824 0.624928 -0.280566
N24   N     N_R   0.320744 0.257581 0.396373 0.261772
O151  O     O_R   0.326870 0.288177 0.375072 -0.280565
O152  O     O_R   0.344595 0.228355 0.394307 -0.236436
N25   N     N_R   0.757580 0.103627 0.679256 0.261773
O153  O     O_R   0.788176 0.124928 0.673130 -0.280567
O154  O     O_R   0.728355 0.105693 0.655405 -0.236436
N26   N     N_R   0.242420 0.896373 0.320744 0.261773
O155  O     O_R   0.271646 0.894307 0.344594 -0.236436
O156  O     O_R   0.211824 0.875072 0.326870 -0.280567
N27   N     N_R   0.257580 0.103627 0.820744 0.261773
O157  O     O_R   0.228354 0.105693 0.844594 -0.236435
O158  O     O_R   0.288176 0.124928 0.826870 -0.280566
N28   N     N_R   0.742420 0.896373 0.179256 0.261773
O159  O     O_R   0.711824 0.875072 0.173130 -0.280566
O160  O     O_R   0.771645 0.894307 0.155406 -0.236436
N29   N     N_R   0.242420 0.103627 0.320744 0.261773
O161  O     O_R   0.211824 0.124928 0.326870 -0.280566
O162  O     O_R   0.271646 0.105693 0.344594 -0.236435
N30   N     N_R   0.757580 0.896373 0.679256 0.261773
O163  O     O_R   0.728354 0.894307 0.655405 -0.236436
O164  O     O_R   0.788176 0.875072 0.673130 -0.280566
N31   N     N_R   0.742420 0.103627 0.179256 0.261774
O165  O     O_R   0.771646 0.105693 0.155406 -0.236435
O166  O     O_R   0.711825 0.124928 0.173129 -0.280567
N32   N     N_R   0.257580 0.896373 0.820744 0.261773
O167  O     O_R   0.288176 0.875072 0.826870 -0.280566
O168  O     O_R   0.228354 0.894307 0.844594 -0.236435
N33   N     N_R   0.757581 0.896373 0.320744 0.261770
O169  O     O_R   0.788178 0.875075 0.326871 -0.280558
O170  O     O_R   0.728355 0.894304 0.344593 -0.236438
N34   N     N_R   0.242420 0.103627 0.679256 0.261773
O171  O     O_R   0.271646 0.105693 0.655406 -0.236435
O172  O     O_R   0.211824 0.124928 0.673130 -0.280566
N35   N     N_R   0.257580 0.896373 0.179256 0.261773
O173  O     O_R   0.228354 0.894307 0.155406 -0.236435
O174  O     O_R   0.288176 0.875072 0.173130 -0.280567
N36   N     N_R   0.742420 0.103627 0.820744 0.261773
O175  O     O_R   0.711824 0.124928 0.826870 -0.280567
O176  O     O_R   0.771645 0.105693 0.844594 -0.236435
N37   N     N_R   0.242420 0.896373 0.679256 0.261773
O177  O     O_R   0.211824 0.875072 0.673130 -0.280566
O178  O     O_R   0.271646 0.894307 0.655406 -0.236435
N38   N     N_R   0.757579 0.103627 0.320744 0.261773
O179  O     O_R   0.728353 0.105693 0.344594 -0.236436
O180  O     O_R   0.788175 0.124927 0.326871 -0.280567
N39   N     N_R   0.742420 0.896373 0.820744 0.261773
O181  O     O_R   0.771646 0.894307 0.844594 -0.236436
O182  O     O_R   0.711824 0.875072 0.826870 -0.280566
N40   N     N_R   0.257580 0.103627 0.179256 0.261773
O183  O     O_R   0.288176 0.124928 0.173130 -0.280566
O184  O     O_R   0.228354 0.105693 0.155406 -0.236435
N41   N     N_R   0.103627 0.679256 0.757580 0.261773
O185  O     O_R   0.124928 0.673130 0.788176 -0.280567
O186  O     O_R   0.105693 0.655405 0.728355 -0.236436
N42   N     N_R   0.896373 0.320744 0.242420 0.261773
O187  O     O_R   0.894307 0.344594 0.271646 -0.236435
O188  O     O_R   0.875072 0.326870 0.211824 -0.280566
N43   N     N_R   0.103627 0.820744 0.257580 0.261773
O189  O     O_R   0.105693 0.844594 0.228354 -0.236436
O190  O     O_R   0.124928 0.826870 0.288176 -0.280567
N44   N     N_R   0.896373 0.179256 0.742420 0.261773
O191  O     O_R   0.875072 0.173129 0.711824 -0.280566
O192  O     O_R   0.894307 0.155406 0.771646 -0.236435
N45   N     N_R   0.103627 0.320744 0.242420 0.261773
O193  O     O_R   0.124928 0.326870 0.211824 -0.280566
O194  O     O_R   0.105693 0.344594 0.271646 -0.236435
N46   N     N_R   0.896373 0.679256 0.757580 0.261773
O195  O     O_R   0.894307 0.655405 0.728355 -0.236436
O196  O     O_R   0.875072 0.673130 0.788176 -0.280566
N47   N     N_R   0.103627 0.179256 0.742420 0.261773
O197  O     O_R   0.105693 0.155406 0.771646 -0.236435
O198  O     O_R   0.124928 0.173129 0.711824 -0.280566
N48   N     N_R   0.896373 0.820744 0.257580 0.261773
O199  O     O_R   0.875072 0.826870 0.288176 -0.280566
O200  O     O_R   0.894307 0.844594 0.228354 -0.236435
N49   N     N_R   0.896373 0.320744 0.757580 0.261773
O201  O     O_R   0.875072 0.326870 0.788176 -0.280566
O202  O     O_R   0.894307 0.344594 0.728354 -0.236435
N50   N     N_R   0.103627 0.679256 0.242420 0.261773
O203  O     O_R   0.105693 0.655406 0.271646 -0.236436
O204  O     O_R   0.124928 0.673130 0.211824 -0.280567
N51   N     N_R   0.896373 0.179256 0.257580 0.261773
O205  O     O_R   0.894307 0.155406 0.228354 -0.236435
O206  O     O_R   0.875072 0.173129 0.288176 -0.280567
N52   N     N_R   0.103627 0.820744 0.742420 0.261773
O207  O     O_R   0.124928 0.826870 0.711824 -0.280566
O208  O     O_R   0.105693 0.844594 0.771645 -0.236436
N53   N     N_R   0.896373 0.679256 0.242420 0.261773
O209  O     O_R   0.875072 0.673130 0.211824 -0.280566
O210  O     O_R   0.894307 0.655406 0.271646 -0.236436
N54   N     N_R   0.103627 0.320744 0.757580 0.261773
O211  O     O_R   0.105693 0.344594 0.728354 -0.236435
O212  O     O_R   0.124928 0.326870 0.788176 -0.280566
N55   N     N_R   0.896373 0.820744 0.742420 0.261773
O213  O     O_R   0.894307 0.844594 0.771645 -0.236436
O214  O     O_R   0.875072 0.826870 0.711824 -0.280566
N56   N     N_R   0.103627 0.179256 0.257580 0.261773
O215  O     O_R   0.124928 0.173129 0.288176 -0.280566
O216  O     O_R   0.105693 0.155406 0.228354 -0.236435
N57   N     N_R   0.679256 0.757581 0.103627 0.261773
O217  O     O_R   0.673130 0.788177 0.124928 -0.280566
O218  O     O_R   0.655405 0.728355 0.105693 -0.236437
N58   N     N_R   0.320744 0.242420 0.896373 0.261773
O219  O     O_R   0.344594 0.271646 0.894307 -0.236436
O220  O     O_R   0.326870 0.211824 0.875072 -0.280567
N59   N     N_R   0.820744 0.257580 0.103627 0.261773
O221  O     O_R   0.844594 0.228354 0.105693 -0.236435
O222  O     O_R   0.826870 0.288176 0.124928 -0.280567
N60   N     N_R   0.179256 0.742420 0.896373 0.261773
O223  O     O_R   0.173130 0.711824 0.875072 -0.280566
O224  O     O_R   0.155406 0.771646 0.894307 -0.236436
N61   N     N_R   0.320744 0.242420 0.103627 0.261773
O225  O     O_R   0.326870 0.211824 0.124928 -0.280566
O226  O     O_R   0.344594 0.271646 0.105693 -0.236436
N62   N     N_R   0.679256 0.757580 0.896373 0.261773
O227  O     O_R   0.655405 0.728355 0.894307 -0.236436
O228  O     O_R   0.673130 0.788176 0.875072 -0.280567
N63   N     N_R   0.179256 0.742420 0.103627 0.261773
O229  O     O_R   0.155406 0.771646 0.105693 -0.236435
O230  O     O_R   0.173130 0.711824 0.124928 -0.280567
N64   N     N_R   0.820744 0.257580 0.896373 0.261773
O231  O     O_R   0.826870 0.288176 0.875072 -0.280567
O232  O     O_R   0.844594 0.228354 0.894307 -0.236435
N65   N     N_R   0.320744 0.757580 0.896373 0.261773
O233  O     O_R   0.326870 0.788176 0.875072 -0.280567
O234  O     O_R   0.344594 0.728354 0.894307 -0.236435
N66   N     N_R   0.679256 0.242420 0.103627 0.261773
O235  O     O_R   0.655406 0.271646 0.105693 -0.236436
O236  O     O_R   0.673130 0.211824 0.124928 -0.280566
N67   N     N_R   0.179256 0.257580 0.896373 0.261773
O237  O     O_R   0.155406 0.228354 0.894307 -0.236435
O238  O     O_R   0.173130 0.288176 0.875072 -0.280567
N68   N     N_R   0.820744 0.742419 0.103627 0.261773
O239  O     O_R   0.826870 0.711824 0.124928 -0.280566
O240  O     O_R   0.844595 0.771645 0.105693 -0.236436
N69   N     N_R   0.679256 0.242420 0.896373 0.261773
O241  O     O_R   0.673130 0.211824 0.875072 -0.280567
O242  O     O_R   0.655406 0.271646 0.894307 -0.236436
N70   N     N_R   0.320744 0.757580 0.103627 0.261773
O243  O     O_R   0.344594 0.728354 0.105693 -0.236436
O244  O     O_R   0.326870 0.788176 0.124928 -0.280567
N71   N     N_R   0.820744 0.742420 0.896373 0.261773
O245  O     O_R   0.844595 0.771645 0.894307 -0.236436
O246  O     O_R   0.826870 0.711824 0.875072 -0.280566
N72   N     N_R   0.179256 0.257580 0.103627 0.261773
O247  O     O_R   0.173130 0.288176 0.124928 -0.280567
O248  O     O_R   0.155406 0.228354 0.105693 -0.236435
N73   N     N_R   0.757580 0.603627 0.179256 0.261773
O249  O     O_R   0.788176 0.624927 0.173130 -0.280566
O250  O     O_R   0.728354 0.605693 0.155406 -0.236436
N74   N     N_R   0.242420 0.396373 0.820744 0.261774
O251  O     O_R   0.271646 0.394307 0.844594 -0.236436
O252  O     O_R   0.211824 0.375072 0.826870 -0.280567
N75   N     N_R   0.757580 0.603627 0.820744 0.261773
O253  O     O_R   0.728354 0.605693 0.844594 -0.236436
O254  O     O_R   0.788176 0.624928 0.826870 -0.280566
N76   N     N_R   0.242420 0.396373 0.179256 0.261773
O255  O     O_R   0.211824 0.375072 0.173129 -0.280566
O256  O     O_R   0.271646 0.394307 0.155406 -0.236436
N77   N     N_R   0.242420 0.603627 0.820744 0.261773
O257  O     O_R   0.211824 0.624928 0.826870 -0.280566
O258  O     O_R   0.271646 0.605693 0.844594 -0.236435
N78   N     N_R   0.757580 0.396373 0.179256 0.261773
O259  O     O_R   0.728354 0.394307 0.155406 -0.236436
O260  O     O_R   0.788176 0.375072 0.173130 -0.280567
N79   N     N_R   0.242420 0.603627 0.179256 0.261773
O261  O     O_R   0.271646 0.605693 0.155406 -0.236435
O262  O     O_R   0.211824 0.624928 0.173129 -0.280566
N80   N     N_R   0.757580 0.396373 0.820744 0.261773
O263  O     O_R   0.788176 0.375072 0.826870 -0.280566
O264  O     O_R   0.728354 0.394307 0.844594 -0.236436
N81   N     N_R   0.603627 0.179256 0.757580 0.261773
O265  O     O_R   0.624928 0.173129 0.788176 -0.280566
O266  O     O_R   0.605693 0.155406 0.728354 -0.236435
N82   N     N_R   0.396373 0.820744 0.242420 0.261774
O267  O     O_R   0.394307 0.844594 0.271646 -0.236436
O268  O     O_R   0.375072 0.826870 0.211824 -0.280567
N83   N     N_R   0.603627 0.820744 0.757580 0.261773
O269  O     O_R   0.605693 0.844594 0.728354 -0.236436
O270  O     O_R   0.624928 0.826870 0.788176 -0.280566
N84   N     N_R   0.396373 0.179256 0.242419 0.261772
O271  O     O_R   0.375072 0.173130 0.211823 -0.280565
O272  O     O_R   0.394307 0.155405 0.271644 -0.236436
N85   N     N_R   0.603627 0.820744 0.242420 0.261774
O273  O     O_R   0.624928 0.826870 0.211824 -0.280566
O274  O     O_R   0.605693 0.844594 0.271646 -0.236436
N86   N     N_R   0.396373 0.179256 0.757580 0.261773
O275  O     O_R   0.394307 0.155406 0.728354 -0.236435
O276  O     O_R   0.375072 0.173129 0.788176 -0.280566
N87   N     N_R   0.603627 0.179256 0.242420 0.261773
O277  O     O_R   0.605693 0.155405 0.271645 -0.236436
O278  O     O_R   0.624928 0.173130 0.211824 -0.280567
N88   N     N_R   0.396373 0.820744 0.757580 0.261773
O279  O     O_R   0.375072 0.826870 0.788176 -0.280566
O280  O     O_R   0.394307 0.844594 0.728354 -0.236435
N89   N     N_R   0.179256 0.757580 0.603627 0.261773
O281  O     O_R   0.173130 0.788176 0.624928 -0.280566
O282  O     O_R   0.155406 0.728354 0.605693 -0.236436
N90   N     N_R   0.820744 0.242420 0.396373 0.261773
O283  O     O_R   0.844594 0.271646 0.394307 -0.236436
O284  O     O_R   0.826870 0.211824 0.375072 -0.280567
N91   N     N_R   0.820744 0.757580 0.603627 0.261773
O285  O     O_R   0.844595 0.728355 0.605693 -0.236436
O286  O     O_R   0.826870 0.788176 0.624928 -0.280566
N92   N     N_R   0.179256 0.242419 0.396373 0.261773
O287  O     O_R   0.173130 0.211823 0.375072 -0.280566
O288  O     O_R   0.155405 0.271645 0.394307 -0.236436
N93   N     N_R   0.820744 0.242420 0.603627 0.261773
O289  O     O_R   0.826870 0.211824 0.624928 -0.280566
O290  O     O_R   0.844594 0.271646 0.605693 -0.236436
N94   N     N_R   0.179256 0.757580 0.396373 0.261773
O291  O     O_R   0.155406 0.728354 0.394307 -0.236436
O292  O     O_R   0.173130 0.788176 0.375072 -0.280567
N95   N     N_R   0.179256 0.242420 0.603627 0.261773
O293  O     O_R   0.155405 0.271645 0.605693 -0.236436
O294  O     O_R   0.173130 0.211824 0.624928 -0.280567
N96   N     N_R   0.820744 0.757580 0.396373 0.261773
O295  O     O_R   0.826870 0.788177 0.375072 -0.280567
O296  O     O_R   0.844595 0.728355 0.394307 -0.236436
F1    F     F_    0.231463 0.538144 0.854268 -0.505517
F2    F     F_    0.768537 0.461856 0.145732 -0.505517
F3    F     F_    0.231463 0.538144 0.145732 -0.505517
F4    F     F_    0.768537 0.461856 0.854268 -0.505517
F5    F     F_    0.768537 0.538144 0.145732 -0.505517
F6    F     F_    0.231463 0.461856 0.854268 -0.505517
F7    F     F_    0.768537 0.538144 0.854268 -0.505517
F8    F     F_    0.231463 0.461856 0.145732 -0.505517
F9    F     F_    0.538144 0.854268 0.231463 -0.505518
F10   F     F_    0.461856 0.145732 0.768537 -0.505517
F11   F     F_    0.538144 0.145732 0.231462 -0.505517
F12   F     F_    0.461856 0.854268 0.768537 -0.505517
F13   F     F_    0.538144 0.145732 0.768537 -0.505517
F14   F     F_    0.461856 0.854268 0.231463 -0.505518
F15   F     F_    0.538144 0.854268 0.768537 -0.505517
F16   F     F_    0.461856 0.145732 0.231462 -0.505517
F17   F     F_    0.854268 0.231463 0.538144 -0.505517
F18   F     F_    0.145732 0.768537 0.461856 -0.505517
F19   F     F_    0.145732 0.231462 0.538144 -0.505517
F20   F     F_    0.854267 0.768537 0.461856 -0.505517
F21   F     F_    0.145732 0.768537 0.538144 -0.505517
F22   F     F_    0.854268 0.231463 0.461856 -0.505517
F23   F     F_    0.854267 0.768537 0.538144 -0.505517
F24   F     F_    0.145732 0.231462 0.461856 -0.505517
F25   F     F_    0.731463 0.038144 0.854268 -0.505517
F26   F     F_    0.268537 0.961856 0.145732 -0.505517
F27   F     F_    0.231463 0.038144 0.645732 -0.505517
F28   F     F_    0.768535 0.961855 0.354268 -0.505518
F29   F     F_    0.268537 0.038144 0.145732 -0.505517
F30   F     F_    0.731463 0.961856 0.854268 -0.505517
F31   F     F_    0.768535 0.038144 0.354268 -0.505518
F32   F     F_    0.231463 0.961856 0.645732 -0.505517
F33   F     F_    0.731463 0.961856 0.145732 -0.505517
F34   F     F_    0.268537 0.038144 0.854268 -0.505517
F35   F     F_    0.231463 0.961856 0.354268 -0.505517
F36   F     F_    0.768537 0.038144 0.645732 -0.505517
F37   F     F_    0.268537 0.961856 0.854268 -0.505517
F38   F     F_    0.731464 0.038144 0.145732 -0.505517
F39   F     F_    0.768537 0.961856 0.645732 -0.505517
F40   F     F_    0.231463 0.038144 0.354268 -0.505517
F41   F     F_    0.038144 0.854268 0.731463 -0.505517
F42   F     F_    0.961856 0.145732 0.268537 -0.505517
F43   F     F_    0.038144 0.645732 0.231463 -0.505517
F44   F     F_    0.961856 0.354268 0.768537 -0.505517
F45   F     F_    0.038144 0.145732 0.268537 -0.505517
F46   F     F_    0.961856 0.854268 0.731463 -0.505517
F47   F     F_    0.038144 0.354268 0.768537 -0.505517
F48   F     F_    0.961856 0.645732 0.231463 -0.505517
F49   F     F_    0.961856 0.145732 0.731463 -0.505517
F50   F     F_    0.038144 0.854268 0.268537 -0.505517
F51   F     F_    0.961856 0.354268 0.231463 -0.505517
F52   F     F_    0.038144 0.645732 0.768537 -0.505517
F53   F     F_    0.961856 0.854268 0.268537 -0.505517
F54   F     F_    0.038144 0.145732 0.731463 -0.505517
F55   F     F_    0.961856 0.645732 0.768537 -0.505517
F56   F     F_    0.038144 0.354268 0.231463 -0.505517
F57   F     F_    0.854267 0.731462 0.038144 -0.505517
F58   F     F_    0.145732 0.268537 0.961856 -0.505517
F59   F     F_    0.645732 0.231463 0.038144 -0.505517
F60   F     F_    0.354268 0.768537 0.961856 -0.505517
F61   F     F_    0.145732 0.268537 0.038144 -0.505517
F62   F     F_    0.854267 0.731462 0.961856 -0.505517
F63   F     F_    0.354268 0.768537 0.038144 -0.505517
F64   F     F_    0.645732 0.231463 0.961856 -0.505517
F65   F     F_    0.145732 0.731463 0.961856 -0.505517
F66   F     F_    0.854268 0.268537 0.038144 -0.505517
F67   F     F_    0.354268 0.231463 0.961856 -0.505517
F68   F     F_    0.645733 0.768538 0.038144 -0.505517
F69   F     F_    0.854268 0.268537 0.961856 -0.505517
F70   F     F_    0.145732 0.731463 0.038144 -0.505517
F71   F     F_    0.645733 0.768538 0.961856 -0.505517
F72   F     F_    0.354268 0.231463 0.038144 -0.505517
F73   F     F_    0.731463 0.538144 0.354268 -0.505517
F74   F     F_    0.268537 0.461856 0.645732 -0.505517
F75   F     F_    0.731463 0.538144 0.645732 -0.505517
F76   F     F_    0.268537 0.461856 0.354268 -0.505517
F77   F     F_    0.268537 0.538144 0.645732 -0.505517
F78   F     F_    0.731463 0.461856 0.354268 -0.505517
F79   F     F_    0.268537 0.538144 0.354268 -0.505517
F80   F     F_    0.731463 0.461856 0.645732 -0.505517
F81   F     F_    0.538144 0.354268 0.731463 -0.505517
F82   F     F_    0.461856 0.645732 0.268536 -0.505517
F83   F     F_    0.538144 0.645732 0.731463 -0.505517
F84   F     F_    0.461856 0.354268 0.268537 -0.505516
F85   F     F_    0.538144 0.645732 0.268536 -0.505517
F86   F     F_    0.461856 0.354268 0.731463 -0.505517
F87   F     F_    0.538144 0.354268 0.268537 -0.505516
F88   F     F_    0.461856 0.645732 0.731463 -0.505517
F89   F     F_    0.354268 0.731463 0.538144 -0.505517
F90   F     F_    0.645732 0.268537 0.461856 -0.505517
F91   F     F_    0.645732 0.731463 0.538144 -0.505517
F92   F     F_    0.354267 0.268538 0.461856 -0.505517
F93   F     F_    0.645732 0.268537 0.538144 -0.505517
F94   F     F_    0.354268 0.731463 0.461856 -0.505517
F95   F     F_    0.354267 0.268538 0.538144 -0.505517
F96   F     F_    0.645732 0.731463 0.461856 -0.505517

loop_
_geom_bond_atom_site_label_1
_geom_bond_atom_site_label_2
_geom_bond_distance
_ccdc_geom_bond_type
C118  C191  1.403983 A    
C143  N95   1.435652 S    
Zn23  O26   1.943134 S    
C126  N78   1.435649 S    
N11   O125  1.301089 A    
N67   O238  1.301143 A    
C396  F60   1.357720 S    
Zn25  O61   1.943134 S    
N24   O151  1.301141 A    
C421  F85   1.357719 S    
Zn17  O99   1.943134 S    
C410  C413  1.386529 A    
C64   C160  1.403983 A    
Zn27  O63   1.943134 S    
N79   O261  1.301090 A    
C98   C235  1.409156 A    
C221  C365  1.408704 A    
C132  N84   1.435648 S    
C74   C170  1.403983 A    
Zn4   O4    1.952984 S    
O27   C17   1.281770 A    
O80   C48   1.281772 A    
C203  C347  1.408702 A    
O52   C9    1.281766 A    
C56   C268  1.409156 A    
C263  C407  1.408703 A    
N39   O182  1.301143 A    
N76   O255  1.301144 A    
C201  C345  1.408706 A    
C271  C415  1.408704 A    
C66   N18   1.435649 S    
C420  F84   1.357722 S    
N31   O166  1.301141 A    
Zn1   O24   1.943134 S    
N36   O175  1.301143 A    
C237  C325  1.419903 A    
Zn2   O23   1.943134 S    
N21   O146  1.301090 A    
C231  C318  1.419900 A    
C69   C281  1.409156 A    
N80   O263  1.301146 A    
Zn3   O22   1.943134 S    
C267  C295  1.419903 A    
N23   O150  1.301142 A    
C95   C183  1.403985 A    
C362  C365  1.386529 A    
C140  C216  1.409159 A    
O43   C14   1.281768 A    
C86   N38   1.435652 S    
O48   C1    1.281770 A    
C96   C184  1.403986 A    
O15   C7    1.281770 A    
C337  C342  1.386529 A    
N18   O139  1.301090 A    
C210  C354  1.408704 A    
C65   C285  1.409156 A    
C406  F70   1.357720 S    
N7    O117  1.301090 A    
C399  F63   1.357720 S    
C77   C173  1.403983 A    
C94   C182  1.403983 A    
C104  C181  1.403986 A    
O92   C32   1.281766 A    
C139  N91   1.435650 S    
O26   C7    1.281766 A    
C61   C273  1.409156 A    
Zn28  O74   1.943134 S    
C240  C384  1.408704 A    
N84   O272  1.301091 A    
O64   C32   1.281770 A    
C74   N26   1.435649 S    
N5    O114  1.301090 A    
Zn32  O80   1.943134 S    
C65   N17   1.435649 S    
C428  C431  1.386529 A    
C77   C232  1.409156 A    
O75   C43   1.281768 A    
Zn2   O2    1.952982 S    
N38   O180  1.301142 A    
C347  C352  1.386529 A    
O97   C47   1.281770 A    
C105  C260  1.409159 A    
C118  N70   1.435649 S    
C369  C374  1.386529 A    
C79   C230  1.409156 A    
C60   C280  1.409156 A    
C106  C259  1.409156 A    
C248  C392  1.408704 A    
O62   C30   1.281768 A    
N22   O147  1.301090 A    
C110  N62   1.435650 S    
C79   N31   1.435652 S    
O36   C22   1.281766 A    
C138  C166  1.403983 A    
C261  C336  1.419903 A    
C261  C405  1.408704 A    
N58   O219  1.301090 A    
N42   O188  1.301144 A    
C118  C255  1.409156 A    
C5    C155  1.458770 S    
N36   O176  1.301090 A    
N93   O290  1.301088 A    
C115  C250  1.409156 A    
C415  F79   1.357720 S    
C259  C330  1.419900 A    
C61   C157  1.403982 A    
N65   O234  1.301090 A    
Zn30  O77   1.943134 S    
C281  C425  1.408704 A    
C377  C382  1.386529 A    
C206  C350  1.408706 A    
C199  C295  1.419899 A    
Zn3   O87   1.943134 S    
C93   C248  1.409156 A    
N10   O123  1.301093 A    
O103  C41   1.281768 A    
C374  F38   1.357719 S    
C379  C384  1.386529 A    
C57   C153  1.403986 A    
C51   C147  1.403985 A    
N30   O163  1.301092 A    
C127  C195  1.409156 A    
N73   O249  1.301144 A    
O94   C30   1.281768 A    
N53   O209  1.301143 A    
C56   N8    1.435649 S    
C244  C388  1.408705 A    
C423  F87   1.357722 S    
C245  C389  1.408704 A    
C288  C432  1.408705 A    
C418  C421  1.386529 A    
C89   C177  1.403983 A    
C385  C390  1.386529 A    
C371  F35   1.357720 S    
N77   O257  1.301144 A    
C340  C343  1.386529 A    
C387  C392  1.386529 A    
N12   O128  1.301090 A    
N95   O293  1.301091 A    
C238  C382  1.408704 A    
C388  C391  1.386529 A    
C287  C307  1.419904 A    
Zn21  O47   1.943134 S    
C23   C148  1.458770 S    
C193  C337  1.408704 A    
N59   O222  1.301143 A    
Zn9   O45   1.943134 S    
C31   C185  1.458770 S    
Zn21  O30   1.943134 S    
C64   N16   1.435651 S    
C262  C406  1.408704 A    
C263  C334  1.419904 A    
C111  C191  1.403986 A    
N15   O134  1.301143 A    
C265  C293  1.419899 A    
Zn28  O1    1.952984 S    
C131  N83   1.435650 S    
C67   C163  1.403987 A    
C144  C164  1.403982 A    
C391  F55   1.357721 S    
C352  F16   1.357719 S    
C248  C325  1.419899 A    
N44   O192  1.301090 A    
O101  C43   1.281768 A    
C109  C189  1.403986 A    
N82   O267  1.301088 A    
N66   O236  1.301143 A    
C315  C320  1.417305 A    
C323  C328  1.417305 A    
C273  C417  1.408704 A    
C401  C406  1.386529 A    
N27   O158  1.301144 A    
C111  C262  1.409156 A    
C355  F19   1.357719 S    
C197  C293  1.419903 A    
O49   C22   1.281770 A    
C106  C186  1.403983 A    
C243  C322  1.419899 A    
Zn5   O81   1.943134 S    
C403  C408  1.386529 A    
N8    O119  1.301144 A    
C265  C409  1.408704 A    
C137  N89   1.435649 S    
C276  C420  1.408702 A    
C26   C181  1.458770 S    
C105  C185  1.403985 A    
C29   C179  1.458770 S    
C409  C414  1.386529 A    
C241  C324  1.419903 A    
O73   C41   1.281768 A    
N94   O291  1.301087 A    
C360  F24   1.357720 S    
C100  C233  1.409156 A    
C139  C167  1.403983 A    
C349  F13   1.357719 S    
C422  F86   1.357719 S    
C115  C186  1.403986 A    
O23   C15   1.281768 A    
Zn12  O96   1.943134 S    
N78   O259  1.301090 A    
C389  F53   1.357720 S    
C346  C349  1.386529 A    
N17   O137  1.301143 A    
C116  N68   1.435651 S    
C47   C176  1.458770 S    
C121  N73   1.435649 S    
C329  C334  1.417305 A    
C286  C430  1.408704 A    
Zn28  O64   1.943134 S    
C411  C416  1.386529 A    
Zn16  O92   1.943134 S    
C372  F36   1.357721 S    
C235  C379  1.408704 A    
C77   N29   1.435649 S    
N71   O246  1.301141 A    
C142  C162  1.403986 A    
C196  C340  1.408704 A    
C207  C351  1.408704 A    
C274  C302  1.419902 A    
C229  C373  1.408704 A    
C85   C176  1.403985 A    
N86   O276  1.301144 A    
C76   C225  1.409159 A    
N96   O296  1.301089 A    
N75   O254  1.301143 A    
C353  C358  1.386529 A    
C339  F3    1.357719 S    
C1    C154  1.458770 S    
Zn9   O93   1.943134 S    
C194  C290  1.419903 A    
C208  C304  1.419901 A    
N28   O159  1.301141 A    
Zn8   O84   1.943134 S    
C50   N2    1.435649 S    
C392  F56   1.357719 S    
C243  C387  1.408704 A    
Zn9   O16   1.943134 S    
N26   O156  1.301143 A    
N41   O185  1.301143 A    
C127  C147  1.403983 A    
Zn13  O53   1.943134 S    
Zn10  O15   1.943134 S    
C206  C302  1.419899 A    
Zn7   O7    1.952982 S    
C131  C159  1.403983 A    
C229  C320  1.419900 A    
C405  F69   1.357720 S    
Zn8   O8    1.952984 S    
C228  C313  1.419900 A    
C96   N48   1.435649 S    
Zn21  O103  1.943134 S    
Zn13  O12   1.943134 S    
C347  F11   1.357719 S    
C264  C333  1.419902 A    
N63   O229  1.301090 A    
N78   O260  1.301143 A    
Zn14  O11   1.943134 S    
C256  C336  1.419899 A    
N4    O112  1.301090 A    
C74   C227  1.409156 A    
C11   C165  1.458770 S    
C19   C145  1.458770 S    
N13   O129  1.301144 A    
C53   C149  1.403983 A    
O68   C36   1.281766 A    
O69   C37   1.281768 A    
C252  C332  1.419900 A    
C55   C151  1.403986 A    
C88   C173  1.403986 A    
C78   C231  1.409156 A    
Zn10  O46   1.943134 S    
C305  C310  1.417305 A    
O72   C40   1.281770 A    
C267  C411  1.408704 A    
C376  F40   1.357720 S    
O16   C8    1.281770 A    
O58   C26   1.281766 A    
C375  F39   1.357721 S    
N41   O186  1.301092 A    
N2    O108  1.301143 A    
N34   O171  1.301090 A    
C362  F26   1.357720 S    
C247  C326  1.419903 A    
N54   O212  1.301144 A    
C262  C335  1.419902 A    
C2    C153  1.458770 S    
C361  F25   1.357721 S    
C222  C318  1.419903 A    
C83   C218  1.409156 A    
C79   C175  1.403982 A    
N69   O241  1.301143 A    
Zn12  O32   1.943134 S    
N8    O120  1.301090 A    
C402  F66   1.357720 S    
C314  C317  1.417305 A    
C200  C344  1.408704 A    
C114  N66   1.435649 S    
C297  C302  1.417305 A    
C268  C412  1.408704 A    
C219  C315  1.419900 A    
C258  C331  1.419900 A    
O96   C28   1.281770 A    
C143  C163  1.403984 A    
Zn19  O34   1.943134 S    
C57   C277  1.409156 A    
Zn23  O51   1.943134 S    
Zn31  O66   1.943134 S    
C217  C313  1.419903 A    
C76   C172  1.403984 A    
C16   C163  1.458770 S    
Zn6   O82   1.943134 S    
O83   C39   1.281766 A    
C63   N15   1.435650 S    
C214  C358  1.408704 A    
C12   C166  1.458770 S    
C101  C240  1.409156 A    
N70   O243  1.301090 A    
N89   O282  1.301090 A    
C235  C323  1.419899 A    
C254  C398  1.408703 A    
C70   N22   1.435649 S    
C417  C422  1.386529 A    
Zn6   O6    1.952986 S    
C233  C321  1.419903 A    
C250  C394  1.408704 A    
C419  C424  1.386529 A    
C113  C188  1.403986 A    
C61   N13   1.435650 S    
C236  C380  1.408704 A    
C300  C303  1.417305 A    
C75   C171  1.403985 A    
C99   N51   1.435650 S    
C237  C381  1.408704 A    
Zn18  O37   1.943134 S    
C285  C429  1.408704 A    
O20   C12   1.281766 A    
C63   C159  1.403985 A    
N61   O225  1.301143 A    
O21   C13   1.281770 A    
N49   O202  1.301090 A    
C202  C298  1.419902 A    
N5    O113  1.301143 A    
C87   N39   1.435650 S    
C380  C383  1.386529 A    
O79   C47   1.281766 A    
C236  C324  1.419899 A    
N22   O148  1.301143 A    
C33   C178  1.458770 S    
C70   C282  1.409156 A    
C125  N77   1.435649 S    
N85   O274  1.301088 A    
C6    C156  1.458770 S    
C104  C237  1.409156 A    
C109  N61   1.435649 S    
C255  C335  1.419900 A    
N87   O278  1.301141 A    
C338  F2    1.357720 S    
C85   N37   1.435649 S    
C108  C188  1.403983 A    
C66   C286  1.409156 A    
Zn14  O54   1.943134 S    
C103  C182  1.403986 A    
O35   C21   1.281766 A    
C404  F68   1.357719 S    
Zn29  O57   1.943134 S    
C277  C297  1.419902 A    
C210  C306  1.419902 A    
C62   C274  1.409156 A    
C93   C181  1.403982 A    
C120  N72   1.435649 S    
N9    O122  1.301090 A    
C285  C305  1.419900 A    
C96   C245  1.409156 A    
C82   N34   1.435649 S    
N46   O196  1.301143 A    
C242  C323  1.419903 A    
C132  C160  1.403982 A    
O93   C29   1.281770 A    
C390  F54   1.357719 S    
C133  C153  1.403982 A    
C51   C271  1.409156 A    
Zn13  O89   1.943134 S    
C62   N14   1.435652 S    
O61   C29   1.281766 A    
C396  C399  1.386529 A    
Zn3   O3    1.952982 S    
Zn15  O35   1.943134 S    
N14   O131  1.301088 A    
Zn4   O28   1.943134 S    
N62   O228  1.301141 A    
C393  F57   1.357720 S    
C35   C189  1.458770 S    
C223  C319  1.419904 A    
C120  C253  1.409156 A    
C381  F45   1.357719 S    
C234  C378  1.408704 A    
C99   C178  1.403985 A    
C124  C152  1.403985 A    
C95   N47   1.435650 S    
C379  F43   1.357720 S    
C197  C341  1.408704 A    
N95   O294  1.301141 A    
N50   O204  1.301143 A    
C84   C217  1.409156 A    
C203  C299  1.419901 A    
Zn31  O59   1.943134 S    
C62   C158  1.403986 A    
C195  C291  1.419903 A    
C138  C214  1.409156 A    
C275  C419  1.408704 A    
N32   O168  1.301093 A    
C250  C330  1.419902 A    
C239  C327  1.419899 A    
C135  C155  1.403984 A    
C125  C145  1.403985 A    
C81   C220  1.409159 A    
C249  C329  1.419901 A    
C204  C348  1.408704 A    
C83   C170  1.403986 A    
O56   C5    1.281770 A    
C282  C310  1.419902 A    
C129  N81   1.435650 S    
C58   C154  1.403983 A    
C350  F14   1.357716 S    
C100  N52   1.435652 S    
O77   C45   1.281766 A    
Zn19  O97   1.943134 S    
C387  F51   1.357719 S    
N64   O231  1.301143 A    
O85   C37   1.281768 A    
C418  F82   1.357719 S    
O25   C8    1.281766 A    
C208  C352  1.408703 A    
C230  C319  1.419901 A    
C88   N40   1.435649 S    
C127  N79   1.435649 S    
Zn7   O18   1.943134 S    
N74   O252  1.301143 A    
Zn11  O14   1.943134 S    
O63   C31   1.281770 A    
C116  C249  1.409159 A    
N48   O200  1.301090 A    
C430  F94   1.357720 S    
Zn25  O72   1.943134 S    
C64   C276  1.409159 A    
C397  F61   1.357720 S    
C432  F96   1.357718 S    
C245  C328  1.419903 A    
N52   O208  1.301089 A    
O90   C26   1.281770 A    
C364  C367  1.386533 A    
C244  C321  1.419900 A    
C253  C333  1.419900 A    
C226  C370  1.408704 A    
Zn19  O55   1.943134 S    
C73   C169  1.403983 A    
C348  F12   1.357720 S    
N21   O145  1.301143 A    
Zn22  O29   1.943134 S    
C20   C146  1.458770 S    
Zn20  O5    1.952984 S    
C371  C376  1.386529 A    
C270  C290  1.419899 A    
C417  F81   1.357719 S    
C282  C426  1.408704 A    
O37   C4    1.281770 A    
C266  C294  1.419902 A    
N73   O250  1.301090 A    
N18   O140  1.301143 A    
C86   C223  1.409156 A    
C112  C192  1.403986 A    
C69   N21   1.435649 S    
O53   C18   1.281766 A    
C136  N88   1.435650 S    
C403  F67   1.357720 S    
N56   O215  1.301144 A    
O28   C18   1.281770 A    
C218  C362  1.408704 A    
C54   C266  1.409156 A    
C54   N6    1.435649 S    
N3    O109  1.301090 A    
O66   C34   1.281768 A    
C100  C177  1.403986 A    
N87   O277  1.301089 A    
O86   C38   1.281768 A    
O12   C4    1.281766 A    
C363  C368  1.386529 A    
C141  N93   1.435649 S    
N59   O221  1.301090 A    
C198  C294  1.419900 A    
Zn31  O79   1.943134 S    
C413  F77   1.357719 S    
Zn1   O85   1.943134 S    
C256  C400  1.408704 A    
O102  C44   1.281766 A    
Zn10  O94   1.943134 S    
C73   N25   1.435649 S    
C49   C145  1.403983 A    
Zn16  O9    1.943134 S    
C278  C422  1.408704 A    
C348  C351  1.386529 A    
C411  F75   1.357720 S    
N25   O154  1.301089 A    
C102  C239  1.409156 A    
Zn26  O62   1.943134 S    
C409  F73   1.357720 S    
C364  F28   1.357717 S    
Zn14  O90   1.943134 S    
C345  C350  1.386529 A    
C45   C173  1.458770 S    
Zn4   O21   1.943134 S    
O10   C2    1.281768 A    
C394  C397  1.386529 A    
C121  C197  1.409156 A    
C355  C360  1.386529 A    
C52   N4    1.435651 S    
C123  N75   1.435649 S    
C222  C366  1.408704 A    
C114  C187  1.403986 A    
Zn30  O58   1.943134 S    
C123  C199  1.409156 A    
C346  F10   1.357719 S    
C56   C152  1.403983 A    
N40   O184  1.301090 A    
N58   O220  1.301143 A    
N20   O143  1.301144 A    
Zn2   O86   1.943134 S    
C138  N90   1.435649 S    
N27   O157  1.301090 A    
O14   C6    1.281768 A    
N93   O289  1.301146 A    
C112  N64   1.435649 S    
C373  F37   1.357719 S    
C202  C346  1.408704 A    
C242  C386  1.408704 A    
N37   O177  1.301144 A    
N60   O224  1.301090 A    
C228  C372  1.408704 A    
C308  C311  1.417305 A    
C255  C399  1.408704 A    
C97   C180  1.403982 A    
C55   C267  1.409156 A    
C272  C416  1.408704 A    
C87   C222  1.409156 A    
N10   O124  1.301144 A    
C98   C179  1.403986 A    
C124  C200  1.409156 A    
C429  F93   1.357720 S    
C9    C158  1.458770 S    
N29   O162  1.301092 A    
Zn25  O8    1.952984 S    
C207  C303  1.419900 A    
C272  C292  1.419903 A    
Zn26  O7    1.952982 S    
N1    O106  1.301090 A    
C343  F7    1.357720 S    
Zn5   O5    1.952980 S    
C65   C161  1.403983 A    
C211  C355  1.408702 A    
C136  C204  1.409156 A    
C271  C291  1.419899 A    
C107  N59   1.435649 S    
C117  C256  1.409156 A    
C90   N42   1.435650 S    
C22   C150  1.458770 S    
N49   O201  1.301141 A    
C81   C172  1.403981 A    
C209  C353  1.408704 A    
Zn12  O5    1.952984 S    
C68   C164  1.403985 A    
C107  C187  1.403983 A    
C280  C300  1.419903 A    
Zn24  O102  1.943134 S    
Zn32  O5    1.952984 S    
O100  C46   1.281770 A    
C339  C344  1.386529 A    
C60   C156  1.403986 A    
C71   N23   1.435650 S    
Zn28  O69   1.943134 S    
C239  C383  1.408704 A    
C51   N3    1.435649 S    
N31   O165  1.301091 A    
N90   O283  1.301090 A    
Zn18  O100  1.943134 S    
Zn17  O43   1.943134 S    
N24   O152  1.301089 A    
N75   O253  1.301090 A    
N35   O174  1.301143 A    
C87   C174  1.403986 A    
C59   N11   1.435650 S    
C48   C175  1.458766 S    
C357  F21   1.357720 S    
N33   O170  1.301093 A    
C341  F5    1.357720 S    
C60   N12   1.435650 S    
Zn15  O2    1.952986 S    
C49   N1    1.435652 S    
C107  C258  1.409156 A    
O18   C10   1.281770 A    
C370  C373  1.386529 A    
N53   O210  1.301090 A    
C331  C336  1.417305 A    
C281  C309  1.419903 A    
C28   C187  1.458770 S    
C257  C401  1.408704 A    
O38   C3    1.281770 A    
C90   C178  1.403983 A    
C247  C391  1.408705 A    
N16   O136  1.301089 A    
O13   C5    1.281766 A    
C264  C408  1.408704 A    
C224  C320  1.419902 A    
O59   C27   1.281766 A    
C130  C206  1.409156 A    
C115  N67   1.435649 S    
C233  C377  1.408704 A    
C260  C404  1.408702 A    
C316  C319  1.417305 A    
C134  N86   1.435650 S    
O57   C25   1.281766 A    
O24   C16   1.281770 A    
C378  F42   1.357719 S    
N82   O268  1.301143 A    
C260  C329  1.419904 A    
Zn6   O42   1.943134 S    
C93   N45   1.435650 S    
C220  C316  1.419902 A    
C231  C375  1.408704 A    
N94   O292  1.301143 A    
C416  F80   1.357720 S    
C426  C429  1.386529 A    
Zn8   O40   1.943134 S    
O30   C15   1.281768 A    
C132  C208  1.409159 A    
C257  C332  1.419902 A    
Zn1   O1    1.952984 S    
N51   O205  1.301093 A    
C270  C414  1.408704 A    
Zn20  O33   1.943134 S    
C58   C278  1.409156 A    
C205  C349  1.408704 A    
N3    O110  1.301144 A    
O22   C14   1.281768 A    
C92   C241  1.409156 A    
N92   O287  1.301142 A    
C53   N5    1.435649 S    
N55   O213  1.301092 A    
C70   C166  1.403986 A    
C44   C170  1.458770 S    
N96   O295  1.301141 A    
C21   C149  1.458770 S    
Zn21  O2    1.952982 S    
C113  C252  1.409156 A    
C130  N82   1.435652 S    
C212  C356  1.408705 A    
Zn9   O8    1.952984 S    
C223  C367  1.408704 A    
C361  C366  1.386529 A    
Zn22  O104  1.943134 S    
Zn10  O7    1.952982 S    
C424  F88   1.357720 S    
C292  C295  1.417305 A    
C240  C328  1.419899 A    
Zn11  O6    1.952982 S    
N43   O189  1.301090 A    
C398  F62   1.357719 S    
C67   C287  1.409156 A    
C122  C198  1.409156 A    
Zn19  O6    1.952982 S    
Zn26  O71   1.943134 S    
O51   C10   1.281766 A    
C114  C251  1.409156 A    
Zn15  O10   1.943134 S    
C75   N27   1.435649 S    
N83   O269  1.301090 A    
C332  C335  1.417305 A    
C195  C339  1.408704 A    
C246  C327  1.419903 A    
C385  F49   1.357719 S    
N76   O256  1.301090 A    
C194  C338  1.408704 A    
C121  C149  1.403986 A    
N84   O271  1.301145 A    
N81   O266  1.301090 A    
Zn1   O49   1.943134 S    
O17   C9    1.281770 A    
N19   O142  1.301141 A    
C215  C359  1.408705 A    
O33   C12   1.281770 A    
C123  C151  1.403983 A    
C280  C424  1.408704 A    
C241  C385  1.408704 A    
C200  C296  1.419903 A    
O34   C11   1.281770 A    
C226  C315  1.419902 A    
C103  N55   1.435650 S    
N88   O280  1.301090 A    
C67   N19   1.435652 S    
C372  C375  1.386529 A    
C363  F27   1.357719 S    
Zn11  O95   1.943134 S    
Zn30  O3    1.952986 S    
C34   C177  1.458770 S    
N30   O164  1.301143 A    
Zn29  O78   1.943134 S    
N63   O230  1.301143 A    
C108  C257  1.409156 A    
C213  C309  1.419899 A    
N11   O126  1.301146 A    
C128  C148  1.403983 A    
C143  C211  1.409156 A    
Zn2   O50   1.943134 S    
C88   C221  1.409156 A    
N60   O223  1.301143 A    
C32   C186  1.458770 S    
C58   N10   1.435650 S    
C110  C190  1.403985 A    
N6    O115  1.301090 A    
C54   C150  1.403985 A    
O39   C23   1.281766 A    
N42   O187  1.301093 A    
C7    C161  1.458770 S    
C338  C341  1.386529 A    
C412  F76   1.357720 S    
C299  C304  1.417305 A    
Zn24  O25   1.943134 S    
C283  C427  1.408705 A    
C211  C307  1.419901 A    
C120  C189  1.403983 A    
O81   C33   1.281766 A    
O95   C27   1.281770 A    
Zn27  O70   1.943134 S    
Zn29  O68   1.943134 S    
N79   O262  1.301144 A    
C286  C306  1.419900 A    
C209  C305  1.419902 A    
C37   C183  1.458770 S    
C404  C407  1.386529 A    
C15   C164  1.458770 S    
C50   C270  1.409156 A    
C277  C421  1.408707 A    
C344  F8    1.357720 S    
O40   C24   1.281766 A    
C116  C185  1.403982 A    
C134  C154  1.403985 A    
C124  N76   1.435649 S    
C388  F52   1.357721 S    
C99   C234  1.409156 A    
C199  C343  1.408704 A    
C102  N54   1.435650 S    
C330  C333  1.417305 A    
C386  F50   1.357720 S    
C291  C296  1.417305 A    
C89   N41   1.435650 S    
C393  C398  1.386529 A    
C13   C159  1.458770 S    
C356  C359  1.386529 A    
C259  C403  1.408704 A    
C130  C158  1.403982 A    
C41   C172  1.458770 S    
C38   C184  1.458770 S    
C356  F20   1.357718 S    
C216  C312  1.419901 A    
Zn16  O1    1.952980 S    
N43   O190  1.301143 A    
C42   C171  1.458770 S    
C278  C298  1.419900 A    
C30   C180  1.458770 S    
C201  C297  1.419899 A    
N91   O285  1.301092 A    
N77   O258  1.301090 A    
C419  F83   1.357720 S    
N46   O195  1.301089 A    
O87   C35   1.281770 A    
C52   C148  1.403986 A    
O99   C45   1.281770 A    
C59   C279  1.409156 A    
C126  C146  1.403986 A    
C119  N71   1.435650 S    
C230  C374  1.408703 A    
C91   C242  1.409156 A    
C427  F91   1.357718 S    
Zn20  O56   1.943134 S    
O41   C20   1.281766 A    
C410  F74   1.357719 S    
O42   C19   1.281766 A    
C425  F89   1.357720 S    
O55   C6    1.281768 A    
C125  C193  1.409156 A    
N45   O193  1.301144 A    
C225  C369  1.408703 A    
C407  F71   1.357719 S    
C144  N96   1.435650 S    
C84   C169  1.403986 A    
Zn32  O60   1.943134 S    
O45   C24   1.281770 A    
O31   C19   1.281770 A    
N47   O197  1.301093 A    
C59   C155  1.403987 A    
O46   C23   1.281770 A    
O47   C2    1.281768 A    
C49   C269  1.409156 A    
C92   N44   1.435650 S    
O78   C46   1.281766 A    
C80   C176  1.403983 A    
N70   O244  1.301143 A    
N89   O281  1.301143 A    
C71   C283  1.409156 A    
N72   O247  1.301143 A    
C72   C284  1.409159 A    
Zn20  O98   1.943134 S    
N91   O286  1.301144 A    
Zn17  O3    1.952982 S    
C408  F72   1.357720 S    
N44   O191  1.301144 A    
C43   C169  1.458770 S    
Zn18  O4    1.952984 S    
Zn8   O17   1.943134 S    
C354  C357  1.386529 A    
C227  C314  1.419899 A    
C425  C430  1.386529 A    
Zn25  O76   1.943134 S    
N66   O235  1.301090 A    
C225  C316  1.419902 A    
N80   O264  1.301088 A    
N39   O181  1.301092 A    
O98   C48   1.281767 A    
C288  C308  1.419900 A    
C133  C201  1.409156 A    
C370  F34   1.357719 S    
C24   C147  1.458770 S    
N81   O265  1.301144 A    
C369  F33   1.357722 S    
N19   O141  1.301089 A    
C75   C226  1.409156 A    
C72   N24   1.435648 S    
C214  C310  1.419900 A    
N9    O121  1.301144 A    
C279  C423  1.408702 A    
C253  C397  1.408704 A    
N23   O149  1.301092 A    
C276  C304  1.419904 A    
C141  C209  1.409156 A    
N85   O273  1.301143 A    
Zn32  O65   1.943134 S    
C251  C395  1.408704 A    
N17   O138  1.301090 A    
Zn29  O4    1.952980 S    
C129  C205  1.409156 A    
N65   O233  1.301143 A    
C268  C296  1.419899 A    
Zn15  O91   1.943134 S    
C27   C188  1.458770 S    
C269  C289  1.419900 A    
O54   C17   1.281766 A    
C137  C165  1.403983 A    
C427  C432  1.386529 A    
Zn7   O39   1.943134 S    
C221  C317  1.419903 A    
C39   C192  1.458770 S    
C232  C376  1.408704 A    
O67   C35   1.281766 A    
C86   C175  1.403984 A    
Zn27  O73   1.943134 S    
C101  C184  1.403983 A    
Zn7   O83   1.943134 S    
C313  C318  1.417305 A    
C252  C396  1.408704 A    
C119  C190  1.403982 A    
O104  C42   1.281766 A    
C102  C183  1.403983 A    
C128  C196  1.409156 A    
C109  C264  1.409156 A    
O65   C33   1.281770 A    
N86   O275  1.301093 A    
C218  C314  1.419903 A    
N45   O194  1.301093 A    
C110  C263  1.409159 A    
C108  N60   1.435649 S    
C196  C292  1.419899 A    
C63   C275  1.409156 A    
C367  F31   1.357718 S    
N40   O183  1.301143 A    
C140  N92   1.435651 S    
C354  F18   1.357720 S    
Zn24  O8    1.952980 S    
C82   C171  1.403983 A    
C91   N43   1.435649 S    
N35   O173  1.301090 A    
C117  C192  1.403983 A    
N12   O127  1.301144 A    
N26   O155  1.301090 A    
C224  C368  1.408704 A    
C322  C325  1.417305 A    
N14   O132  1.301143 A    
C358  F22   1.357720 S    
C69   C165  1.403986 A    
C234  C322  1.419903 A    
Zn5   O20   1.943134 S    
O11   C3    1.281766 A    
N48   O199  1.301143 A    
Zn16  O36   1.943134 S    
C365  F29   1.357720 S    
Zn6   O19   1.943134 S    
C50   C146  1.403983 A    
C84   N36   1.435649 S    
C97   C236  1.409156 A    
C57   N9    1.435649 S    
C220  C364  1.408704 A    
C420  C423  1.386529 A    
O82   C34   1.281768 A    
C345  F9    1.357716 S    
O91   C31   1.281766 A    
C142  N94   1.435649 S    
N4    O111  1.301139 A    
C269  C413  1.408704 A    
O89   C25   1.281770 A    
Zn17  O38   1.943134 S    
N13   O130  1.301090 A    
Zn5   O41   1.943134 S    
C216  C360  1.408702 A    
C128  N80   1.435649 S    
C135  N87   1.435650 S    
C103  C238  1.409156 A    
C144  C212  1.409159 A    
O71   C39   1.281770 A    
C414  F78   1.357720 S    
C142  C210  1.409156 A    
C10   C157  1.458770 S    
C126  C194  1.409156 A    
C89   C244  1.409156 A    
C101  N53   1.435649 S    
Zn27  O2    1.952982 S    
C351  F15   1.357720 S    
C131  C207  1.409156 A    
N64   O232  1.301090 A    
C113  N65   1.435649 S    
C66   C162  1.403983 A    
N6    O116  1.301144 A    
Zn23  O101  1.943134 S    
C289  C294  1.417305 A    
C122  N74   1.435652 S    
N92   O288  1.301089 A    
C71   C167  1.403986 A    
N54   O211  1.301093 A    
C72   C168  1.403985 A    
Zn13  O4    1.952984 S    
C287  C431  1.408702 A    
C395  C400  1.386529 A    
C213  C357  1.408704 A    
Zn14  O3    1.952982 S    
N69   O242  1.301090 A    
O50   C21   1.281770 A    
C431  F95   1.357720 S    
C119  C254  1.409159 A    
O88   C36   1.281770 A    
C135  C203  1.409156 A    
C80   N32   1.435649 S    
C394  F58   1.357720 S    
C401  F65   1.357720 S    
Zn30  O67   1.943134 S    
C366  F30   1.357721 S    
C359  F23   1.357718 S    
C112  C261  1.409156 A    
C25   C182  1.458770 S    
C129  C157  1.403986 A    
C94   N46   1.435650 S    
C133  N85   1.435652 S    
C36   C190  1.458770 S    
N88   O279  1.301144 A    
C249  C393  1.408703 A    
N55   O214  1.301143 A    
C353  F17   1.357720 S    
C46   C174  1.458770 S    
C82   C219  1.409156 A    
C83   N35   1.435649 S    
N15   O133  1.301090 A    
C284  C428  1.408703 A    
C324  C327  1.417305 A    
O19   C11   1.281766 A    
C383  F47   1.357719 S    
C321  C326  1.417305 A    
C258  C402  1.408704 A    
C17   C152  1.458770 S    
C91   C179  1.403983 A    
N57   O217  1.301142 A    
C307  C312  1.417305 A    
C73   C228  1.409156 A    
C76   N28   1.435650 S    
C18   C151  1.458770 S    
C380  F44   1.357719 S    
N74   O251  1.301090 A    
N56   O216  1.301093 A    
C14   C160  1.458770 S    
N7    O118  1.301143 A    
C3    C168  1.458770 S    
C140  C168  1.403982 A    
C55   N7    1.435649 S    
C198  C342  1.408704 A    
C68   N20   1.435651 S    
C141  C161  1.403986 A    
C85   C224  1.409156 A    
N90   O284  1.301143 A    
C426  F90   1.357720 S    
C273  C301  1.419899 A    
C92   C180  1.403986 A    
N61   O226  1.301090 A    
C377  F41   1.357721 S    
C90   C243  1.409156 A    
N2    O107  1.301090 A    
C238  C326  1.419900 A    
C378  C381  1.386529 A    
C137  C213  1.409156 A    
C134  C202  1.409156 A    
C193  C289  1.419902 A    
N67   O237  1.301090 A    
C232  C317  1.419899 A    
C78   C174  1.403983 A    
C139  C215  1.409156 A    
C95   C246  1.409156 A    
O76   C44   1.281770 A    
N51   O206  1.301144 A    
N25   O153  1.301144 A    
O9    C1    1.281766 A    
C340  F4    1.357720 S    
Zn22  O1    1.952984 S    
C384  F48   1.357720 S    
N38   O179  1.301090 A    
C205  C301  1.419903 A    
C400  F64   1.357720 S    
C251  C331  1.419902 A    
C246  C390  1.408704 A    
C412  C415  1.386529 A    
Zn4   O88   1.943134 S    
C279  C299  1.419904 A    
Zn12  O13   1.943134 S    
C386  C389  1.386529 A    
C94   C247  1.409156 A    
Zn26  O75   1.943134 S    
C382  F46   1.357721 S    
N20   O144  1.301089 A    
N71   O245  1.301091 A    
C212  C308  1.419903 A    
Zn31  O6    1.952982 S    
C68   C288  1.409159 A    
C111  N63   1.435649 S    
N57   O218  1.301089 A    
C215  C311  1.419903 A    
C428  F92   1.357718 S    
O70   C38   1.281768 A    
C368  F32   1.357719 S    
C80   C229  1.409156 A    
O32   C20   1.281770 A    
C97   N49   1.435650 S    
Zn3   O27   1.943134 S    
C254  C334  1.419901 A    
C227  C371  1.408704 A    
C122  C150  1.403983 A    
C4    C167  1.458770 S    
C81   N33   1.435650 S    
C306  C309  1.417305 A    
N68   O239  1.301141 A    
Zn24  O52   1.943134 S    
Zn22  O48   1.943134 S    
N34   O172  1.301144 A    
N29   O161  1.301145 A    
C136  C156  1.403982 A    
C266  C410  1.408704 A    
O60   C28   1.281766 A    
N1    O105  1.301143 A    
C98   N50   1.435649 S    
C104  N56   1.435650 S    
O44   C13   1.281766 A    
C105  N57   1.435651 S    
Zn23  O7    1.952986 S    
N68   O240  1.301091 A    
C117  N69   1.435649 S    
N62   O227  1.301091 A    
N83   O270  1.301143 A    
O74   C42   1.281770 A    
C106  N58   1.435649 S    
N72   O248  1.301090 A    
C219  C363  1.408704 A    
N16   O135  1.301142 A    
O29   C16   1.281766 A    
C298  C301  1.417305 A    
C40   C191  1.458770 S    
C217  C361  1.408704 A    
C78   N30   1.435649 S    
C8    C162  1.458770 S    
N50   O203  1.301090 A    
C274  C418  1.408707 A    
C402  C405  1.386529 A    
N37   O178  1.301090 A    
N52   O207  1.301141 A    
C52   C272  1.409156 A    
C275  C303  1.419902 A    
C342  F6    1.357719 S    
C53   C265  1.409156 A    
O84   C40   1.281766 A    
N28   O160  1.301088 A    
C283  C311  1.419900 A    
N33   O169  1.301148 A    
C284  C312  1.419904 A    
Zn11  O31   1.943134 S    
N32   O167  1.301144 A    
C337  F1    1.357719 S    
C395  F59   1.357720 S    
Zn18  O44   1.943134 S    
N47   O198  1.301144 A    
C290  C293  1.417305 A    
C204  C300  1.419899 A    
