data_mof_unit_64761.cif
_audit_creation_date              2013-03-05T16:24:11-0500
_audit_creation_method            fapswitch 2.2
_symmetry_space_group_name_H-M    P1
_symmetry_Int_Tables_number       1
_space_group_crystal_system       triclinic
_cell_length_a                    28.562775
_cell_length_b                    18.37164
_cell_length_c                    21.79792
_cell_angle_alpha                 90.820976
_cell_angle_beta                  139.985699
_cell_angle_gamma                 89.32671
_cell_volume                      7353.85610586

loop_
_atom_site_label
_atom_site_type_symbol
_atom_site_description
_atom_site_fract_x
_atom_site_fract_y
_atom_site_fract_z
_atom_type_partial_charge
O1    O     O_R   0.894200 0.438770 0.894190 -0.576755
O2    O     O_R   0.105800 0.561230 0.105810 -0.576065
O3    O     O_R   0.105800 0.438770 0.105810 -0.589161
O4    O     O_R   0.894200 0.561230 0.894190 -0.590502
O5    O     O_R   0.394200 0.938770 0.894190 -0.576248
O6    O     O_R   0.605800 0.061230 0.105810 -0.576546
O7    O     O_R   0.605800 0.938770 0.105810 -0.591483
O8    O     O_R   0.394200 0.061230 0.894190 -0.589127
C1    C     C_R   0.860097 0.500043 0.860133 0.832094
C2    C     C_R   0.139903 0.499957 0.139855 0.833154
C3    C     C_R   0.360097 0.000042 0.860145 0.833475
C4    C     C_R   0.639903 0.999957 0.139867 0.832517
O9    O     O_R   0.999990 0.438770 0.909810 -0.587730
O10   O     O_R   0.000010 0.561230 0.090190 -0.586585
O11   O     O_R   0.000010 0.438770 0.090190 -0.580415
O12   O     O_R   0.999990 0.561230 0.909810 -0.581212
O13   O     O_R   0.499990 0.938770 0.909810 -0.586725
O14   O     O_R   0.500010 0.061230 0.090190 -0.587390
O15   O     O_R   0.500010 0.938770 0.090190 -0.582432
O16   O     O_R   0.499990 0.061230 0.909810 -0.580394
C5    C     C_R   0.997140 0.499415 0.878338 0.796612
C6    C     C_R   0.002066 0.500583 0.120792 0.796065
C7    C     C_R   0.497934 0.999417 0.879209 0.796440
C8    C     C_R   0.502834 0.000588 0.121632 0.796625
Cu1   Cu    Cu3+1 0.000000 0.427490 0.000000 0.964591
Cu2   Cu    Cu3+1 0.000000 0.572510 0.000000 0.965090
Cu3   Cu    Cu3+1 0.500000 0.927490 0.000000 0.961855
Cu4   Cu    Cu3+1 0.500000 0.072510 0.000000 0.964159
H1    H     H_    0.072392 0.413494 0.879499 0.156700
H2    H     H_    0.915572 0.574687 0.107609 0.152105
H3    H     H_    0.584470 0.925363 0.892438 0.151930
H4    H     H_    0.427099 0.086079 0.119964 0.156352
C9    C     C_R   0.890138 0.584264 0.704078 -0.184651
C10   C     C_R   0.119131 0.430705 0.304671 -0.190911
C11   C     C_R   0.380842 0.069247 0.695303 -0.191007
C12   C     C_R   0.610368 0.916414 0.296418 -0.179050
H5    H     H_    0.876503 0.572558 0.737532 0.154338
H6    H     H_    0.129564 0.442671 0.267468 0.149209
H7    H     H_    0.370417 0.057280 0.732514 0.149219
H8    H     H_    0.623949 0.928195 0.262912 0.154120
C13   C     C_R   0.848310 0.635749 0.632241 -0.216230
C14   C     C_R   0.169556 0.388033 0.385652 -0.207421
C15   C     C_R   0.330398 0.111894 0.614300 -0.207400
C16   C     C_R   0.652498 0.865230 0.368629 -0.235084
H9    H     H_    0.804405 0.662567 0.612832 0.147611
H10   H     H_    0.216918 0.368213 0.408464 0.154544
H11   H     H_    0.283027 0.131694 0.591479 0.154550
H12   H     H_    0.696641 0.838361 0.388636 0.152374
C17   C     C_R   0.865770 0.655758 0.590009 0.220409
C18   C     C_R   0.156888 0.367459 0.433419 0.211349
C19   C     C_R   0.343056 0.132472 0.566523 0.211316
C20   C     C_R   0.634840 0.845083 0.410453 0.213452
C21   C     C_R   0.923557 0.620324 0.616934 0.156467
C22   C     C_R   0.093713 0.392583 0.400721 0.159583
C23   C     C_R   0.406243 0.107377 0.599235 0.159615
C24   C     C_R   0.577043 0.880036 0.383653 0.176407
C25   C     C_R   0.957233 0.557835 0.676943 0.007454
C26   C     C_R   0.050113 0.448476 0.330327 0.009507
C27   C     C_R   0.449868 0.051504 0.669654 0.009627
C28   C     C_R   0.542967 0.942330 0.323257 0.000984
C29   C     C_R   0.946649 0.546894 0.729807 0.058647
C30   C     C_R   0.058358 0.460047 0.274930 0.057179
C31   C     C_R   0.441628 0.039930 0.725056 0.057130
C32   C     C_R   0.553551 0.953383 0.270377 0.058490
C33   C     C_R   0.992493 0.498366 0.806984 -0.121548
C34   C     C_R   0.006183 0.501653 0.191441 -0.114741
C35   C     C_R   0.493820 0.998348 0.808564 -0.114720
C36   C     C_R   0.507446 0.001648 0.192944 -0.121491
C37   C     C_R   0.038527 0.451528 0.820737 -0.190829
C38   C     C_R   0.954216 0.541735 0.171452 -0.193376
C39   C     C_R   0.545810 0.958294 0.828577 -0.193489
C40   C     C_R   0.461154 0.048224 0.178927 -0.190667
C41   C     C_R   0.041468 0.452902 0.759964 0.148869
C42   C     C_R   0.951622 0.540423 0.232541 0.150933
C43   C     C_R   0.548406 0.959608 0.767490 0.150489
C44   C     C_R   0.458232 0.046850 0.239719 0.149827
C45   C     C_R   0.001328 0.506473 0.687838 -0.103203
C46   C     C_R   0.999018 0.493143 0.312306 -0.109148
C47   C     C_R   0.500983 0.006860 0.687696 -0.108996
C48   C     C_R   0.498642 0.993483 0.312131 -0.103467
C49   C     C_1   0.782550 0.500127 0.782729 -0.176017
C50   C     C_1   0.217450 0.499874 0.217272 -0.177054
C51   C     C_1   0.282550 0.000125 0.782728 -0.177240
C52   C     C_1   0.717450 0.999873 0.217271 -0.176485
C53   C     C_1   0.717239 0.500117 0.717495 -0.166865
C54   C     C_1   0.282760 0.499884 0.282509 -0.167361
C55   C     C_1   0.217240 0.000116 0.717491 -0.167218
C56   C     C_1   0.782760 0.999883 0.282505 -0.166767
O17   O     O_R   0.061240 0.605830 0.561270 -0.575832
O18   O     O_R   0.938760 0.394170 0.438730 -0.576235
O19   O     O_R   0.938760 0.605830 0.438730 -0.593229
O20   O     O_R   0.061240 0.394170 0.561270 -0.594877
O21   O     O_R   0.561240 0.105830 0.561270 -0.576089
O22   O     O_R   0.438760 0.894170 0.438730 -0.576352
O23   O     O_R   0.438760 0.105830 0.438730 -0.595045
O24   O     O_R   0.561240 0.894170 0.561270 -0.590858
C57   C     C_R   0.000004 0.639850 0.497845 0.833231
C58   C     C_R   0.000020 0.360108 0.501386 0.834311
C59   C     C_R   0.499980 0.139892 0.498616 0.833606
C60   C     C_R   0.499998 0.860148 0.502137 0.831540
O25   O     O_R   0.061260 0.500000 0.651450 -0.585768
O26   O     O_R   0.938740 0.500000 0.348550 -0.585506
O27   O     O_R   0.561260 0.000000 0.651450 -0.585484
O28   O     O_R   0.438740 0.000000 0.348550 -0.586098
O29   O     O_R   0.938780 0.500000 0.528960 -0.577793
O30   O     O_R   0.061220 0.500000 0.471040 -0.580383
O31   O     O_R   0.438780 1.000000 0.528960 -0.580473
O32   O     O_R   0.561220 0.000000 0.471040 -0.575448
C61   C     C_R   0.000240 0.502317 0.619366 0.818638
C62   C     C_R   0.999795 0.497707 0.380588 0.814836
C63   C     C_R   0.500205 0.002293 0.619412 0.814030
C64   C     C_R   0.499754 0.997686 0.380627 0.816916
Cu5   Cu    Cu3+1 0.072520 0.500000 0.572540 0.946388
Cu6   Cu    Cu3+1 0.927480 0.500000 0.427460 0.950149
Cu7   Cu    Cu3+1 0.572520 1.000000 0.572540 0.957053
Cu8   Cu    Cu3+1 0.427480 1.000000 0.427460 0.946745
O33   O     O_R   0.500010 0.605810 0.447830 -0.582447
O34   O     O_R   0.499990 0.394190 0.552170 -0.582556
O35   O     O_R   0.499990 0.605810 0.552170 -0.582833
O36   O     O_R   0.500010 0.394190 0.447830 -0.582689
O37   O     O_R   0.000010 0.105810 0.447830 -0.582634
O38   O     O_R   0.999990 0.894190 0.552170 -0.580644
O39   O     O_R   0.999990 0.105810 0.552170 -0.582556
O40   O     O_R   0.000010 0.894190 0.447830 -0.583194
C65   C     C_R   0.500024 0.639696 0.500429 0.836586
C66   C     C_R   0.499947 0.360306 0.499571 0.835963
C67   C     C_R   0.000053 0.139694 0.500429 0.835468
C68   C     C_R   0.999977 0.860304 0.499572 0.835954
O41   O     O_R   0.605800 0.500000 0.553630 -0.582594
O42   O     O_R   0.394200 0.500000 0.446370 -0.583463
O43   O     O_R   0.105800 0.000000 0.553630 -0.583554
O44   O     O_R   0.894200 1.000000 0.446370 -0.581196
O45   O     O_R   0.605820 0.500000 0.658030 -0.582048
O46   O     O_R   0.394180 0.500000 0.341970 -0.581793
O47   O     O_R   0.105820 0.000000 0.658030 -0.581579
O48   O     O_R   0.894180 0.000000 0.341970 -0.582398
C69   C     C_R   0.639682 0.500050 0.639797 0.836989
C70   C     C_R   0.360318 0.499951 0.360204 0.836259
C71   C     C_R   0.139682 0.000049 0.639796 0.835771
C72   C     C_R   0.860318 0.999950 0.360203 0.836191
Cu9   Cu    Cu3+1 0.500000 0.500000 0.438200 0.969224
Cu10  Cu    Cu3+1 0.500000 0.500000 0.561800 0.968903
Cu11  Cu    Cu3+1 0.000000 1.000000 0.438200 0.968947
Cu12  Cu    Cu3+1 0.000000 1.000000 0.561800 0.973810
C73   C     C_1   0.000000 0.717429 0.497924 -0.178746
C74   C     C_1   0.000086 0.282560 0.501549 -0.177094
C75   C     C_1   0.499914 0.217440 0.498452 -0.176823
C76   C     C_1   0.500007 0.782570 0.502061 -0.177143
C77   C     C_1   0.499900 0.282742 0.498730 -0.165234
C78   C     C_1   0.500027 0.717263 0.501427 -0.163142
C79   C     C_1   0.999978 0.782736 0.498569 -0.163423
C80   C     C_1   0.000100 0.217258 0.501270 -0.165106
N1    N     N_3   0.827324 0.714288 0.522559 -0.595020
H13   H     H_    0.797029 0.691708 0.456030 0.216107
H14   H     H_    0.789964 0.737980 0.515416 0.199818
N2    N     N_3   0.206257 0.318583 0.512933 -0.601996
H15   H     H_    0.228255 0.346523 0.572782 0.219481
H16   H     H_    0.250286 0.306042 0.528476 0.219045
N3    N     N_3   0.293664 0.181323 0.486984 -0.601991
H17   H     H_    0.271683 0.153372 0.427151 0.219639
H18   H     H_    0.249628 0.193841 0.471432 0.219084
N4    N     N_3   0.673991 0.787112 0.478243 -0.602940
H19   H     H_    0.728843 0.801961 0.535808 0.215090
H20   H     H_    0.669637 0.740620 0.445883 0.210608
C81   C     C_3   0.954707 0.658940 0.593906 -0.795112
H21   H     H_    0.008909 0.638256 0.634493 0.205574
H22   H     H_    0.914907 0.655998 0.516008 0.247968
H23   H     H_    0.963414 0.717287 0.614575 0.244246
C82   C     C_3   0.069095 0.349394 0.430321 -0.783768
H24   H     H_    0.107028 0.359199 0.507028 0.253827
H25   H     H_    0.011968 0.360874 0.386008 0.200154
H26   H     H_    0.070629 0.290366 0.420100 0.237127
C83   C     C_3   0.430845 0.150579 0.569619 -0.783784
H27   H     H_    0.487978 0.139124 0.613941 0.200080
H28   H     H_    0.392919 0.140758 0.492917 0.253887
H29   H     H_    0.429283 0.209606 0.579814 0.237078
C84   C     C_3   0.546716 0.841351 0.407776 -0.782973
H30   H     H_    0.586928 0.844573 0.485794 0.259074
H31   H     H_    0.492528 0.861740 0.367522 0.200152
H32   H     H_    0.538227 0.782935 0.387455 0.234751
C85   C     C_3   0.087242 0.396038 0.773093 -0.813621
H33   H     H_    0.109720 0.355370 0.827812 0.219476
H34   H     H_    0.053677 0.366061 0.705038 0.223533
H35   H     H_    0.133971 0.422313 0.796887 0.248277
C86   C     C_3   0.898636 0.591246 0.211466 -0.807330
H36   H     H_    0.871657 0.628681 0.151860 0.216984
H37   H     H_    0.855150 0.559436 0.190413 0.248279
H38   H     H_    0.927695 0.625481 0.275141 0.226348
C87   C     C_3   0.601425 0.908816 0.788602 -0.806287
H39   H     H_    0.628429 0.871403 0.848236 0.216848
H40   H     H_    0.572389 0.874559 0.724952 0.226368
H41   H     H_    0.644890 0.940654 0.809633 0.248542
C88   C     C_3   0.412200 0.103521 0.226309 -0.813352
H42   H     H_    0.389567 0.144087 0.171422 0.219273
H43   H     H_    0.365571 0.077048 0.202595 0.248409
H44   H     H_    0.445621 0.133648 0.294227 0.223643

loop_
_geom_bond_atom_site_label_1
_geom_bond_atom_site_label_2
_geom_bond_distance
_ccdc_geom_bond_type
O44   Cu12  1.953484 S    
C51   C55   1.199458 T    
C26   C30   1.415256 A    
C81   H21   1.105291 S    
C23   C27   1.431019 A    
O25   Cu5   1.977239 S    
C82   H24   1.105929 S    
O37   Cu11  1.952192 S    
O27   Cu7   1.977239 S    
C10   C14   1.386985 A    
O38   Cu12  1.952193 S    
O45   C69   1.297020 A    
C40   C44   1.390715 A    
O20   C58   1.288084 A    
H4    C40   1.084640 S    
C83   H27   1.106098 S    
O47   C71   1.297045 A    
O45   Cu10  1.955518 S    
O13   C7    1.284352 A    
O14   C8    1.285509 A    
C32   C36   1.407151 A    
O32   Cu7   1.976220 S    
C17   N1    1.438155 S    
N2    H15   1.045467 S    
C75   C77   1.199630 T    
C76   C78   1.199677 T    
O37   C67   1.295943 A    
O48   Cu11  1.955523 S    
O6    C4    1.287495 A    
C66   C77   1.424838 S    
O36   C66   1.297241 A    
C86   H37   1.109572 S    
O41   Cu9   1.953481 S    
O23   C59   1.288084 A    
O25   C61   1.288652 A    
Cu11  Cu12  2.694223 S    
C10   C30   1.410077 A    
O7    Cu3   1.954340 S    
C4    C52   1.424195 S    
O27   C63   1.290071 A    
O21   Cu7   1.955012 S    
C7    C35   1.451733 S    
C25   C29   1.414663 A    
C87   H40   1.110670 S    
C23   C83   1.504371 S    
O29   C61   1.291235 A    
Cu5   Cu6   2.663717 S    
O28   Cu8   1.977239 S    
O11   C6    1.287585 A    
C56   C72   1.424374 S    
C18   N2    1.438721 S    
C84   H31   1.105136 S    
O39   Cu12  1.958165 S    
C38   C42   1.389738 A    
N3    H18   1.045077 S    
O24   Cu7   1.955543 S    
C37   C41   1.390685 A    
N1    H14   1.043524 S    
C11   C15   1.386985 A    
O20   Cu5   1.955543 S    
O21   C59   1.287154 A    
H1    C37   1.084677 S    
O48   C72   1.297016 A    
O40   C68   1.296684 A    
C42   C86   1.512423 S    
O32   C64   1.291341 A    
C16   C20   1.393172 A    
H3    C39   1.084909 S    
C81   H22   1.104768 S    
O5    Cu3   1.953820 S    
O1    Cu1   1.953820 S    
C82   H25   1.106096 S    
C22   C82   1.504360 S    
O9    Cu1   1.979580 S    
C26   C46   1.435462 A    
O31   C63   1.291528 A    
O43   Cu11  1.953481 S    
C13   C17   1.395893 A    
H2    C38   1.084912 S    
O41   C69   1.296180 A    
N4    H20   1.045655 S    
C24   C84   1.501602 S    
C85   H34   1.110667 S    
O12   Cu2   1.973674 S    
O7    C4    1.287521 A    
O6    Cu4   1.953818 S    
C30   C34   1.405669 A    
O30   Cu5   1.976220 S    
O9    C5    1.285606 A    
O13   Cu3   1.979580 S    
C25   C45   1.432980 A    
O29   Cu6   1.976219 S    
C12   H8    1.082238 S    
O1    C1    1.287495 A    
O2    Cu2   1.953818 S    
C44   C88   1.511922 S    
C27   C47   1.435462 A    
O28   C64   1.288583 A    
O43   C71   1.296163 A    
O22   Cu8   1.955013 S    
C86   H38   1.110671 S    
C58   C74   1.424704 S    
C19   C23   1.413121 A    
C3    C51   1.424192 S    
Cu1   Cu2   2.664257 S    
C85   H33   1.111008 S    
C8    C36   1.455891 S    
O17   Cu5   1.955012 S    
C2    C50   1.424192 S    
O19   C57   1.288790 A    
C24   C28   1.429869 A    
O17   C57   1.286968 A    
C52   C56   1.199460 T    
C87   H41   1.109574 S    
C11   H7    1.082384 S    
C31   C35   1.405662 A    
O26   Cu6   1.977239 S    
C29   C33   1.407424 A    
C67   C80   1.424840 S    
C41   C85   1.511930 S    
C68   C79   1.424893 S    
O39   C67   1.297239 A    
N3    H17   1.045471 S    
O16   C7    1.287578 A    
O22   C60   1.287008 A    
O23   Cu8   1.955541 S    
C36   C40   1.391354 A    
C84   H32   1.111185 S    
C48   C64   1.469786 S    
O40   Cu11  1.958168 S    
C88   H43   1.109521 S    
O14   Cu4   1.979580 S    
C46   C62   1.472658 S    
C18   C22   1.413124 A    
C13   H9    1.083105 S    
O10   Cu2   1.979580 S    
C45   C61   1.469780 S    
C16   H12   1.082970 S    
C73   C79   1.199676 T    
C83   H28   1.105932 S    
C14   C18   1.396243 A    
C74   C80   1.199630 T    
O35   C65   1.296706 A    
C21   C81   1.502021 S    
O47   Cu12  1.955518 S    
C88   H42   1.110979 S    
C81   H23   1.111148 S    
O5    C3    1.287478 A    
C14   H10   1.083115 S    
O8    Cu4   1.954342 S    
C82   H26   1.111081 S    
C12   C16   1.387218 A    
C43   C47   1.421432 A    
O42   C70   1.296166 A    
C53   C69   1.424372 S    
O15   Cu3   1.973674 S    
O33   Cu9   1.952192 S    
N4    H19   1.045210 S    
O30   C62   1.291518 A    
C83   H29   1.111079 S    
C33   C37   1.391469 A    
C59   C75   1.424704 S    
C28   C48   1.432877 A    
C21   C25   1.429690 A    
C85   H35   1.109528 S    
C5    C33   1.456100 S    
C10   H6    1.082382 S    
C57   C73   1.425232 S    
O36   Cu9   1.958168 S    
C44   C48   1.418455 A    
C55   C71   1.424378 S    
O34   Cu10  1.952193 S    
O46   C70   1.297040 A    
O4    Cu2   1.954342 S    
O12   C5    1.288891 A    
C6    C34   1.451744 S    
O44   C72   1.296183 A    
O16   Cu4   1.973674 S    
C27   C31   1.415257 A    
O19   Cu6   1.955541 S    
C47   C63   1.472674 S    
C28   C32   1.415322 A    
C9    C13   1.387179 A    
O10   C6    1.284355 A    
N2    H16   1.045075 S    
O15   C8    1.288884 A    
N1    H13   1.045438 S    
O3    C2    1.287533 A    
C50   C54   1.199458 T    
Cu9   Cu10  2.694223 S    
C88   H44   1.110653 S    
C39   C43   1.389736 A    
C15   C19   1.396249 A    
C86   H36   1.111054 S    
C34   C38   1.388596 A    
O33   C65   1.296514 A    
C60   C76   1.425204 S    
O8    C3    1.287533 A    
C17   C21   1.412249 A    
O24   C60   1.288743 A    
C19   N3    1.438718 S    
C35   C39   1.388583 A    
O18   Cu6   1.955013 S    
O38   C68   1.296539 A    
C87   H39   1.111050 S    
O42   Cu10  1.953484 S    
C9    H5    1.082210 S    
O31   Cu8   1.976219 S    
C43   C87   1.512418 S    
O26   C62   1.290072 A    
C65   C78   1.424891 S    
C54   C70   1.424378 S    
C20   C24   1.409783 A    
O3    Cu1   1.954340 S    
C22   C26   1.431023 A    
O11   Cu1   1.973674 S    
C9    C29   1.410526 A    
C84   H30   1.105259 S    
C42   C46   1.421421 A    
C1    C49   1.424195 S    
Cu3   Cu4   2.664257 S    
O35   Cu10  1.958165 S    
C41   C45   1.418335 A    
C11   C31   1.410076 A    
O34   C66   1.295941 A    
O4    C1    1.287521 A    
C12   C32   1.411119 A    
C15   H11   1.083112 S    
O18   C58   1.287154 A    
C49   C53   1.199462 T    
Cu7   Cu8   2.663717 S    
C20   N4    1.433282 S    
O46   Cu9   1.955523 S    
O2    C2    1.287478 A    
