data_mof_unit_10455.cif
_audit_creation_date              2012-12-10T17:33:15-0500
_audit_creation_method            fapswitch 2.2
_symmetry_space_group_name_H-M    P1
_symmetry_Int_Tables_number       1
_space_group_crystal_system       triclinic
_cell_length_a                    12.195027
_cell_length_b                    12.641495
_cell_length_c                    13.598856
_cell_angle_alpha                 93.570189
_cell_angle_beta                  78.159858
_cell_angle_gamma                 97.387771
_cell_volume                      2033.41673979

loop_
_atom_site_label
_atom_site_type_symbol
_atom_type_description
_atom_site_fract_x
_atom_site_fract_y
_atom_site_fract_z
_atom_type_partial_charge
C1    C     C_R   0.528138 0.700708 0.487822 0.874829
C2    C     C_R   0.472812 0.298539 0.508470 0.871015
C3    C     C_R   0.467454 0.972114 0.458414 0.011919
C4    C     C_R   0.545479 0.027758 0.514743 0.013238
C5    C     C_R   0.952258 0.380784 0.427267 0.152520
C6    C     C_R   0.044801 0.621411 0.573300 0.080462
C7    C     C_R   0.847427 0.408844 0.414646 0.198072
C8    C     C_R   0.156997 0.602455 0.575986 0.205394
C9    C     C_R   0.854884 0.542692 0.543418 0.147143
C10   C     C_R   0.142148 0.452651 0.461661 0.137710
C11   C     C_R   0.974535 0.542349 0.529455 -0.075267
C12   C     C_R   0.023764 0.457462 0.472840 -0.033360
C13   C     C_R   0.479183 0.501674 0.686720 0.891423
C14   C     C_R   0.520853 0.498394 0.313273 0.894277
C15   C     C_1   0.538052 0.498148 0.208055 -0.203119
C16   C     C_1   0.462253 0.502664 0.791949 -0.206850
C17   C     C_2   0.549145 0.499103 0.014876 0.111125
C18   C     C_2   0.451651 0.503038 0.985131 0.110650
C19   C     C_1   0.452800 0.503133 0.880622 -0.020470
C20   C     C_1   0.547815 0.498376 0.119382 -0.019658
C21   C     C_R   0.447628 0.183366 0.523951 -0.221523
C22   C     C_R   0.557978 0.814130 0.463853 -0.191900
C23   C     C_R   0.643231 0.981960 0.522911 0.100089
C24   C     C_R   0.372398 0.021239 0.446488 0.113787
C25   C     C_R   0.654632 0.875896 0.488471 0.097199
C26   C     C_R   0.356662 0.122229 0.491157 0.121931
C27   C     C_R   0.480754 0.865618 0.426584 0.031116
C28   C     C_R   0.528989 0.131572 0.554007 0.073497
N1    N     N_R   0.206090 0.519450 0.517820 -0.145696
N2    N     N_R   0.793910 0.480550 0.482180 -0.149188
O1    O     O_R   0.421240 0.658850 0.504760 -0.598052
O2    O     O_R   0.578760 0.341150 0.495240 -0.594547
O3    O     O_R   0.609960 0.646370 0.493320 -0.644800
O4    O     O_R   0.390040 0.353630 0.506680 -0.639168
O5    O     O_R   0.392060 0.507120 0.646890 -0.631861
O6    O     O_R   0.607940 0.492880 0.353110 -0.635290
O7    O     O_R   0.580780 0.494630 0.635450 -0.618661
O8    O     O_R   0.419220 0.505370 0.364550 -0.617986
Zn1   Zn    Zn3+2 0.373990 0.508340 0.507630 0.902003
Zn2   Zn    Zn3+2 0.626010 0.491660 0.492370 0.904289
N3    N     N_3   0.347169 0.506737 0.056196 -0.465377
H1    H     H_    0.291168 0.441140 0.040326 0.180532
H2    H     H_    0.313454 0.575724 0.044268 0.180436
N4    N     N_3   0.653650 0.495468 0.943828 -0.466335
H3    H     H_    0.709643 0.561033 0.959783 0.179698
H4    H     H_    0.687362 0.426450 0.955675 0.181097
N5    N     N_3   0.590701 0.182738 0.627537 -0.404064
H5    H     H_    0.558426 0.253041 0.657827 0.186163
H6    H     H_    0.574287 0.132806 0.688667 0.181561
N6    N     N_3   0.423900 0.812191 0.351324 -0.485577
H7    H     H_    0.483744 0.781202 0.294132 0.188214
H8    H     H_    0.364957 0.749481 0.381387 0.215347
C29   C     C_3   0.237588 0.152117 0.522671 -0.366300
C30   C     C_3   0.166872 0.075639 0.601158 -0.891283
H9    H     H_    0.143227 0.996914 0.565726 0.262524
H10   H     H_    0.214519 0.064355 0.660421 0.261620
H11   H     H_    0.088206 0.108784 0.638355 0.249180
H12   H     H_    0.235589 0.232436 0.559347 0.226820
H13   H     H_    0.197856 0.150627 0.456000 0.221063
C31   C     C_3   0.768112 0.831844 0.476781 -0.385811
C32   C     C_3   0.866172 0.897151 0.408654 -0.919883
H14   H     H_    0.835743 0.940064 0.352501 0.271794
H15   H     H_    0.914280 0.954281 0.453921 0.249608
H16   H     H_    0.926983 0.843598 0.367189 0.247869
H17   H     H_    0.787784 0.826253 0.552175 0.185848
H18   H     H_    0.767216 0.751789 0.439905 0.245447
N7    N     N_3   0.732029 0.045359 0.561920 -0.446207
H19   H     H_    0.793709 0.073585 0.501533 0.215943
H20   H     H_    0.765206 0.001088 0.608779 0.186823
N8    N     N_3   0.288768 0.971442 0.392315 -0.465104
H21   H     H_    0.250837 0.899369 0.423852 0.186862
H22   H     H_    0.326076 0.960236 0.316680 0.208402
N9    N     N_3   0.195647 0.384622 0.383528 -0.476416
H23   H     H_    0.248696 0.341254 0.411103 0.222895
H24   H     H_    0.241724 0.431802 0.325336 0.216585
N10   N     N_3   0.797396 0.600879 0.627482 -0.455338
H25   H     H_    0.757443 0.547077 0.682542 0.221777
H26   H     H_    0.739199 0.642770 0.605187 0.223865
C33   C     C_3   0.214041 0.668071 0.653785 -0.317360
C34   C     C_3   0.262403 0.782939 0.626321 -0.853317
H27   H     H_    0.270951 0.793462 0.545118 0.261359
H28   H     H_    0.208527 0.841318 0.668937 0.237925
H29   H     H_    0.346825 0.802684 0.646175 0.246061
H30   H     H_    0.154025 0.668587 0.727030 0.175287
H31   H     H_    0.281107 0.630114 0.671685 0.247186
C35   C     C_3   0.800799 0.371411 0.321224 -0.348814
C36   C     C_3   0.882707 0.324999 0.232632 -0.984898
H32   H     H_    0.967879 0.371182 0.222694 0.272172
H33   H     H_    0.888310 0.239473 0.241304 0.259674
H34   H     H_    0.850797 0.329663 0.162316 0.260813
H35   H     H_    0.723059 0.314682 0.340313 0.235279
H36   H     H_    0.781856 0.444067 0.290228 0.238306
C37   C     C_3   0.969133 0.263315 0.419079 -0.372266
C38   C     C_3   0.975022 0.223190 0.521204 -0.919843
H37   H     H_    0.047147 0.266411 0.550559 0.270940
H38   H     H_    0.896207 0.234620 0.576428 0.276681
H39   H     H_    0.984793 0.136917 0.513467 0.251804
H40   H     H_    0.895609 0.214175 0.396720 0.213504
H41   H     H_    0.044144 0.246895 0.361612 0.221945
C39   C     C_3   0.006494 0.731640 0.602513 -0.331212
C40   C     C_3   0.960750 0.748899 0.715495 -0.851955
H42   H     H_    0.930045 0.671971 0.752824 0.265658
H43   H     H_    0.026293 0.792572 0.753217 0.242294
H44   H     H_    0.889684 0.798111 0.726796 0.242428
H45   H     H_    0.074016 0.795819 0.574660 0.192146
H46   H     H_    0.941872 0.745451 0.559960 0.201635

loop_
_geom_bond_atom_site_label_1
_geom_bond_atom_site_label_2
_ccdc_geom_bond_type
C36   H32   S    
C28   N5    S    
C40   H42   S    
N3    H2    S    
N9    H23   S    
C21   C26   A    
C29   H13   S    
C1    O3    A    
N5    H6    S    
C29   C30   S    
C39   H45   S    
C37   C38   S    
C8    N1    A    
C24   C26   A    
C13   O5    A    
O7    Zn2   S    
C35   H35   S    
C14   O6    A    
O8    Zn1   S    
C10   N9    S    
C7    C35   S    
C1    O1    A    
C17   C20   S    
C2    O2    A    
C18   C19   S    
N3    H1    S    
C23   N7    S    
C32   H15   S    
C22   C25   A    
C8    C33   S    
N6    H8    S    
N8    H21   S    
C9    N10   S    
C37   H41   S    
C13   O7    A    
C27   N6    S    
C2    O4    A    
O2    Zn2   S    
C31   H18   S    
C1    C22   S    
C40   H43   S    
C7    N2    A    
N9    H24   S    
C3    C24   A    
C38   H37   S    
C34   H29   S    
C4    C28   A    
N4    H4    S    
N6    H7    S    
C15   C20   T    
C30   H10   S    
O3    Zn2   S    
C24   N8    S    
O4    Zn1   S    
O6    Zn2   S    
N10   H25   S    
C5    C12   A    
C34   H28   S    
C18   N3    S    
C6    C11   A    
C5    C7    A    
C4    C23   A    
C35   C36   S    
C6    C8    A    
C38   H39   S    
N7    H19   S    
C31   C32   S    
N7    H20   S    
C6    C39   S    
C32   H16   S    
O5    Zn1   S    
C14   O8    A    
N5    H5    S    
C29   H12   S    
N1    Zn1   S    
C2    C21   S    
C17   C18   D    
N2    Zn2   S    
C38   H38   S    
C9    C11   A    
C10   C12   A    
C9    N2    A    
C25   C31   S    
C21   C28   A    
C31   H17   S    
C40   H44   S    
C22   C27   A    
C36   H33   S    
C36   H34   S    
C3    C4    A    
C26   C29   S    
C33   H31   S    
N4    H3    S    
C30   H9    S    
N10   H26   S    
C34   H27   S    
C5    C37   S    
C11   C12   A    
C39   H46   S    
C3    C27   A    
C17   N4    S    
C35   H36   S    
C10   N1    A    
C33   H30   S    
C16   C19   T    
C39   C40   S    
O1    Zn1   S    
C23   C25   A    
C32   H14   S    
C33   C34   S    
C13   C16   S    
C14   C15   S    
N8    H22   S    
C37   H40   S    
C30   H11   S    
