data_mof_unit_57061.cif
_audit_creation_date              2012-12-10T18:52:16-0500
_audit_creation_method            fapswitch 2.2
_symmetry_space_group_name_H-M    P1
_symmetry_Int_Tables_number       1
_space_group_crystal_system       triclinic
_cell_length_a                    15.725252
_cell_length_b                    10.700614
_cell_length_c                    9.828574
_cell_angle_alpha                 90.019384
_cell_angle_beta                  89.690725
_cell_angle_gamma                 90.418174
_cell_volume                      1653.78447337

loop_
_atom_site_label
_atom_site_type_symbol
_atom_type_description
_atom_site_fract_x
_atom_site_fract_y
_atom_site_fract_z
_atom_type_partial_charge
C1    C     C_R   0.502521 0.260101 0.500055 0.867597
C2    C     C_R   0.497479 0.739898 0.499945 0.867596
C3    C     C_R   0.457159 0.938415 0.392566 -0.001308
C4    C     C_R   0.542840 0.061585 0.607434 -0.001310
C5    C     C_R   0.495299 0.872401 0.499921 -0.077522
C6    C     C_R   0.504700 0.127599 0.500079 -0.077521
C7    C     C_R   0.546868 0.586068 0.071581 -0.052346
C8    C     C_R   0.453131 0.413931 0.928419 -0.052345
C9    C     C_R   0.546842 0.586050 0.927616 -0.078644
C10   C     C_R   0.453157 0.413950 0.072384 -0.078647
C11   C     C_R   0.337851 0.499850 0.500289 0.901401
C12   C     C_R   0.662149 0.500150 0.499711 0.901401
C13   C     C_3   0.971313 0.391236 0.546080 0.066236
C14   C     C_3   0.028687 0.608765 0.453920 0.066235
C15   C     C_3   0.028156 0.406819 0.418974 -0.212022
C16   C     C_3   0.971844 0.593181 0.581026 -0.212022
C17   C     C_1   0.249017 0.499575 0.500934 -0.197951
C18   C     C_1   0.750983 0.500425 0.499065 -0.197950
C19   C     C_3   0.027362 0.482024 0.628607 -0.217188
C20   C     C_3   0.972638 0.517976 0.371393 -0.217188
C21   C     C_3   0.082940 0.499389 0.500745 0.146777
C22   C     C_3   0.917060 0.500612 0.499255 0.146777
C23   C     C_1   0.173773 0.499339 0.501088 -0.066579
C24   C     C_1   0.826227 0.500661 0.498912 -0.066578
C25   C     C_R   0.463224 0.066609 0.393490 -0.253432
C26   C     C_R   0.536775 0.933391 0.606511 -0.253432
H1    H     H_    0.052888 0.330197 0.354003 0.149171
H2    H     H_    0.947112 0.669804 0.645997 0.149170
H3    H     H_    0.948568 0.533752 0.266844 0.144845
H4    H     H_    0.051432 0.466249 0.733156 0.144845
H5    H     H_    0.432776 0.119138 0.313050 0.156095
H6    H     H_    0.567223 0.880862 0.686950 0.156096
H7    H     H_    0.584182 0.655002 0.125872 0.130296
H8    H     H_    0.415818 0.344997 0.874128 0.130296
H9    H     H_    0.584200 0.654909 0.872689 0.124258
H10   H     H_    0.415800 0.345091 0.127310 0.124258
N1    N     N_R   0.499980 0.499970 0.857200 -0.077607
N2    N     N_R   0.500020 0.500030 0.142800 -0.077607
O1    O     O_R   0.499990 0.316750 0.614620 -0.611271
O2    O     O_R   0.500010 0.683250 0.385380 -0.611271
O3    O     O_R   0.500000 0.316780 0.385290 -0.632578
O4    O     O_R   0.500000 0.683220 0.614710 -0.632577
O5    O     O_R   0.376780 0.499970 0.614640 -0.615577
O6    O     O_R   0.623220 0.500030 0.385360 -0.615577
O7    O     O_R   0.376780 0.500000 0.385310 -0.612581
O8    O     O_R   0.623220 0.500000 0.614690 -0.612580
Zn1   Zn    Zn3+2 0.500000 0.499980 0.653120 0.951612
Zn2   Zn    Zn3+2 0.500000 0.500020 0.346880 0.951611
C27   C     C_1   0.937849 0.271526 0.596710 0.130788
N3    N     N_1   0.911389 0.177156 0.636589 -0.212313
C28   C     C_1   0.062151 0.728474 0.403290 0.130788
N4    N     N_1   0.088611 0.822844 0.363410 -0.212311
C29   C     C_R   0.409484 0.877324 0.280454 0.136684
C30   C     C_R   0.437455 0.890895 0.145194 -0.171482
C31   C     C_R   0.394702 0.829488 0.039892 -0.144443
C32   C     C_R   0.323627 0.754706 0.068777 -0.104181
C33   C     C_R   0.294743 0.742031 0.202870 -0.095557
C34   C     C_R   0.337218 0.803442 0.308472 -0.099000
H11   H     H_    0.493185 0.947098 0.121812 0.121039
H12   H     H_    0.417098 0.839031 0.936034 0.134677
H13   H     H_    0.290962 0.706567 0.987258 0.129926
H14   H     H_    0.239690 0.684102 0.225107 0.136202
H15   H     H_    0.314532 0.792324 0.412050 0.105978
C35   C     C_R   0.590513 0.122676 0.719547 0.136685
C36   C     C_R   0.662782 0.196555 0.691532 -0.099005
C37   C     C_R   0.705255 0.257968 0.797135 -0.095559
C38   C     C_R   0.676366 0.245299 0.931226 -0.104178
C39   C     C_R   0.605290 0.170520 0.960109 -0.144444
C40   C     C_R   0.562539 0.109110 0.854807 -0.171481
H16   H     H_    0.685470 0.207669 0.587956 0.105981
H17   H     H_    0.760310 0.315893 0.774900 0.136202
H18   H     H_    0.709030 0.293439 0.012745 0.129926
H19   H     H_    0.582890 0.160981 0.063965 0.134677
H20   H     H_    0.506808 0.052910 0.878186 0.121038

loop_
_geom_bond_atom_site_label_1
_geom_bond_atom_site_label_2
_ccdc_geom_bond_type
C25   H5    S    
C31   C32   A    
C26   H6    S    
C33   H14   S    
C29   C30   A    
C17   C23   T    
C18   C24   T    
C14   C21   S    
C19   C21   S    
C6    C25   A    
C36   H16   S    
C32   C33   A    
O2    Zn2   S    
C38   H18   S    
O8    Zn1   S    
O3    Zn2   S    
C14   C28   S    
C39   C40   A    
C11   O5    A    
N1    Zn1   S    
N2    Zn2   S    
C16   H2    S    
C20   H3    S    
C37   C38   A    
C31   H12   S    
C7    H7    S    
C30   H11   S    
C15   C20   S    
C13   C19   S    
C28   N4    T    
C14   C20   S    
C3    C25   A    
C12   O8    A    
C39   H19   S    
C1    C6    S    
C38   C39   A    
C15   H1    S    
C37   H17   S    
C9    N1    A    
C40   H20   S    
C8    H8    S    
C35   C40   A    
C13   C27   S    
C4    C6    A    
C20   C22   S    
C27   N3    T    
C13   C15   S    
C22   C24   S    
C11   O7    A    
C2    C5    S    
C8    N1    A    
O1    Zn1   S    
O7    Zn2   S    
C1    O3    A    
C34   H15   S    
C7    C9    A    
C30   C31   A    
C11   C17   S    
C16   C22   S    
C3    C5    A    
C4    C26   A    
C29   C34   A    
C4    C35   S    
C10   N2    A    
C35   C36   A    
C21   C23   S    
C12   O6    A    
C3    C29   S    
C33   C34   A    
C2    O4    A    
C16   C19   S    
C7    N2    A    
C13   C22   S    
C14   C16   S    
O4    Zn1   S    
C1    O1    A    
C5    C26   A    
C2    O2    A    
C15   C21   S    
C8    C10   A    
C36   C37   A    
C12   C18   S    
C9    H9    S    
C32   H13   S    
C10   H10   S    
C19   H4    S    
O5    Zn1   S    
O6    Zn2   S    
