data_mof_unit_25428.cif
_audit_creation_date              2012-12-10T17:30:20-0500
_audit_creation_method            fapswitch 2.2
_symmetry_space_group_name_H-M    P1
_symmetry_Int_Tables_number       1
_space_group_crystal_system       triclinic
_cell_length_a                    12.065419
_cell_length_b                    12.876245
_cell_length_c                    14.836827
_cell_angle_alpha                 91.225897
_cell_angle_beta                  87.029469
_cell_angle_gamma                 93.879005
_cell_volume                      2296.26851198

loop_
_atom_site_label
_atom_site_type_symbol
_atom_type_description
_atom_site_fract_x
_atom_site_fract_y
_atom_site_fract_z
_atom_type_partial_charge
C1    C     C_R   0.522596 0.700225 0.494237 0.955318
C2    C     C_R   0.354901 0.132283 0.505685 0.325179
C3    C     C_R   0.445815 0.866786 0.518542 -0.135178
C4    C     C_R   0.557515 0.133559 0.489114 -0.169747
C5    C     C_R   0.449895 0.973674 0.516479 -0.071992
C6    C     C_R   0.553904 0.027165 0.495749 -0.082693
C7    C     C_R   0.955623 0.478377 0.383117 -0.234523
C8    C     C_R   0.044474 0.502508 0.616385 -0.264395
C9    C     C_R   0.840062 0.468636 0.398744 -0.001388
C10   C     C_R   0.159576 0.510085 0.601489 -0.007631
C11   C     C_R   0.857845 0.500676 0.555316 0.637165
C12   C     C_R   0.476822 0.299358 0.497424 0.959473
C13   C     C_R   0.142651 0.511736 0.443178 0.628923
C14   C     C_R   0.975574 0.499695 0.543239 -0.091703
C15   C     C_R   0.024951 0.496683 0.455567 -0.054943
C16   C     C_R   0.502108 0.512520 0.672534 0.911969
C17   C     C_R   0.498235 0.493331 0.327307 0.961907
C18   C     C_R   0.484345 0.402728 0.179963 0.447877
C19   C     C_R   0.485464 0.615061 0.818095 0.391307
C20   C     C_R   0.494837 0.494926 0.231761 -0.159345
C21   C     C_R   0.502246 0.520687 0.769394 -0.182739
C22   C     C_R   0.492793 0.592163 0.194162 -0.230636
C23   C     C_R   0.518478 0.705736 0.967474 0.352755
C24   C     C_R   0.497229 0.426440 0.813075 -0.218257
C25   C     C_R   0.487663 0.600973 0.101728 -0.024590
C26   C     C_R   0.466045 0.423101 0.903853 -0.041788
C27   C     C_R   0.470749 0.509772 0.048994 -0.077282
C28   C     C_R   0.475218 0.516433 0.955320 -0.044112
C29   C     C_R   0.454408 0.410799 0.090015 -0.193042
C30   C     C_R   0.494368 0.614685 0.912833 -0.173963
C31   C     C_R   0.505319 0.698896 0.061824 0.388750
C32   C     C_R   0.423367 0.329248 0.943970 0.389907
C33   C     C_3   0.429548 0.830757 0.143489 0.068715
C34   C     C_R   0.411532 0.324845 0.038395 0.406352
C35   C     C_3   0.455420 0.921098 0.208572 -0.564528
C36   C     C_3   0.301289 0.254985 0.842810 0.093614
C37   C     C_3   0.250241 0.149167 0.813572 -0.551947
C38   C     C_3   0.191607 0.609086 0.319196 0.067995
C39   C     C_3   0.190889 0.597109 0.216930 -0.770215
C40   C     C_3   0.846347 0.634680 0.659099 0.010552
C41   C     C_3   0.750212 0.692923 0.698128 -0.560028
C42   C     C_R   0.460750 0.186824 0.495904 -0.249034
C43   C     C_R   0.537785 0.812386 0.490474 -0.274982
C44   C     C_R   0.651603 0.973112 0.478825 0.386244
C45   C     C_R   0.351366 0.027446 0.530406 0.363541
C46   C     C_R   0.639544 0.865495 0.462085 0.325544
H1    H     H_    0.989785 0.471657 0.314567 0.204344
H2    H     H_    0.294583 0.705652 0.664410 0.398967
H3    H     H_    0.370779 0.773512 0.179412 0.100477
H4    H     H_    0.388460 0.860593 0.084720 0.201655
H5    H     H_    0.513442 0.980572 0.174906 0.308036
H6    H     H_    0.377509 0.957560 0.230752 0.225440
H7    H     H_    0.494314 0.892685 0.268872 0.224379
H8    H     H_    0.323866 0.299607 0.780673 0.130267
H9    H     H_    0.236817 0.296789 0.882780 0.178128
H10   H     H_    0.229876 0.099431 0.873141 0.277484
H11   H     H_    0.172741 0.159424 0.778561 0.218557
H12   H     H_    0.010145 0.494330 0.684885 0.190629
H13   H     H_    0.309576 0.109843 0.766735 0.270678
H14   H     H_    0.735449 0.916034 0.971693 0.394113
H15   H     H_    0.162026 0.146522 0.057287 0.392641
H16   H     H_    0.073349 0.129504 0.420757 0.404427
H17   H     H_    0.872268 0.850208 0.293154 0.390234
H18   H     H_    0.950371 0.995106 0.519584 0.414355
H19   H     H_    0.078861 0.011594 0.657023 0.384526
H20   H     H_    0.268002 0.656478 0.337299 0.168458
H21   H     H_    0.117767 0.652582 0.341791 0.144726
H22   H     H_    0.113213 0.553210 0.197367 0.261835
H23   H     H_    0.501526 0.660779 0.237525 0.205135
H24   H     H_    0.195029 0.674884 0.185686 0.203545
H25   H     H_    0.262741 0.554116 0.190871 0.268699
H26   H     H_    0.884189 0.680035 0.600565 0.186282
H27   H     H_    0.908715 0.634599 0.711504 0.171028
H28   H     H_    0.714592 0.653575 0.759898 0.245496
H29   H     H_    0.780784 0.773862 0.715136 0.245810
H30   H     H_    0.685606 0.695518 0.648121 0.261925
H31   H     H_    0.505527 0.354883 0.774046 0.186296
H32   H     H_    0.636012 0.175603 0.472470 0.241061
H33   H     H_    0.368081 0.824241 0.536187 0.236414
H34   H     H_    0.209573 0.503605 0.658699 0.206344
H35   H     H_    0.788979 0.457041 0.341589 0.216612
H36   H     H_    0.675683 0.254925 0.302060 0.391713
N1    N     N_R   0.207800 0.519350 0.516680 -0.150285
N2    N     N_R   0.792200 0.480650 0.483320 -0.134877
O1    O     O_R   0.421700 0.658830 0.504450 -0.656529
O2    O     O_2   0.572112 0.217637 0.140225 -0.239943
O3    O     O_3   0.657622 0.319830 0.273013 -0.578035
O4    O     O_2   0.377559 0.794737 0.834851 -0.194697
O5    O     O_2   0.492816 0.767956 0.696376 -0.315588
O6    O     O_3   0.302690 0.663111 0.718146 -0.567625
O7    O     O_3   0.529704 0.786262 0.115351 -0.535101
O8    O     O_3   0.396237 0.240607 0.892482 -0.553242
O9    O     O_2   0.629833 0.816062 0.830479 -0.277853
O10   O     O_2   0.519275 0.912357 0.942256 -0.206874
O11   O     O_3   0.704879 0.845484 0.988896 -0.490860
O12   O     O_R   0.578300 0.341170 0.495550 -0.623244
O13   O     O_2   0.375715 0.124444 0.087598 -0.219918
O14   O     O_2   0.283988 0.255063 0.183264 -0.218348
O15   O     O_3   0.204392 0.207329 0.029579 -0.578259
O16   O     O_2   0.181141 0.248563 0.546956 -0.275305
O17   O     O_2   0.259482 0.256755 0.391442 -0.208388
O18   O     O_3   0.138511 0.092400 0.437168 -0.467310
O19   O     O_2   0.817107 0.749013 0.447152 -0.287864
O20   O     O_2   0.681985 0.724632 0.329720 -0.320726
O21   O     O_3   0.814366 0.890266 0.324975 -0.448319
O22   O     O_2   0.819851 0.094103 0.402270 -0.270595
O23   O     O_R   0.609310 0.646410 0.493750 -0.566601
O24   O     O_2   0.784178 0.114584 0.565470 -0.298974
O25   O     O_3   0.881616 0.951853 0.507497 -0.464355
O26   O     O_2   0.171882 0.892619 0.519610 -0.292781
O27   O     O_2   0.261727 0.906413 0.664117 -0.286522
O28   O     O_3   0.139368 0.053309 0.624113 -0.504584
O29   O     O_3   0.191817 0.509253 0.357206 -0.569211
O30   O     O_3   0.808859 0.530620 0.637283 -0.602011
O31   O     O_R   0.390690 0.353590 0.506250 -0.554019
O32   O     O_R   0.406180 0.506230 0.637500 -0.615972
O33   O     O_R   0.593820 0.493770 0.362500 -0.581040
O34   O     O_R   0.593800 0.493820 0.626800 -0.569226
O35   O     O_R   0.406200 0.506180 0.373200 -0.585727
O36   O     O_2   0.459535 0.230188 0.282185 -0.264680
S1    S     S_3+6 0.541370 0.287812 0.218459 0.063481
S2    S     S_3+6 0.416301 0.715312 0.766887 0.076908
S3    S     S_3+6 0.591867 0.822466 0.927803 0.114317
S4    S     S_3+6 0.319685 0.225201 0.088271 0.103158
S5    S     S_3+6 0.231848 0.186586 0.470272 0.120499
S6    S     S_3+6 0.739870 0.803319 0.390523 0.081422
S7    S     S_3+6 0.786673 0.037360 0.488004 0.073673
S8    S     S_3+6 0.228869 0.966443 0.585054 0.037638
Zn1   Zn    Zn3+2 0.374730 0.508290 0.507150 1.042447
Zn2   Zn    Zn3+2 0.625270 0.491710 0.492850 1.068824

loop_
_geom_bond_atom_site_label_1
_geom_bond_atom_site_label_2
_ccdc_geom_bond_type
C25   C31   A    
C44   S7    S    
C26   C32   A    
C16   C21   S    
C35   H7    S    
C39   H22   S    
O18   S5    S    
C3    H33   S    
C19   S2    S    
C32   O8    S    
O14   S4    D    
C3    C43   A    
O21   S6    S    
C36   C37   S    
C19   C21   A    
C24   C26   A    
N1    Zn1   S    
O13   S4    D    
C33   O7    S    
C38   C39   S    
C33   C35   S    
C11   C14   A    
C27   C29   A    
O5    S2    D    
C45   S8    S    
C33   H3    S    
H36   O3    S    
C10   N1    A    
C17   C20   S    
C40   H27   S    
O19   S6    D    
C11   O30   S    
C12   C42   S    
O1    Zn1   S    
C41   H28   S    
C37   H10   S    
C1    C43   S    
C40   O30   S    
O32   Zn1   S    
C38   H20   S    
C44   C46   A    
C22   C25   A    
O17   S5    D    
H17   O21   S    
C22   H23   S    
C17   O33   A    
C12   O31   A    
C8    H12   S    
O10   S3    D    
C36   O8    S    
C7    C15   A    
H2    O6    S    
O6    S2    S    
H15   O15   S    
O23   Zn2   S    
C16   O32   A    
O25   S7    S    
C9    H35   S    
C2    C45   A    
C1    O1    A    
O16   S5    D    
C23   C30   A    
O4    S2    D    
O3    S1    S    
C38   O29   S    
C10   H34   S    
C23   S3    S    
C18   S1    S    
C33   H4    S    
C5    C45   A    
O22   S7    D    
C7    H1    S    
H14   O11   S    
H19   O28   S    
C4    H32   S    
O34   Zn2   S    
C16   O34   A    
C41   H29   S    
O2    S1    D    
C18   C29   A    
O33   Zn2   S    
C37   H13   S    
C1    O23   A    
C4    C6    A    
C40   C41   S    
C20   C22   A    
C31   O7    S    
C13   C15   A    
C35   H5    S    
C8    C14   A    
O27   S8    D    
O36   S1    D    
O12   Zn2   S    
O31   Zn1   S    
O11   S3    S    
C7    C9    A    
C34   S4    S    
C40   H26   S    
C46   S6    S    
O9    S3    D    
C3    C5    A    
C11   N2    A    
C25   C27   A    
C13   N1    A    
C26   C28   A    
C28   C30   A    
C36   H9    S    
C41   H30   S    
C35   H6    S    
C32   C34   A    
H18   O25   S    
C5    C6    A    
C4    C42   A    
C2    C42   A    
C29   C34   A    
N2    Zn2   S    
O35   Zn1   S    
C39   H24   S    
C18   C20   A    
O24   S7    D    
C43   C46   A    
C37   H11   S    
O28   S8    S    
C36   H8    S    
C17   O35   A    
C9    N2    A    
C2    S5    S    
C24   H31   S    
O20   S6    D    
C38   H21   S    
C8    C10   A    
C21   C24   A    
O26   S8    D    
C27   C28   A    
C39   H25   S    
C14   C15   A    
C12   O12   A    
C6    C44   A    
C19   C30   A    
C13   O29   S    
C23   C31   A    
O15   S4    S    
H16   O18   S    
