data_mof_unit_34574.cif
_audit_creation_date              2013-03-05T15:40:17-0500
_audit_creation_method            fapswitch 2.2
_symmetry_space_group_name_H-M    P1
_symmetry_Int_Tables_number       1
_space_group_crystal_system       triclinic
_cell_length_a                    10.760707
_cell_length_b                    8.663898
_cell_length_c                    7.514955
_cell_angle_alpha                 102.471672
_cell_angle_beta                  96.810739
_cell_angle_gamma                 91.984936
_cell_volume                      677.944084869

loop_
_atom_site_label
_atom_site_type_symbol
_atom_site_description
_atom_site_fract_x
_atom_site_fract_y
_atom_site_fract_z
_atom_type_partial_charge
O1    O     O_R   0.509050 0.286130 0.619770 -0.550474
O2    O     O_R   0.485540 0.256780 0.308360 -0.570666
C1    C     C_R   0.500306 0.200337 0.454475 0.911607
O3    O     O_R   0.331410 0.514680 0.655740 -0.611939
O4    O     O_R   0.307900 0.485330 0.344330 -0.596612
C2    C     C_R   0.262713 0.508702 0.499212 0.857526
Cu1   Cu    Cu3+1 0.513920 0.517380 0.684380 1.020799
Cu2   Cu    Cu3+1 0.486080 0.482620 0.315620 1.002933
O5    O     O_R   0.514460 0.743220 0.691640 -0.579998
O6    O     O_R   0.490950 0.713870 0.380230 -0.593061
O7    O     O_R   0.692100 0.514670 0.655670 -0.540712
O8    O     O_R   0.668590 0.485320 0.344260 -0.576458
C3    C     C_R   0.517156 0.798813 0.545542 0.837234
C4    C     C_R   0.737916 0.490652 0.503156 0.811978
H1    H     H_    0.090201 0.332625 0.246010 0.190309
C5    C     C_R   0.138422 0.750271 0.758537 0.160640
C6    C     C_R   0.100621 0.808561 0.932613 -0.029812
C7    C     C_R   0.000023 0.728909 0.983562 -0.203871
H2    H     H_    0.978365 0.758725 0.123669 0.217227
C8    C     C_R   0.928194 0.607671 0.856359 0.240051
C9    C     C_R   0.956190 0.565268 0.672900 0.003509
C10   C     C_R   0.076004 0.612191 0.641442 -0.002884
C11   C     C_R   0.127997 0.517480 0.494644 -0.069046
C12   C     C_R   0.051417 0.407282 0.358581 -0.142023
H3    H     H_    0.864289 0.312034 0.257489 0.199287
C13   C     C_R   0.923908 0.392621 0.366926 -0.113317
C14   C     C_R   0.873814 0.477679 0.518366 -0.052181
C15   C     C_2   0.497444 0.032443 0.432423 -0.299949
H4    H     H_    0.440501 0.963607 0.309789 0.166056
C16   C     C_2   0.547616 0.964466 0.566043 -0.171139
N1    N     N_2   0.465100 0.456430 0.038520 -0.189148
N2    N     N_2   0.534900 0.543570 0.961480 -0.208973
H5    H     H_    0.588468 0.634164 0.052495 0.236243
Br1   Br    Br    0.242781 0.884265 0.657396 -0.513120
C17   C     C_2   0.169414 0.945571 0.065254 0.400541
H6    H     H_    0.254734 0.998814 0.035061 0.135671
O9    O     O_2   0.132055 0.000281 0.211796 -0.541373
Br2   Br    Br    0.836771 0.465942 0.963739 -0.482648
C18   C     C_2   0.643091 0.043111 0.721908 0.469946
H7    H     H_    0.650185 0.004624 0.850739 0.095786
O10   O     O_2   0.719889 0.143533 0.703426 -0.503747
C19   C     C_2   0.394033 0.322795 0.926508 0.744637
H8    H     H_    0.307227 0.335834 0.844061 0.019581
O11   O     O_2   0.425813 0.190005 0.932109 -0.578412

loop_
_geom_bond_atom_site_label_1
_geom_bond_atom_site_label_2
_geom_bond_distance
_ccdc_geom_bond_type
O4    Cu2   1.955082 S    
C11   C12   1.400046 A    
N1    C19   1.413833 S    
C4    C14   1.463379 S    
C8    Br2   1.912949 S    
N1    N2    1.312234 D    
Cu2   O8    1.948925 S    
N2    H5    1.029288 S    
C15   C16   1.339973 D    
O2    C1    1.290744 A    
C9    C14   1.427894 A    
Cu1   Cu2   2.701194 S    
C18   O10   1.220169 D    
C9    C10   1.400316 A    
Cu1   O7    1.955083 S    
C15   H4    1.088037 S    
C13   C14   1.392701 A    
C19   O11   1.219458 D    
O3    Cu1   1.948924 S    
C2    C11   1.450989 S    
Cu2   O6    1.954262 S    
H1    C12   1.083651 S    
C17   O9    1.221389 D    
O8    C4    1.321749 A    
C16   C18   1.487666 S    
C6    C7    1.398328 A    
C7    C8    1.396200 A    
O4    C2    1.292838 A    
O7    C4    1.279889 A    
C19   H8    1.081415 S    
C3    C16   1.432098 S    
C8    C9    1.419130 A    
O3    C2    1.302928 A    
C7    H2    1.083759 S    
C18   H7    1.085365 S    
Cu1   O5    1.945388 S    
O5    C3    1.293537 A    
C10   C11   1.410877 A    
C1    C15   1.426839 S    
C5    C10   1.416370 A    
Cu1   N2    2.029700 S    
C6    C17   1.484489 S    
C5    Br1   1.918262 S    
H3    C13   1.082245 S    
O1    Cu1   1.954264 S    
Cu2   N1    2.029700 S    
O2    Cu2   1.945390 S    
C17   H6    1.082814 S    
C12   C13   1.383643 A    
C5    C6    1.409580 A    
O1    C1    1.293452 A    
O6    C3    1.293105 A    
