data_mof_unit_53261.cif
_audit_creation_date              2012-12-11T15:36:42-0500
_audit_creation_method            fapswitch 2.2
_symmetry_space_group_name_H-M    P1
_symmetry_Int_Tables_number       1
_space_group_crystal_system       triclinic
_cell_length_a                    15.063164
_cell_length_b                    15.052041
_cell_length_c                    34.853207
_cell_angle_alpha                 91.353135
_cell_angle_beta                  91.698862
_cell_angle_gamma                 60.081162
_cell_volume                      6845.82976222

loop_
_atom_site_label
_atom_site_type_symbol
_atom_type_description
_atom_site_fract_x
_atom_site_fract_y
_atom_site_fract_z
_atom_type_partial_charge
C1    C     C_R   0.610529 0.303012 0.443712 0.556235
C2    C     C_R   0.721952 0.675039 0.178908 -0.025451
C3    C     C_R   0.625693 0.124174 0.826697 -0.035834
C4    C     C_R   0.698925 0.143458 0.846050 0.035331
C5    C     C_R   0.721285 0.119452 0.884861 -0.113610
C6    C     C_R   0.571095 0.240027 0.770419 -0.016913
C7    C     C_R   0.573679 0.253721 0.731197 -0.058041
C8    C     C_R   0.610278 0.169496 0.705928 0.021008
C9    C     C_R   0.641161 0.071664 0.720016 -0.077250
C10   C     C_R   0.641377 0.057394 0.759499 -0.038975
C11   C     C_R   0.608589 0.141306 0.784921 0.089923
C12   C     C_R   0.557548 0.176515 0.637217 -0.109198
C13   C     C_R   0.817139 0.641020 0.162585 -0.135944
C14   C     C_R   0.557144 0.207748 0.599746 -0.116260
C15   C     C_R   0.691374 0.246073 0.617716 -0.121989
C16   C     C_R   0.690400 0.216592 0.655226 -0.119609
C17   C     C_R   0.621639 0.184383 0.665337 0.012344
C18   C     C_R   0.621958 0.245712 0.589988 0.025142
C19   C     C_R   0.048002 0.737860 0.047677 0.592149
C20   C     C_R   0.745839 0.744823 0.063329 0.575633
C21   C     C_R   0.750864 0.040845 0.050624 0.545338
C22   C     C_R   0.018017 0.721850 0.939972 0.590651
C23   C     C_R   0.717588 0.730292 0.954658 0.552815
C24   C     C_R   0.823884 0.656710 0.124041 -0.148854
C25   C     C_R   0.721899 0.023476 0.941792 0.545193
C26   C     C_R   0.706599 0.589925 0.236451 -0.081012
C27   C     C_R   0.701791 0.584742 0.276037 -0.128872
C28   C     C_R   0.710064 0.656207 0.300366 -0.005024
C29   C     C_R   0.726611 0.732734 0.284629 0.063150
C30   C     C_R   0.730124 0.737284 0.244558 -0.065849
C31   C     C_R   0.719440 0.666933 0.220667 0.020201
C32   C     C_R   0.601819 0.732813 0.357535 -0.070933
C33   C     C_R   0.593147 0.609923 0.449232 0.542173
C34   C     C_R   0.573065 0.721854 0.394015 -0.117297
C35   C     C_R   0.725756 0.554453 0.399101 -0.117170
C36   C     C_R   0.754147 0.565401 0.362611 -0.094033
C37   C     C_R   0.691003 0.653416 0.341309 0.061441
C38   C     C_R   0.633032 0.630988 0.414576 0.017336
C39   C     C_R   0.112478 0.724285 0.082239 0.009827
C40   C     C_R   0.181700 0.625388 0.096778 0.054271
C41   C     C_R   0.208461 0.615448 0.136029 -0.091913
C42   C     C_R   0.170712 0.702022 0.159999 0.028016
C43   C     C_R   0.116370 0.799883 0.144122 -0.054820
C44   C     C_R   0.304140 0.591463 0.442302 0.579534
C45   C     C_R   0.086816 0.811029 0.105523 -0.106967
C46   C     C_R   0.277920 0.649109 0.218992 -0.135573
C47   C     C_R   0.291067 0.637145 0.258586 -0.104162
C48   C     C_R   0.206724 0.664465 0.281837 0.010362
C49   C     C_R   0.109100 0.703077 0.264979 -0.104377
C50   C     C_R   0.094069 0.715776 0.225045 0.057931
C51   C     C_R   0.180215 0.689474 0.201913 -0.006192
C52   C     C_R   0.177725 0.606725 0.344760 -0.095637
C53   C     C_R   0.195673 0.592177 0.384623 0.064711
C54   C     C_R   0.296606 0.677811 0.382326 -0.150282
C55   C     C_R   0.605687 0.300216 0.553611 0.547357
C56   C     C_R   0.277796 0.691868 0.343124 -0.122463
C57   C     C_R   0.220633 0.654215 0.323861 0.006710
C58   C     C_R   0.259499 0.624863 0.403392 0.007466
C59   C     C_R   0.720798 0.103091 0.086185 -0.002841
C60   C     C_R   0.779681 0.144587 0.101637 -0.104114
C61   C     C_R   0.764621 0.183933 0.139396 0.087554
C62   C     C_R   0.691067 0.177626 0.161937 0.023355
C63   C     C_R   0.625893 0.146008 0.144974 -0.114355
C64   C     C_R   0.640061 0.109753 0.107441 -0.108117
C65   C     C_R   0.598915 0.265923 0.220722 -0.112758
C66   C     C_R   0.587761 0.606967 0.558900 0.548928
C67   C     C_R   0.588346 0.272542 0.260373 -0.088781
C68   C     C_R   0.667044 0.200824 0.284074 0.030356
C69   C     C_R   0.758046 0.124929 0.267847 -0.073167
C70   C     C_R   0.770207 0.116911 0.228009 0.101126
C71   C     C_R   0.688784 0.188402 0.204113 0.031571
C72   C     C_R   0.732096 0.214654 0.348054 -0.151561
C73   C     C_R   0.720076 0.235772 0.386967 -0.141596
C74   C     C_R   0.557942 0.236293 0.384267 0.023946
C75   C     C_R   0.570793 0.213780 0.344272 0.037589
C76   C     C_R   0.656535 0.207966 0.326157 -0.014592
C77   C     C_R   0.297577 0.589623 0.551568 0.553992
C78   C     C_R   0.631138 0.252549 0.405275 -0.014071
C79   C     C_R   0.694724 0.692474 0.918338 0.013844
C80   C     C_R   0.775033 0.610249 0.898678 -0.114272
C81   C     C_R   0.764091 0.594002 0.859746 -0.109970
C82   C     C_R   0.672249 0.658123 0.840085 0.015990
C83   C     C_R   0.588315 0.733069 0.860384 -0.084137
C84   C     C_R   0.599527 0.750487 0.899321 -0.101520
C85   C     C_R   0.597384 0.636769 0.778282 -0.103165
C86   C     C_R   0.594637 0.635263 0.738318 -0.117797
C87   C     C_R   0.661786 0.654143 0.717463 0.025249
C88   C     C_R   0.735223 0.708641 0.101024 -0.018384
C89   C     C_R   0.733033 0.675412 0.737064 0.096693
C90   C     C_R   0.735726 0.674966 0.777370 -0.091940
C91   C     C_R   0.668703 0.655374 0.797937 -0.001644
C92   C     C_R   0.712682 0.556223 0.656981 -0.105797
C93   C     C_R   0.696778 0.543647 0.618195 -0.124188
C94   C     C_R   0.566125 0.722800 0.614717 -0.122117
C95   C     C_R   0.581847 0.737249 0.653798 0.069300
C96   C     C_R   0.654006 0.651234 0.675291 0.036346
C97   C     C_R   0.620662 0.625791 0.597068 -0.006780
C98   C     C_R   0.064093 0.697315 0.901845 -0.016725
C99   C     C_R   0.638288 0.735889 0.116226 0.031197
C100  C     C_R   0.112055 0.748752 0.886705 0.041771
C101  C     C_R   0.130982 0.740094 0.847340 -0.146428
C102  C     C_R   0.106407 0.679029 0.823426 -0.026721
C103  C     C_R   0.064706 0.622161 0.838914 0.060004
C104  C     C_R   0.045026 0.631630 0.878105 -0.145723
C105  C     C_R   0.201465 0.583299 0.765861 -0.070568
C106  C     C_R   0.219487 0.577309 0.726473 0.076654
C107  C     C_R   0.159484 0.665488 0.703763 0.007166
C108  C     C_R   0.087430 0.757737 0.721005 -0.142522
C109  C     C_R   0.071423 0.762524 0.760217 -0.088209
C110  C     C_R   0.631611 0.718813 0.155708 0.049155
C111  C     C_R   0.127097 0.674950 0.782512 0.036251
C112  C     C_R   0.207232 0.723327 0.646137 -0.097591
C113  C     C_R   0.240112 0.705516 0.608454 -0.112396
C114  C     C_R   0.191671 0.574283 0.601605 -0.100815
C115  C     C_R   0.157743 0.593022 0.639208 -0.062925
C116  C     C_R   0.171262 0.663218 0.662168 0.058188
C117  C     C_R   0.237928 0.626795 0.586673 0.027405
C118  C     C_R   0.676982 0.071852 0.904526 -0.033977
C119  C     C_R   0.601792 0.056618 0.885974 -0.133947
C120  C     C_R   0.574354 0.083311 0.847289 0.034916
Cr1   Cr    Cr6+3 0.426010 0.422500 0.497000 1.082153
Cr2   Cr    Cr6+3 0.651300 0.426310 0.501970 1.026419
Cr3   Cr    Cr6+3 0.422670 0.651170 0.501050 1.033871
Cr4   Cr    Cr6+3 0.905130 0.911420 0.992650 1.076510
Cr5   Cr    Cr6+3 0.911860 0.682710 0.002320 1.068580
Cr6   Cr    Cr6+3 0.682710 0.906840 0.004710 1.058778
H1    H     H_    0.501200 0.782000 0.405149 0.138238
H2    H     H_    0.773673 0.483600 0.414241 0.135875
H3    H     H_    0.309840 0.730542 0.327629 0.129035
H4    H     H_    0.255161 0.540124 0.148381 0.149463
H5    H     H_    0.044425 0.723900 0.283237 0.157959
H6    H     H_    0.839937 0.142492 0.084758 0.175622
H7    H     H_    0.536218 0.320644 0.202789 0.126005
H8    H     H_    0.849218 0.563708 0.912446 0.148223
H9    H     H_    0.544714 0.622434 0.793881 0.125060
H10   H     H_    0.042159 0.825588 0.703880 0.122107
H11   H     H_    0.014022 0.833771 0.773081 0.145237
H12   H     H_    0.216868 0.778568 0.663597 0.123093
H13   H     H_    0.779652 0.131129 0.899141 0.184593
H14   H     H_    0.549846 0.329622 0.720629 0.125471
H15   H     H_    0.545669 0.305322 0.789718 0.117326
H16   H     H_    0.669593 0.006082 0.700732 0.144261
H17   H     H_    0.670971 0.980651 0.770378 0.143957
H18   H     H_    0.503945 0.151929 0.644776 0.140734
H19   H     H_    0.502802 0.206862 0.578904 0.134940
O1    O     O_R   0.324990 0.503440 0.453910 -0.451747
O2    O     O_R   0.639980 0.519500 0.542640 -0.498542
O3    O     O_R   0.500750 0.673190 0.545480 -0.512706
O4    O     O_R   0.336260 0.640450 0.538210 -0.502665
O5    O     O_3   0.499990 0.499990 0.500010 -0.257592
O6    O     O_R   0.834210 0.019400 0.034570 -0.512407
O7    O     O_R   0.002210 0.824620 0.031030 -0.495155
O8    O     O_R   0.024400 0.669340 0.039790 -0.479050
O9    O     O_R   0.830490 0.694950 0.045870 -0.500091
O10   O     O_R   0.675430 0.831160 0.051290 -0.484089
O11   O     O_R   0.698870 0.998880 0.039560 -0.500481
O12   O     O_R   0.522030 0.339050 0.458320 -0.472663
O13   O     O_R   0.811290 0.006780 0.950620 -0.506066
O14   O     O_R   0.980960 0.812920 0.953200 -0.464748
O15   O     O_R   0.001480 0.656720 0.955830 -0.511308
O16   O     O_R   0.809240 0.683250 0.968050 -0.504859
O17   O     O_R   0.652500 0.818540 0.967340 -0.504615
O18   O     O_R   0.677620 0.987170 0.961730 -0.499888
O19   O     O_3   0.833240 0.833660 0.999890 -0.268941
O20   O     O_R   0.676180 0.324490 0.458320 -0.521472
O21   O     O_R   0.643570 0.521510 0.464260 -0.502504
O22   O     O_R   0.504630 0.675350 0.460920 -0.517938
O23   O     O_R   0.339850 0.642450 0.459830 -0.512236
O24   O     O_R   0.321120 0.501280 0.538470 -0.507546
O25   O     O_R   0.518440 0.337050 0.536710 -0.496995
O26   O     O_R   0.672300 0.322330 0.542880 -0.516251
C121  C     C_2   0.544999 0.783540 0.091025 0.632345
O27   O     O_2   0.467352 0.859997 0.101784 -0.474092
O28   O     O_R   0.546828 0.741364 0.054673 -0.670323
H20   H     H_    0.479308 0.780789 0.040049 0.347334
H21   H     H_    0.886483 0.605556 0.180222 0.163563
C122  C     C_2   0.225507 0.532127 0.071878 0.592578
O29   O     O_2   0.256770 0.447658 0.085933 -0.512954
O30   O     O_R   0.234020 0.540337 0.032423 -0.661614
H22   H     H_    0.265556 0.471545 0.018642 0.349181
H23   H     H_    0.035433 0.887528 0.094982 0.154830
H24   H     H_    0.367373 0.606004 0.271106 0.120071
H25   H     H_    0.344176 0.627504 0.201563 0.128869
H26   H     H_    0.898647 0.634426 0.112901 0.169553
C123  C     C_2   0.988141 0.755858 0.208945 0.582154
O31   O     O_2   0.914746 0.800428 0.230005 -0.504520
O32   O     O_R   0.971144 0.742566 0.170150 -0.702316
H27   H     H_    0.895703 0.779631 0.162707 0.347682
H28   H     H_    0.131267 0.579904 0.329805 0.154456
C124  C     C_2   0.145276 0.545249 0.405705 0.620851
O33   O     O_2   0.123176 0.486151 0.389103 -0.477906
O34   O     O_R   0.119755 0.571082 0.444202 -0.682466
H29   H     H_    0.085129 0.534617 0.455212 0.343114
H30   H     H_    0.089591 0.867429 0.162213 0.145077
H31   H     H_    0.345762 0.703583 0.395719 0.142275
H32   H     H_    0.592257 0.079885 0.096155 0.156856
C125  C     C_2   0.499050 0.191186 0.321478 0.575596
O35   O     O_2   0.406442 0.247314 0.323693 -0.463074
O36   O     O_R   0.538257 0.106589 0.296517 -0.665882
H33   H     H_    0.482492 0.099544 0.282189 0.355603
H34   H     H_    0.518542 0.333398 0.272601 0.127303
H35   H     H_    0.822933 0.503340 0.350249 0.132812
C126  C     C_2   0.829123 0.226492 0.154807 0.582648
O37   O     O_2   0.804490 0.280285 0.183764 -0.524202
O38   O     O_R   0.917621 0.206616 0.135673 -0.690573
H36   H     H_    0.954701 0.240063 0.148762 0.355279
H37   H     H_    0.818586 0.069963 0.286482 0.155236
C127  C     C_2   0.867933 0.031954 0.213069 0.610467
O39   O     O_2   0.870740 0.992700 0.181693 -0.518871
O40   O     O_R   0.957273 0.995072 0.235767 -0.687582
H38   H     H_    0.019385 0.937481 0.222920 0.333727
H39   H     H_    0.798640 0.208988 0.334537 0.135500
H40   H     H_    0.778348 0.245683 0.402177 0.152056
H41   H     H_    0.568455 0.142293 0.161790 0.142694
C128  C     C_2   0.471835 0.238079 0.404410 0.619881
O41   O     O_2   0.383706 0.305217 0.397576 -0.442448
O42   O     O_R   0.492569 0.165136 0.432507 -0.682971
H42   H     H_    0.428089 0.174964 0.444821 0.338881
H43   H     H_    0.536212 0.814219 0.913668 0.157444
C129  C     C_2   0.519768 0.841596 0.671102 0.570789
O43   O     O_2   0.541619 0.862015 0.702906 -0.511706
O44   O     O_R   0.436443 0.917907 0.650499 -0.714441
H44   H     H_    0.400816 0.985610 0.665004 0.348092
H45   H     H_    0.688435 0.526474 0.287774 0.121643
H46   H     H_    0.539564 0.619666 0.723455 0.125305
H47   H     H_    0.829016 0.535006 0.844436 0.147774
C130  C     C_2   0.802435 0.701863 0.716847 0.608563
O45   O     O_2   0.822110 0.679355 0.683017 -0.514852
O46   O     O_R   0.845511 0.753449 0.736760 -0.689457
H48   H     H_    0.889600 0.768995 0.719879 0.343509
H49   H     H_    0.789408 0.691071 0.793073 0.170119
H50   H     H_    0.767822 0.490289 0.673298 0.126354
H51   H     H_    0.739691 0.467921 0.605429 0.133058
H52   H     H_    0.516750 0.783034 0.845495 0.163102
H53   H     H_    0.508488 0.786582 0.598167 0.177205
C131  C     C_2   0.145868 0.809020 0.911202 0.591106
O47   O     O_2   0.150394 0.880840 0.897630 -0.507012
O48   O     O_R   0.175938 0.781713 0.949464 -0.666656
H54   H     H_    0.197886 0.828199 0.963017 0.343432
H55   H     H_    0.698624 0.535130 0.218082 0.152132
H56   H     H_    0.007598 0.592823 0.889695 0.168169
H57   H     H_    0.128130 0.547572 0.651303 0.139511
C132  C     C_2   0.302768 0.479517 0.710385 0.546488
O49   O     O_2   0.323746 0.397975 0.724934 -0.507903
O50   O     O_R   0.358984 0.480264 0.679282 -0.708893
H58   H     H_    0.411788 0.408833 0.670526 0.336086
H59   H     H_    0.245692 0.516897 0.783839 0.149471
H60   H     H_    0.166535 0.780019 0.835102 0.157428
H61   H     H_    0.274592 0.747820 0.597532 0.141025
C133  C     C_2   0.035761 0.556466 0.815213 0.567650
O51   O     O_2   0.013016 0.573981 0.781180 -0.489745
O52   O     O_R   0.032426 0.475048 0.832288 -0.710401
H62   H     H_    0.011238 0.436265 0.813471 0.342950
C134  C     C_2   0.531541 0.745390 0.172560 0.603390
O53   O     O_2   0.505420 0.793056 0.202909 -0.502640
O54   O     O_R   0.467355 0.715413 0.153658 -0.668842
H63   H     H_    0.401131 0.738805 0.167665 0.338090
H64   H     H_    0.187756 0.514333 0.585157 0.136201
H65   H     H_    0.566849 0.020535 0.901345 0.170099
H66   H     H_    0.740340 0.222873 0.676797 0.130602
C135  C     C_2   0.493083 0.066300 0.829204 0.582710
O55   O     O_2   0.476001 0.001478 0.842062 -0.528246
O56   O     O_R   0.434206 0.125632 0.798124 -0.665194
H67   H     H_    0.381630 0.106526 0.788566 0.359044
C136  C     C_2   0.742502 0.807031 0.308692 0.587912
O57   O     O_2   0.764979 0.791321 0.342821 -0.495633
O58   O     O_R   0.734498 0.894363 0.291924 -0.644979
H68   H     H_    0.748122 0.938379 0.310967 0.359190
C137  C     C_2   0.759626 0.181774 0.826471 0.565153
O59   O     O_2   0.788525 0.154527 0.793650 -0.524623
O60   O     O_R   0.787220 0.246425 0.846393 -0.691952
H69   H     H_    0.829194 0.266774 0.830358 0.347398
H70   H     H_    0.741486 0.275764 0.611164 0.128709
H71   H     H_    0.740787 0.795889 0.231579 0.198622
H72   H     H_    0.551823 0.800739 0.341120 0.135942

loop_
_geom_bond_atom_site_label_1
_geom_bond_atom_site_label_2
_ccdc_geom_bond_type
C8    C9    A    
C15   C18   A    
Cr1   O24   S    
C126  O37   D    
Cr3   O4    S    
C101  C102  A    
Cr2   O21   S    
C20   O10   A    
C93   C97   A    
C74   C128  S    
C24   H26   S    
C29   C136  S    
C41   C42   A    
C14   C18   A    
C119  H65   S    
C95   C96   A    
C106  C132  S    
C72   C76   A    
Cr4   O19   S    
C25   C118  S    
C60   H6    S    
C129  O44   S    
C114  C115  A    
C85   C91   A    
Cr5   O15   S    
C45   H23   S    
C7    C8    A    
C33   O22   A    
O38   H36   S    
C131  O47   D    
C12   H18   S    
C126  O38   S    
C14   H19   S    
C130  O45   D    
C27   H45   S    
C29   C30   A    
C20   O9    A    
C43   H30   S    
C22   C98   S    
Cr2   O5    S    
C66   C97   S    
C27   C28   A    
C28   C29   A    
C121  O27   D    
C25   O18   A    
C21   C59   S    
C77   C117  S    
C69   C70   A    
C128  O42   S    
C54   C58   A    
C135  O55   D    
C16   H66   S    
C98   C104  A    
C94   H53   S    
C123  O32   S    
C106  C107  A    
C92   H50   S    
C133  O52   S    
C15   C16   A    
Cr4   O14   S    
C20   C88   S    
C92   C96   A    
C113  H61   S    
Cr1   O5    S    
C109  H11   S    
C44   O23   A    
C15   H70   S    
C2    C13   A    
C118  C119  A    
C105  H59   S    
C134  O54   S    
C103  C104  A    
C132  O49   D    
C95   C129  S    
O48   H54   S    
C13   H21   S    
O36   H33   S    
C50   C123  S    
C2    C110  A    
C35   C36   A    
C42   C43   A    
C44   C58   S    
C16   C17   A    
C122  O30   S    
Cr4   O13   S    
C12   C17   A    
C44   O1    A    
C107  C108  A    
C70   C71   A    
C108  C109  A    
C53   C124  S    
C52   H28   S    
C55   O25   A    
C66   O3    A    
C61   C62   A    
C120  C135  S    
Cr6   O18   S    
C42   C51   S    
C39   C45   A    
C23   O17   A    
Cr3   O22   S    
Cr6   O10   S    
Cr1   O25   S    
C105  C111  A    
Cr3   O5    S    
C59   C60   A    
C63   H41   S    
Cr2   O20   S    
Cr1   O12   S    
C137  O59   D    
C87   C96   S    
C1    C78   S    
C73   H40   S    
C102  C111  S    
C102  C103  A    
C36   H35   S    
C89   C130  S    
C47   H24   S    
Cr6   O19   S    
C9    C10   A    
C55   O26   A    
C129  O43   D    
O46   H48   S    
Cr5   O8    S    
C5    H13   S    
C75   C125  S    
C114  C117  A    
C54   C56   A    
C69   H37   S    
C66   O2    A    
C81   H47   S    
C72   H39   S    
C67   C68   A    
C80   C81   A    
C47   C48   A    
C112  H12   S    
O56   H67   S    
C35   C38   A    
C132  O50   S    
C74   C75   A    
C77   O4    A    
C6    C11   A    
C135  O56   S    
C86   C87   A    
C34   H1    S    
C99   C121  S    
C94   C97   A    
C65   C67   A    
O42   H42   S    
C85   C86   A    
C73   C78   A    
C46   C51   A    
C82   C83   A    
C81   C82   A    
C82   C91   S    
C79   C80   A    
C13   C24   A    
C60   C61   A    
C6    H15   S    
C32   C34   A    
C46   H25   S    
C75   C76   A    
C124  O33   D    
C134  O53   D    
C67   H34   S    
C84   H43   S    
C115  H57   S    
C49   H5    S    
C80   H8    S    
C83   C84   A    
C83   H52   S    
C1    O20   A    
C30   C31   A    
C53   C58   A    
O54   H63   S    
C62   C63   A    
C19   O7    A    
C26   C27   A    
C119  C120  A    
C94   C95   A    
C50   C51   A    
C32   C37   A    
C125  O36   S    
C43   C45   A    
C114  H64   S    
C127  O39   D    
C104  H56   S    
C19   C39   S    
C18   C55   S    
C85   H9    S    
C113  C117  A    
C35   H2    S    
C127  O40   S    
C40   C41   A    
C130  O46   S    
Cr4   O6    S    
C12   C14   A    
O40   H38   S    
C98   C100  A    
C137  O60   S    
C19   O8    A    
C90   H49   S    
C100  C131  S    
Cr5   O19   S    
C56   C57   A    
Cr3   O23   S    
C90   C91   A    
C3    C4    A    
C40   C122  S    
C112  C116  A    
Cr5   O9    S    
C33   O21   A    
C136  O57   D    
C4    C137  S    
Cr2   O26   S    
C46   C47   A    
C36   C37   A    
C124  O34   S    
C54   H31   S    
C34   C38   A    
C103  C133  S    
C24   C88   A    
Cr5   O16   S    
C3    C120  A    
C56   H3    S    
O50   H58   S    
C72   C73   A    
C52   C57   A    
C9    H16   S    
C30   H71   S    
C6    C7    A    
O30   H22   S    
C68   C76   S    
C105  C106  A    
C5    C118  A    
C123  O31   D    
C8    C17   S    
C108  H10   S    
C41   H4    S    
Cr2   O2    S    
O58   H68   S    
C93   H51   S    
O34   H29   S    
C109  C111  A    
C133  O51   D    
O32   H27   S    
C59   C64   A    
C136  O58   S    
C65   C71   A    
C22   O14   A    
C61   C126  S    
C99   C110  A    
C115  C116  A    
C79   C84   A    
C22   O15   A    
C28   C37   S    
C110  C134  S    
C48   C49   A    
C4    C5    A    
C64   H32   S    
C1    O12   A    
C92   C93   A    
C121  O28   S    
C21   O11   A    
C131  O48   S    
C62   C71   S    
C112  C113  A    
C10   H17   S    
C21   O6    A    
C128  O41   D    
Cr4   O7    S    
C125  O35   D    
C68   C69   A    
C107  C116  S    
C88   C99   A    
C3    C11   S    
C10   C11   A    
C122  O29   D    
C63   C64   A    
C39   C40   A    
C86   H46   S    
C26   H55   S    
C7    H14   S    
C26   C31   A    
C48   C57   S    
Cr3   O3    S    
C77   O24   A    
C49   C50   A    
C74   C78   A    
C25   O13   A    
C32   H72   S    
C87   C89   A    
Cr1   O1    S    
C2    C31   S    
C33   C38   S    
C100  C101  A    
C23   C79   S    
C89   C90   A    
Cr6   O17   S    
C101  H60   S    
C70   C127  S    
O44   H44   S    
C65   H7    S    
O60   H69   S    
C52   C53   A    
O52   H62   S    
C23   O16   A    
O28   H20   S    
Cr6   O11   S    
