data_mof_unit_38058.cif
_audit_creation_date              2013-03-05T15:52:20-0500
_audit_creation_method            fapswitch 2.2
_symmetry_space_group_name_H-M    P1
_symmetry_Int_Tables_number       1
_space_group_crystal_system       triclinic
_cell_length_a                    10.646762
_cell_length_b                    10.672242
_cell_length_c                    16.99359
_cell_angle_alpha                 80.953589
_cell_angle_beta                  99.390331
_cell_angle_gamma                 118.189513
_cell_volume                      1671.91544809

loop_
_atom_site_label
_atom_site_type_symbol
_atom_site_description
_atom_site_fract_x
_atom_site_fract_y
_atom_site_fract_z
_atom_type_partial_charge
O1    O     O_R   0.754020 0.497590 0.609930 -0.436844
O2    O     O_R   0.481420 0.271390 0.600630 -0.515470
C1    C     C_R   0.361153 0.228500 0.627345 0.525725
O3    O     O_R   0.263810 0.254550 0.589590 -0.469815
O4    O     O_R   0.300820 0.531200 0.560890 -0.459141
C2    C     C_R   0.369798 0.654923 0.585950 0.526218
O5    O     O_R   0.491480 0.744020 0.564270 -0.520731
O6    O     O_R   0.726290 0.693800 0.583010 -0.492812
C3    C     C_R   0.720172 0.587641 0.633187 0.541166
O7    O     O_R   0.747830 0.500190 0.434090 -0.430326
O8    O     O_R   0.475680 0.273800 0.437630 -0.460693
C4    C     C_R   0.348554 0.221154 0.401186 0.546737
O9    O     O_R   0.257620 0.257160 0.413750 -0.506275
O10   O     O_R   0.295080 0.533620 0.397890 -0.431785
C5    C     C_R   0.365421 0.653896 0.360812 0.569236
O11   O     O_R   0.485280 0.746620 0.388440 -0.519802
O12   O     O_R   0.720550 0.696220 0.420010 -0.513991
C6    C     C_R   0.775033 0.623926 0.401288 0.572010
Cr1   Cr    Cr6+3 0.608440 0.389080 0.519680 1.145175
Cr2   Cr    Cr6+3 0.288640 0.400090 0.490760 1.150346
Cr3   Cr    Cr6+3 0.602940 0.710800 0.489510 1.058936
O13   O     O_3   0.500010 0.499990 0.499980 -0.314207
C7    C     C_R   0.280176 0.735162 0.799067 -0.037384
C8    C     C_R   0.186743 0.607384 0.765069 -0.008694
C9    C     C_R   0.204632 0.585252 0.690410 0.054395
C10   C     C_R   0.387759 0.829155 0.673840 -0.143414
C11   C     C_R   0.371184 0.850716 0.749791 -0.153204
C12   C     C_3   0.150255 0.456417 0.797326 0.126131
C13   C     C_3   0.170298 0.432583 0.715244 0.293001
C14   C     C_R   0.314754 0.691188 0.647390 -0.023287
H1    H     H_    0.468714 0.916402 0.640121 0.168601
H2    H     H_    0.438029 0.954103 0.772331 0.160186
H3    H     H_    0.230329 0.447081 0.845772 0.077892
H4    H     H_    0.262242 0.410271 0.715504 0.069874
C15   C     C_1   0.772247 0.630356 0.712240 0.005904
C16   C     C_1   0.818671 0.669019 0.778137 -0.003209
C17   C     C_1   0.345375 0.186973 0.709729 -0.033150
C18   C     C_1   0.320656 0.159541 0.778162 -0.039722
C19   C     C_1   0.336519 0.663479 0.277656 -0.038895
C20   C     C_1   0.324648 0.673392 0.206797 -0.063001
C21   C     C_R   0.877291 0.690426 0.168668 0.028975
C22   C     C_R   0.937310 0.620149 0.226663 -0.064912
C23   C     C_R   0.916456 0.606824 0.305463 0.050596
C24   C     C_R   0.818182 0.773787 0.273957 -0.152707
C25   C     C_R   0.830669 0.779262 0.193126 -0.150558
C26   C     C_3   0.931890 0.476625 0.230764 -0.189669
C27   C     C_3   0.902678 0.458156 0.317304 0.539554
C28   C     C_R   0.845902 0.674087 0.329408 0.010783
H5    H     H_    0.770153 0.834185 0.290640 0.154236
H6    H     H_    0.796402 0.845810 0.149780 0.134817
H7    H     H_    0.037179 0.483966 0.224297 0.134364
H8    H     H_    0.841197 0.402834 0.191359 0.153912
C29   C     C_R   0.257428 0.048659 0.180371 0.004489
C30   C     C_R   0.154644 0.068297 0.210910 0.013813
C31   C     C_R   0.177147 0.107405 0.287023 0.019390
C32   C     C_R   0.390386 0.077078 0.313228 -0.093545
C33   C     C_R   0.367809 0.037488 0.234840 -0.129710
C34   C     C_3   0.081535 0.158805 0.178626 -0.257149
C35   C     C_3   0.105041 0.201050 0.262587 -0.244357
C36   C     C_R   0.304380 0.130018 0.335768 0.020717
H9    H     H_    0.481491 0.078874 0.352682 0.199530
H10   H     H_    0.442836 0.009982 0.215370 0.155784
H11   H     H_    0.966708 0.094836 0.157820 0.142065
H12   H     H_    0.143340 0.250322 0.136016 0.175932
H13   H     H_    0.179061 0.316497 0.267113 0.166352
H14   H     H_    0.003741 0.159862 0.290575 0.173613
O14   O     O_R   0.163320 0.092900 0.874450 -0.464252
O15   O     O_R   0.934650 0.822080 0.882840 -0.485538
C37   C     C_R   0.885060 0.698893 0.857246 0.547038
O16   O     O_R   0.915520 0.604140 0.893670 -0.471078
O17   O     O_R   0.191760 0.638110 0.923230 -0.474948
C38   C     C_R   0.281852 0.750141 0.882983 0.559013
O18   O     O_R   0.406180 0.826930 0.920660 -0.499078
O19   O     O_R   0.358620 0.062870 0.901950 -0.509902
C39   C     C_R   0.284422 0.114590 0.857763 0.547430
O20   O     O_R   0.163910 0.085460 0.050210 -0.500414
O21   O     O_R   0.935200 0.815170 0.045770 -0.520000
C40   C     C_R   0.895210 0.695012 0.086594 0.546123
O22   O     O_R   0.916120 0.596690 0.069430 -0.516452
O23   O     O_R   0.192310 0.631200 0.086170 -0.503684
C41   C     C_R   0.313407 0.700949 0.123650 0.544362
O24   O     O_R   0.406770 0.819480 0.096420 -0.518377
O25   O     O_R   0.359170 0.055960 0.064880 -0.491879
C42   C     C_R   0.245363 0.036846 0.094780 0.561132
Cr4   Cr    Cr6+3 0.052530 0.947560 0.964210 1.077193
Cr5   Cr    Cr6+3 0.059970 0.626800 0.992920 1.069861
Cr6   Cr    Cr6+3 0.373320 0.938440 0.995370 1.040564
O26   O     O_3   0.161940 0.837600 0.984160 -0.320613
N1    N     N_R   0.759408 0.344407 0.330883 0.100894
O27   O     O_R   0.647289 0.345905 0.287548 -0.403494
O28   O     O_R   0.743814 0.239391 0.385512 -0.302287
F1    F     F_    0.008936 0.446114 0.371841 -0.604321
N2    N     N_R   0.002560 0.375462 0.818090 0.146663
O29   O     O_R   0.976061 0.293003 0.884698 -0.326513
O30   O     O_R   0.897809 0.388700 0.772522 -0.260604
F2    F     F_    0.045502 0.340232 0.673338 -0.538832

loop_
_geom_bond_atom_site_label_1
_geom_bond_atom_site_label_2
_geom_bond_distance
_ccdc_geom_bond_type
C24   H5    1.083287 S    
O25   Cr6   1.921842 S    
Cr6   O26   1.973731 S    
N2    O29   1.300639 A    
C31   C35   1.500311 S    
C21   C22   1.398925 A    
C15   C16   1.200246 T    
O20   C42   1.296941 A    
C41   O24   1.257147 A    
C33   H10   1.082611 S    
O4    Cr2   1.922890 S    
O21   C40   1.267979 A    
C16   C37   1.421378 S    
O8    Cr1   1.925884 S    
C10   C11   1.398576 A    
O11   Cr3   2.051635 S    
C29   C42   1.459239 S    
C12   C13   1.521809 S    
C35   H14   1.111912 S    
C22   C26   1.496194 S    
O4    C2    1.273886 A    
O23   C41   1.263505 A    
Cr5   O26   1.975318 S    
C5    O11   1.259230 A    
C26   H8    1.112371 S    
C34   H11   1.109958 S    
C32   C33   1.409733 A    
C27   F1    1.383131 S    
O18   Cr6   2.040571 S    
O23   Cr5   1.931551 S    
C30   C31   1.370672 A    
O15   C37   1.282731 A    
C7    C8    1.400558 A    
C7    C11   1.404268 A    
O19   Cr6   1.939214 S    
N1    O28   1.301077 A    
C23   C28   1.395063 A    
O2    Cr1   1.938489 S    
O21   Cr4   1.938914 S    
C10   H1    1.083221 S    
N2    O30   1.302326 A    
C31   C36   1.402586 A    
C34   H12   1.112265 S    
O15   Cr4   1.925783 S    
C27   N1    1.459782 S    
C7    C38   1.456065 S    
O12   C6    1.262223 A    
C18   C39   1.414269 S    
C9    C13   1.495933 S    
O14   Cr4   2.058755 S    
O1    Cr1   2.045141 S    
O19   C39   1.257230 A    
O10   Cr2   1.939574 S    
Cr1   O13   1.971319 S    
O1    C3    1.304921 A    
C8    C9    1.384664 A    
C19   C20   1.183250 T    
C29   C33   1.412370 A    
C40   O22   1.254529 A    
O6    C3    1.288218 A    
C34   C35   1.510251 S    
O5    Cr3   2.044268 S    
C26   H7    1.108758 S    
O12   Cr3   1.926517 S    
C32   C36   1.405596 A    
C12   N2    1.464670 S    
O3    Cr2   2.059051 S    
C17   C18   1.194721 T    
O17   Cr5   1.929553 S    
O25   C42   1.304885 A    
O7    Cr1   2.055097 S    
O6    Cr3   1.932811 S    
C5    C19   1.394428 S    
C2    C14   1.457525 S    
Cr2   O13   1.973891 S    
C12   H3    1.113526 S    
C10   C14   1.409624 A    
O24   Cr6   2.056564 S    
O14   C39   1.270076 A    
C22   C23   1.367479 A    
C1    O3    1.249867 A    
O16   Cr5   2.049099 S    
C21   C40   1.428509 S    
C24   C25   1.391011 A    
C30   C34   1.498059 S    
Cr4   O26   1.971425 S    
C9    C14   1.398113 A    
C26   C27   1.516085 S    
O9    Cr2   2.039426 S    
C11   H2    1.082910 S    
O10   C5    1.263706 A    
C20   C41   1.394517 S    
C8    C12   1.499209 S    
C38   O18   1.302791 A    
C6    C28   1.435780 S    
C13   F2    1.385149 S    
O8    C4    1.283966 A    
C29   C30   1.395346 A    
C2    O5    1.264912 A    
O2    C1    1.275063 A    
O17   C38   1.300289 A    
C35   H13   1.112503 S    
C25   H6    1.082911 S    
O7    C6    1.264237 A    
C13   H4    1.110604 S    
C37   O16   1.248344 A    
C4    C36   1.462972 S    
C4    O9    1.255099 A    
C1    C17   1.412772 S    
C3    C15   1.425010 S    
C21   C25   1.397792 A    
C32   H9    1.079349 S    
N1    O27   1.301904 A    
Cr3   O13   1.975511 S    
C23   C27   1.506226 S    
O20   Cr4   2.042047 S    
O22   Cr5   2.047625 S    
C24   C28   1.413447 A    
