data_mof_unit_59151.cif
_audit_creation_date              2012-12-10T19:49:59-0500
_audit_creation_method            fapswitch 2.2
_symmetry_space_group_name_H-M    P1
_symmetry_Int_Tables_number       1
_space_group_crystal_system       triclinic
_cell_length_a                    14.243665
_cell_length_b                    14.975232
_cell_length_c                    15.44003
_cell_angle_alpha                 90.381004
_cell_angle_beta                  66.556227
_cell_angle_gamma                 87.485149
_cell_volume                      3017.5714412

loop_
_atom_site_label
_atom_site_type_symbol
_atom_type_description
_atom_site_fract_x
_atom_site_fract_y
_atom_site_fract_z
_atom_type_partial_charge
C1    C     C_R   0.498596 0.671607 0.498781 0.959274
C2    C     C_R   0.593822 0.178227 0.496655 0.357722
C3    C     C_R   0.496712 0.766467 0.493172 -0.167163
C4    C     C_R   0.507539 0.229711 0.497008 -0.198145
C5    C     C_R   0.504519 0.815269 0.566753 -0.203945
C6    C     C_R   0.424653 0.187068 0.490655 -0.243152
C7    C     C_R   0.507814 0.906731 0.561922 -0.150173
C8    C     C_R   0.426539 0.095416 0.483595 -0.151306
C9    C     C_R   0.507329 0.949094 0.481770 -0.009369
C10   C     C_R   0.512437 0.044973 0.479870 0.012797
C11   C     C_R   0.860509 0.536447 0.574741 -0.283453
C12   C     C_R   0.501935 0.327122 0.500546 0.939890
C13   C     C_R   0.115076 0.415745 0.492325 -0.293064
C14   C     C_R   0.764197 0.542792 0.570053 -0.042583
C15   C     C_R   0.216247 0.421050 0.485041 -0.013813
C16   C     C_R   0.435021 0.502334 0.676703 0.905141
C17   C     C_R   0.564670 0.500750 0.322802 0.950840
C18   C     C_R   0.824848 0.447818 0.434211 0.509555
C19   C     C_R   0.187525 0.575359 0.523738 0.484309
C20   C     C_R   0.924822 0.441473 0.434250 -0.147844
C21   C     C_R   0.089598 0.575038 0.520361 -0.159663
C22   C     C_R   0.944653 0.489657 0.504351 0.056488
C23   C     C_R   0.372345 0.529715 0.110657 -0.133616
C24   C     C_R   0.050815 0.493386 0.505602 0.040384
C25   C     C_R   0.390887 0.511900 0.779936 -0.166240
C26   C     C_R   0.605013 0.510491 0.219342 -0.142689
C27   C     C_R   0.261030 0.489575 0.936497 -0.233526
C28   C     C_R   0.726355 0.562483 0.069241 -0.221880
C29   C     C_R   0.294243 0.480210 0.838290 -0.052545
C30   C     C_R   0.700837 0.546839 0.165143 -0.036491
C31   C     C_R   0.448471 0.555121 0.821330 0.282463
C32   C     C_R   0.538875 0.490804 0.174820 0.306038
C33   C     C_R   0.428618 0.541042 0.916309 0.032941
C34   C     C_R   0.609094 0.557912 0.895328 -0.145006
C35   C     C_R   0.554809 0.527081 0.086691 0.026823
C36   C     C_R   0.329107 0.516513 0.975640 0.123146
C37   C     C_R   0.653996 0.553708 0.030140 0.120106
C38   C     C_R   0.504852 0.546829 0.953391 0.086847
C39   C     C_R   0.477155 0.533335 0.051060 0.097586
C40   C     C_R   0.004367 0.379910 0.365202 0.137122
C41   C     C_R   0.095712 0.411858 0.298717 -0.155877
C42   C     C_R   0.172895 0.351610 0.239511 -0.119019
C43   C     C_R   0.158664 0.259835 0.244611 -0.085586
C44   C     C_R   0.067690 0.227673 0.309770 -0.127185
C45   C     C_R   0.299549 0.519007 0.073048 -0.230917
C46   C     C_R   0.991178 0.287254 0.370309 -0.080513
C47   C     C_R   0.032763 0.661537 0.525072 0.170592
C48   C     C_R   0.034142 0.698839 0.441625 -0.116015
C49   C     C_R   0.979262 0.779396 0.444836 -0.133080
C50   C     C_R   0.923926 0.823793 0.531417 -0.070143
C51   C     C_R   0.924316 0.788119 0.614742 -0.117908
C52   C     C_R   0.979111 0.707512 0.611700 -0.111131
C53   C     C_R   0.778224 0.566997 0.202982 0.149882
C54   C     C_R   0.759235 0.635647 0.271199 -0.064780
C55   C     C_R   0.835523 0.657456 0.302018 -0.121382
C56   C     C_R   0.680911 0.567403 0.934243 -0.199285
C57   C     C_R   0.931827 0.612536 0.263101 -0.138247
C58   C     C_R   0.951980 0.545451 0.193961 -0.113522
C59   C     C_R   0.875624 0.522760 0.163816 -0.088768
C60   C     C_R   0.226012 0.439502 0.799372 0.153299
C61   C     C_R   0.132626 0.483756 0.810908 -0.123903
C62   C     C_R   0.069510 0.446802 0.771604 -0.138713
C63   C     C_R   0.098780 0.365209 0.721378 -0.104724
C64   C     C_R   0.191300 0.320493 0.710162 -0.127893
C65   C     C_R   0.254708 0.357253 0.749238 -0.111648
C66   C     C_R   0.498813 0.900564 0.407190 0.384040
C67   C     C_R   0.597164 0.085548 0.484806 0.365221
C68   C     C_R   0.491893 0.808082 0.413633 0.300838
Cl1   Cl    Cl    0.798884 0.386598 0.349162 -0.553591
Cl2   Cl    Cl    0.219410 0.673492 0.566872 -0.575933
Cl3   Cl    Cl    0.455584 0.401089 0.216950 -0.629936
Cl4   Cl    Cl    0.517102 0.648672 0.764098 -0.680106
Cl5   Cl    Cl    0.501020 0.954541 0.304949 -0.497671
Cl6   Cl    Cl    0.707764 0.020125 0.475401 -0.570369
Cl7   Cl    Cl    0.481537 0.744644 0.320993 -0.564227
Cl8   Cl    Cl    0.696260 0.225176 0.515629 -0.533506
H1    H     H_    0.220581 0.510558 0.119937 0.131105
H2    H     H_    0.637449 0.558241 0.819408 0.187485
H3    H     H_    0.507648 0.782489 0.627916 0.221289
H4    H     H_    0.357203 0.224268 0.491938 0.179131
H5    H     H_    0.512331 0.944718 0.620038 0.189289
H6    H     H_    0.360404 0.063492 0.481916 0.185983
H7    H     H_    0.108112 0.482815 0.294777 0.122543
H8    H     H_    0.244563 0.375423 0.190380 0.180201
H9    H     H_    0.218559 0.213594 0.198597 0.162772
H10   H     H_    0.056995 0.156483 0.314286 0.166835
H11   H     H_    0.922287 0.261145 0.422335 0.205764
H12   H     H_    0.758923 0.581278 0.888354 0.138690
H13   H     H_    0.078737 0.665697 0.374340 0.119236
H14   H     H_    0.979921 0.807529 0.380218 0.154172
H15   H     H_    0.881337 0.886100 0.533868 0.183350
H16   H     H_    0.882000 0.822820 0.681683 0.155136
H17   H     H_    0.978503 0.680094 0.676658 0.136816
H18   H     H_    0.685788 0.672293 0.300096 0.152069
H19   H     H_    0.820358 0.709770 0.355271 0.153333
H20   H     H_    0.991215 0.629989 0.285760 0.123092
H21   H     H_    0.026787 0.511152 0.163503 0.127298
H22   H     H_    0.892393 0.470888 0.109761 0.141422
H23   H     H_    0.868533 0.567552 0.634536 0.156156
H24   H     H_    0.109514 0.547313 0.849149 0.139750
H25   H     H_    0.998074 0.481539 0.779819 0.128836
H26   H     H_    0.049929 0.336785 0.690868 0.140289
H27   H     H_    0.214041 0.257500 0.670919 0.130556
H28   H     H_    0.326520 0.322299 0.739628 0.113685
H29   H     H_    0.088138 0.350604 0.486288 0.170224
H30   H     H_    0.702014 0.580608 0.624029 0.201813
H31   H     H_    0.264347 0.360481 0.470354 0.165805
H32   H     H_    0.185374 0.469271 0.982093 0.146140
H33   H     H_    0.801586 0.585333 0.025880 0.144838
H34   H     H_    0.346085 0.533211 0.186709 0.192615
N1    N     N_R   0.747530 0.500020 0.500000 -0.122452
N2    N     N_R   0.252470 0.499980 0.500000 -0.117272
O1    O     O_R   0.420530 0.630930 0.499990 -0.525861
O2    O     O_R   0.579470 0.369070 0.500010 -0.527653
O3    O     O_R   0.579480 0.630940 0.499990 -0.631858
O4    O     O_R   0.420520 0.369060 0.500010 -0.647009
O5    O     O_R   0.375120 0.499990 0.632240 -0.599591
O6    O     O_R   0.624880 0.500010 0.367760 -0.586357
O7    O     O_R   0.534080 0.500000 0.632240 -0.591725
O8    O     O_R   0.465920 0.500000 0.367760 -0.554778
Zn1   Zn    Zn3+2 0.393860 0.499990 0.500000 1.045366
Zn2   Zn    Zn3+2 0.606140 0.500010 0.500000 1.039371

loop_
_geom_bond_atom_site_label_1
_geom_bond_atom_site_label_2
_ccdc_geom_bond_type
C25   C31   A    
C64   H27   S    
C66   C68   A    
C34   C56   A    
C23   C45   A    
C27   C29   A    
C41   C42   A    
C2    C4    A    
C3    C68   A    
C49   H14   S    
C53   C59   A    
C53   C54   A    
C68   Cl7   S    
C26   C32   A    
C8    H6    S    
C17   C26   S    
C27   H32   S    
C19   C21   A    
C38   C39   A    
C20   C40   S    
C11   C14   A    
C23   C39   A    
C56   H12   S    
C41   H7    S    
C33   C36   A    
C11   H23   S    
O6    Zn2   S    
C15   H31   S    
O5    Zn1   S    
C9    C66   A    
C17   O8    A    
C37   C56   A    
C57   H20   S    
C31   C33   A    
C5    H3    S    
C9    C10   S    
C62   H25   S    
C18   Cl1   S    
O3    Zn2   S    
N1    Zn2   S    
C58   H21   S    
C1    O1    A    
C63   H26   S    
C44   H10   S    
C44   C46   A    
C32   Cl3   S    
C12   O2    A    
C25   C29   A    
C14   N1    A    
C30   C53   S    
O4    Zn1   S    
C51   C52   A    
C43   H9    S    
C32   C35   A    
C52   H17   S    
C42   H8    S    
C18   N1    A    
C55   H19   S    
C13   H29   S    
C2    C67   A    
C16   O7    A    
C5    C7    A    
C6    C8    A    
C58   C59   A    
C19   N2    A    
C66   Cl5   S    
C13   C24   A    
C60   C61   A    
C1    C3    S    
C35   C39   A    
C43   C44   A    
C62   C63   A    
C51   H16   S    
C6    H4    S    
C47   C48   A    
C29   C60   S    
C50   C51   A    
C36   C45   A    
C67   Cl6   S    
C17   O6    A    
C4    C6    A    
C31   Cl4   S    
C7    H5    S    
C20   C22   A    
C60   C65   A    
C26   C30   A    
C48   H13   S    
C55   C57   A    
C28   H33   S    
C22   C24   S    
C61   H24   S    
C4    C12   S    
C42   C43   A    
C40   C46   A    
C2    Cl8   S    
O8    Zn1   S    
C46   H11   S    
O7    Zn2   S    
C16   C25   S    
C7    C9    A    
C23   H34   S    
C54   C55   A    
C40   C41   A    
C35   C37   A    
C34   C38   A    
C15   N2    A    
C3    C5    A    
C47   C52   A    
C27   C36   A    
C11   C22   A    
C33   C38   A    
C64   C65   A    
C13   C15   A    
N2    Zn1   S    
C10   C67   A    
C16   O5    A    
C34   H2    S    
C57   C58   A    
C28   C37   A    
C48   C49   A    
C28   C30   A    
C18   C20   A    
C61   C62   A    
C54   H18   S    
C63   C64   A    
O2    Zn2   S    
C50   H15   S    
C14   H30   S    
O1    Zn1   S    
C8    C10   A    
C49   C50   A    
C21   C24   A    
C59   H22   S    
C19   Cl2   S    
C45   H1    S    
C1    O3    A    
C65   H28   S    
C21   C47   S    
C12   O4    A    
