data_mof_unit_43942.cif
_audit_creation_date              2012-12-10T17:31:26-0500
_audit_creation_method            fapswitch 2.2
_symmetry_space_group_name_H-M    P1
_symmetry_Int_Tables_number       1
_space_group_crystal_system       triclinic
_cell_length_a                    19.058498
_cell_length_b                    18.506881
_cell_length_c                    12.323555
_cell_angle_alpha                 90.238971
_cell_angle_beta                  129.009522
_cell_angle_gamma                 89.165521
_cell_volume                      3377.12398698

loop_
_atom_site_label
_atom_site_type_symbol
_atom_type_description
_atom_site_fract_x
_atom_site_fract_y
_atom_site_fract_z
_atom_type_partial_charge
C1    C     C_R   0.614627 0.899728 0.656052 0.800728
C2    C     C_R   0.677321 0.740793 0.044638 0.087425
C3    C     C_R   0.190942 0.741916 0.078017 0.091092
C4    C     C_R   0.177319 0.240791 0.044635 0.087425
C5    C     C_R   0.614075 0.206590 0.968589 -0.191024
C6    C     C_R   0.598866 0.762109 0.914338 -0.179140
C7    C     C_R   0.114075 0.706590 0.968589 -0.191025
C8    C     C_R   0.098865 0.262107 0.914333 -0.179138
C9    C     C_R   0.605355 0.188232 0.851297 -0.172567
C10   C     C_R   0.604062 0.792303 0.817521 -0.139651
C11   C     C_R   0.105355 0.688231 0.851297 -0.172567
C12   C     C_R   0.612902 0.100859 0.654964 0.781698
C13   C     C_R   0.104062 0.292301 0.817518 -0.139650
C14   C     C_R   0.309538 0.820471 0.137649 0.473004
C15   C     C_R   0.339638 0.213659 0.199074 0.433279
C16   C     C_R   0.809537 0.320472 0.137647 0.473006
C17   C     C_R   0.839639 0.713659 0.199074 0.433279
C18   C     C_R   0.264850 0.816140 0.283532 -0.255628
C19   C     C_R   0.240865 0.160469 0.239300 -0.237236
C20   C     C_R   0.764850 0.316140 0.283532 -0.255629
C21   C     C_R   0.740867 0.660471 0.239304 -0.237237
C22   C     C_R   0.680921 0.154635 0.750252 -0.107008
C23   C     C_R   0.114627 0.399728 0.656052 0.800727
C24   C     C_R   0.691042 0.852650 0.761185 -0.092641
C25   C     C_R   0.180922 0.654635 0.750253 -0.107008
C26   C     C_R   0.191043 0.352651 0.761186 -0.092640
C27   C     C_R   0.685304 0.002435 0.288350 0.282434
C28   C     C_R   0.185304 0.502435 0.288350 0.282434
C29   C     C_R   0.344494 0.008687 0.627630 0.007655
C30   C     C_R   0.844494 0.508686 0.627630 0.007654
C31   C     C_R   0.312052 0.027481 0.698440 -0.277346
C32   C     C_R   0.812052 0.527481 0.698440 -0.277346
C33   C     C_R   0.386539 0.101030 0.346016 0.800041
C34   C     C_R   0.112902 0.600858 0.654964 0.781698
C35   C     C_R   0.384775 0.901090 0.342824 0.833458
C36   C     C_R   0.886539 0.601030 0.346017 0.800042
C37   C     C_R   0.884775 0.401090 0.342824 0.833458
C38   C     C_R   0.371090 0.033734 0.843860 0.341521
C39   C     C_R   0.871090 0.533734 0.843860 0.341521
C40   C     C_R   0.463512 0.013499 0.921667 -0.062647
C41   C     C_R   0.963512 0.513499 0.921667 -0.062646
C42   C     C_R   0.494727 0.002639 0.842832 0.235346
C43   C     C_R   0.994727 0.502639 0.842832 0.235347
C44   C     C_R   0.527482 0.008206 0.072745 -0.063340
C45   C     C_R   0.257503 0.759671 0.065757 0.009483
C46   C     C_R   0.027482 0.508206 0.072745 -0.063340
C47   C     C_R   0.621414 0.004415 0.140921 0.056573
C48   C     C_R   0.121414 0.504415 0.140921 0.056572
C49   C     C_R   0.650006 0.001536 0.060993 -0.186977
C50   C     C_R   0.150006 0.501536 0.060993 -0.186977
C51   C     C_R   0.588459 0.999020 0.916618 -0.166119
C52   C     C_R   0.088459 0.499020 0.916618 -0.166118
C53   C     C_R   0.502736 0.002337 0.159719 0.134505
C54   C     C_R   0.002736 0.502337 0.159719 0.134506
C55   C     C_R   0.655580 0.001182 0.366478 0.004366
C56   C     C_R   0.264098 0.253224 0.082825 0.044423
C57   C     C_R   0.155580 0.501182 0.366478 0.004365
C58   C     C_R   0.697320 0.267653 0.190865 -0.174641
C59   C     C_R   0.668414 0.700638 0.130716 -0.150479
C60   C     C_R   0.197319 0.767654 0.190865 -0.174641
C61   C     C_R   0.168412 0.200635 0.130711 -0.150477
C62   C     C_R   0.319430 0.844863 0.254587 -0.168274
C63   C     C_R   0.323174 0.160977 0.264014 -0.173049
C64   C     C_R   0.819430 0.344863 0.254587 -0.168274
C65   C     C_R   0.823175 0.660978 0.264016 -0.173051
C66   C     C_R   0.755246 0.161964 0.753234 -0.273623
C67   C     C_R   0.757503 0.259672 0.065755 0.009484
C68   C     C_R   0.774610 0.865328 0.793815 -0.225911
C69   C     C_R   0.255247 0.661963 0.753235 -0.273625
C70   C     C_R   0.274611 0.365330 0.793819 -0.225911
C71   C     C_R   0.333430 0.694377 0.865704 -0.204976
C72   C     C_R   0.353226 0.354998 0.929985 -0.172811
C73   C     C_R   0.833429 0.194379 0.865702 -0.204976
C74   C     C_R   0.853225 0.854994 0.929981 -0.172810
C75   C     C_R   0.338436 0.721865 0.975620 0.445326
C76   C     C_R   0.348490 0.329964 0.031830 0.439319
C77   C     C_R   0.838435 0.221867 0.975617 0.445325
C78   C     C_R   0.764099 0.753225 0.082826 0.044422
C79   C     C_R   0.848491 0.829962 0.031827 0.439321
C80   C     C_R   0.759834 0.224525 0.965805 0.013800
C81   C     C_R   0.768615 0.797177 0.992032 0.047620
C82   C     C_R   0.259835 0.724524 0.965807 0.013800
C83   C     C_R   0.268614 0.297178 0.992033 0.047620
C84   C     C_R   0.680898 0.189135 0.853754 0.018019
C85   C     C_R   0.687616 0.812728 0.855340 0.032394
C86   C     C_R   0.180899 0.689135 0.853754 0.018020
C87   C     C_R   0.187616 0.312727 0.855340 0.032394
C88   C     C_3   0.264802 0.906580 0.971336 0.047280
C89   C     C_R   0.690942 0.241916 0.078017 0.091092
C90   C     C_3   0.251754 0.895252 0.837217 -0.732526
C91   C     C_3   0.492289 0.234814 0.370794 0.160682
C92   C     C_3   0.581434 0.241370 0.396982 -0.708226
C93   C     C_3   0.764799 0.406582 0.971336 0.047279
C94   C     C_3   0.751747 0.395253 0.837213 -0.732523
C95   C     C_3   0.992290 0.734813 0.370793 0.160684
C96   C     C_3   0.081435 0.741368 0.396980 -0.708227
Cl1   Cl    Cl    0.802950 0.000928 0.380209 -0.601948
Cl2   Cl    Cl    0.302950 0.500929 0.380209 -0.601945
Cl3   Cl    Cl    0.328372 0.083160 0.914340 -0.662552
Cl4   Cl    Cl    0.828371 0.583160 0.914340 -0.662553
Cl5   Cl    Cl    0.448143 0.740440 0.130536 -0.596123
Cl6   Cl    Cl    0.420678 0.374457 0.192344 -0.641537
Cl7   Cl    Cl    0.948142 0.240443 0.130533 -0.596122
Cl8   Cl    Cl    0.920681 0.874455 0.192340 -0.641539
Cu1   Cu    Cu3+1 0.526340 0.000000 0.421010 0.996038
Cu2   Cu    Cu3+1 0.026340 0.500000 0.421010 0.996038
Cu3   Cu    Cu3+1 0.473640 0.000000 0.578990 0.924145
Cu4   Cu    Cu3+1 0.973640 0.500000 0.578990 0.924146
H1    H     H_    0.269981 0.834860 0.371648 0.183622
H2    H     H_    0.798298 0.507443 0.514720 0.152253
H3    H     H_    0.241257 0.041685 0.638875 0.198304
H4    H     H_    0.741257 0.541685 0.638875 0.198304
H5    H     H_    0.618214 0.996392 0.867089 0.211166
H6    H     H_    0.118214 0.496392 0.867088 0.211166
H7    H     H_    0.557518 0.199193 0.968042 0.164884
H8    H     H_    0.532874 0.749913 0.882845 0.145318
H9    H     H_    0.057518 0.699193 0.968041 0.164884
H10   H     H_    0.032873 0.249910 0.882839 0.145318
H11   H     H_    0.649006 0.251888 0.205047 0.158652
H12   H     H_    0.229563 0.123135 0.294274 0.181293
H13   H     H_    0.603019 0.694013 0.105028 0.187553
H14   H     H_    0.149005 0.751888 0.205046 0.158652
H15   H     H_    0.103017 0.194009 0.105021 0.187551
H16   H     H_    0.756186 0.136857 0.674576 0.185670
H17   H     H_    0.778650 0.894623 0.721998 0.176147
H18   H     H_    0.256186 0.636857 0.674577 0.185671
H19   H     H_    0.278652 0.394627 0.722003 0.176146
H20   H     H_    0.392633 0.693670 0.871702 0.167324
H21   H     H_    0.415303 0.377762 0.960307 0.173998
H22   H     H_    0.892631 0.193673 0.871699 0.167324
H23   H     H_    0.769982 0.334859 0.371649 0.183622
H24   H     H_    0.915302 0.877757 0.960300 0.173998
H25   H     H_    0.538459 0.173822 0.760303 0.182145
H26   H     H_    0.541476 0.800472 0.712621 0.161760
H27   H     H_    0.038459 0.673822 0.760302 0.182144
H28   H     H_    0.041476 0.300470 0.712617 0.161759
H29   H     H_    0.703902 0.000224 0.479393 0.154827
H30   H     H_    0.203902 0.500224 0.479393 0.154827
H31   H     H_    0.281536 0.963848 0.003135 0.201522
H32   H     H_    0.198687 0.897254 0.948066 0.123966
H33   H     H_    0.220476 0.842170 0.790951 0.224393
H34   H     H_    0.729565 0.623138 0.294278 0.181295
H35   H     H_    0.206354 0.938174 0.760262 0.234566
H36   H     H_    0.317769 0.896852 0.859004 0.258447
H37   H     H_    0.502936 0.194311 0.445160 0.094707
H38   H     H_    0.476424 0.286369 0.398223 0.183987
H39   H     H_    0.575157 0.281403 0.324461 0.266290
H40   H     H_    0.634979 0.259115 0.505911 0.191305
H41   H     H_    0.601442 0.188199 0.381035 0.243100
H42   H     H_    0.781535 0.463850 0.003136 0.201524
H43   H     H_    0.698685 0.397258 0.948070 0.123965
H44   H     H_    0.720467 0.342172 0.790948 0.224392
H45   H     H_    0.721022 0.999202 0.109444 0.226812
H46   H     H_    0.706346 0.438176 0.760260 0.234567
H47   H     H_    0.817761 0.396853 0.858996 0.258448
H48   H     H_    0.002936 0.694311 0.445159 0.094707
H49   H     H_    0.976426 0.786368 0.398221 0.183987
H50   H     H_    0.075159 0.781401 0.324460 0.266290
H51   H     H_    0.134981 0.759113 0.505910 0.191304
H52   H     H_    0.101442 0.688197 0.381033 0.243101
H53   H     H_    0.221022 0.499202 0.109444 0.226813
H54   H     H_    0.433516 0.996694 0.116071 0.191949
H55   H     H_    0.933516 0.496694 0.116071 0.191949
H56   H     H_    0.298298 0.007443 0.514720 0.152254
N1    N     N_R   0.566260 1.000000 0.302220 -0.221094
N2    N     N_R   0.066260 0.500000 0.302220 -0.221095
N3    N     N_R   0.434410 0.000000 0.697680 -0.203773
N4    N     N_R   0.934410 0.500000 0.697680 -0.203773
O1    O     O_R   0.608610 0.924520 0.551740 -0.564980
O2    O     O_R   0.435880 0.924530 0.314850 -0.522100
O3    O     O_R   0.935880 0.575470 0.314850 -0.533618
O4    O     O_R   0.935880 0.424530 0.314850 -0.522099
O5    O     O_R   0.391380 0.075460 0.448260 -0.600096
O6    O     O_R   0.391380 0.924540 0.448260 -0.601793
O7    O     O_R   0.891380 0.575460 0.448260 -0.600096
O8    O     O_R   0.891380 0.424540 0.448260 -0.601793
O9    O     O_3   0.337853 0.862672 0.079461 -0.550733
O10   O     O_3   0.423203 0.215811 0.228922 -0.548192
O11   O     O_3   0.837851 0.362674 0.079459 -0.550734
O12   O     O_R   0.608610 0.075480 0.551740 -0.591353
O13   O     O_3   0.923203 0.715811 0.228921 -0.548191
O14   O     O_R   0.108610 0.424520 0.551740 -0.564980
O15   O     O_R   0.108610 0.575480 0.551740 -0.591354
O16   O     O_R   0.564110 0.924510 0.685150 -0.604422
O17   O     O_R   0.564110 0.075490 0.685150 -0.607466
O18   O     O_R   0.064110 0.424510 0.685150 -0.604421
O19   O     O_R   0.064110 0.575490 0.685150 -0.607466
O20   O     O_R   0.435880 0.075470 0.314850 -0.533618

loop_
_geom_bond_atom_site_label_1
_geom_bond_atom_site_label_2
_ccdc_geom_bond_type
C70   H19   S    
C59   H13   S    
C83   C87   A    
Cu4   O7    S    
C10   C85   A    
C93   C94   S    
C74   H24   S    
C92   H40   S    
Cu2   O3    S    
C7    H9    S    
Cu4   O19   S    
C96   H50   S    
C95   C96   S    
C18   H1    S    
C90   H36   S    
C80   C84   A    
C37   O4    A    
C93   O11   S    
C8    H10   S    
C88   O9    S    
C39   C41   A    
C43   N4    A    
C7    C11   A    
Cu1   Cu3   S    
C8    C13   A    
Cu1   O1    S    
C30   H2    S    
Cu2   N2    S    
Cu1   O20   S    
C49   H45   S    
C38   C40   A    
C21   H34   S    
C21   C59   A    
C3    C7    A    
C27   C55   A    
C43   C52   A    
C32   C39   A    
C11   C86   A    
C28   Cl2   S    
C14   C62   A    
C91   O10   S    
C12   C22   S    
C67   C89   A    
C95   H48   S    
C23   C26   S    
C69   C71   A    
Cu2   O14   S    
C44   C53   A    
C88   H32   S    
C45   C82   A    
C19   C63   A    
C94   H47   S    
C49   C51   A    
C27   Cl1   S    
C50   C52   A    
C41   C46   A    
C54   H55   S    
C35   C62   S    
C33   O5    A    
C24   C85   A    
C90   H35   S    
C44   C47   A    
C4    C8    A    
C42   C51   A    
C21   C65   A    
C3    C60   A    
C40   C42   A    
Cu4   N4    S    
C5    H7    S    
C92   H39   S    
C41   C43   A    
C29   H56   S    
C13   C87   A    
C93   H42   S    
C2    C6    A    
C54   N2    A    
C76   C83   A    
C1    O16   A    
C14   C45   A    
C46   C48   A    
C76   Cl6   S    
Cu3   N3    S    
C71   C75   A    
Cu1   O2    S    
C14   O9    S    
C72   H21   S    
C23   O14   A    
C47   C49   A    
C91   C92   S    
C79   C81   A    
C2    C59   A    
C26   C87   A    
C57   N2    A    
Cu3   O5    S    
C28   C57   A    
C66   C73   A    
C4    C61   A    
C3    C45   A    
C31   H3    S    
C22   C84   A    
C20   C64   A    
C88   H31   S    
C5    C9    A    
C2    C78   A    
C11   H27   S    
C23   O18   A    
C33   C63   S    
C46   C54   A    
C95   O13   S    
C34   O15   A    
C16   C67   A    
C51   H5    S    
C60   H14   S    
C48   C50   A    
C6    H8    S    
C1    C24   S    
C18   C60   A    
C94   H44   S    
C96   H52   S    
C88   C90   S    
C69   H18   S    
C74   C79   A    
C26   C70   A    
C13   H28   S    
C66   H16   S    
C79   Cl8   S    
C77   Cl7   S    
C25   C69   A    
C55   N1    A    
Cu1   O12   S    
C20   C58   A    
C91   H37   S    
C37   C64   S    
C42   N3    A    
C56   C83   A    
C77   C80   A    
C27   C47   A    
Cu3   O17   S    
C73   H22   S    
C28   C48   A    
C36   O3    A    
C15   C63   A    
C32   H4    S    
C12   O12   A    
C95   H49   S    
C35   O6    A    
Cu2   O4    S    
C18   C62   A    
C67   C80   A    
C10   H26   S    
C38   Cl3   S    
C5    C89   A    
C19   H12   S    
C53   N1    A    
C16   O11   S    
C75   C82   A    
C22   C66   A    
Cu3   O6    S    
C52   H6    S    
C16   C64   A    
C53   H54   S    
C25   C34   S    
C17   C65   A    
C55   H29   S    
C31   C38   A    
Cu3   O16   S    
C61   H15   S    
C15   C56   A    
C36   C65   S    
C30   N4    A    
C29   C31   A    
C82   C86   A    
C37   O8    A    
C30   C32   A    
C94   H46   S    
C78   C81   A    
C29   N3    A    
C39   Cl4   S    
C25   C86   A    
Cu2   Cu4   S    
C19   C61   A    
C72   C76   A    
C12   O17   A    
Cu4   O8    S    
C1    O1    A    
C17   C78   A    
Cu1   N1    S    
C57   H30   S    
C33   O20   A    
C34   O19   A    
C71   H20   S    
C58   C89   A    
C81   C85   A    
Cu2   O15   S    
C90   H33   S    
C93   H43   S    
C6    C10   A    
C24   C68   A    
C9    C84   A    
C17   O13   S    
C40   C44   A    
C96   H51   S    
C58   H11   S    
C36   O7    A    
C15   O10   S    
C92   H41   S    
C75   Cl5   S    
C35   O2    A    
C73   C77   A    
C70   C72   A    
C20   H23   S    
Cu4   O18   S    
C68   C74   A    
C68   H17   S    
C91   H38   S    
C4    C56   A    
C50   H53   S    
C9    H25   S    
