data_mof_unit_59784.cif
_audit_creation_date              2012-12-11T16:26:23-0500
_audit_creation_method            fapswitch 2.2
_symmetry_space_group_name_H-M    P1
_symmetry_Int_Tables_number       1
_space_group_crystal_system       triclinic
_cell_length_a                    6.936168
_cell_length_b                    17.526824
_cell_length_c                    19.468657
_cell_angle_alpha                 108.637406
_cell_angle_beta                  89.609886
_cell_angle_gamma                 90.554533
_cell_volume                      2242.54852597

loop_
_atom_site_label
_atom_site_type_symbol
_atom_type_description
_atom_site_fract_x
_atom_site_fract_y
_atom_site_fract_z
_atom_type_partial_charge
O1    O     O_R   0.494330 0.415720 0.413720 -0.535497
O2    O     O_R   0.819330 0.430070 0.560210 -0.548016
O3    O     O_R   0.994320 0.584280 0.586280 -0.534455
C1    C     C_R   0.650139 0.414592 0.581542 0.708304
O4    O     O_R   0.823730 0.406300 0.412670 -0.538798
O5    O     O_R   0.998760 0.560340 0.437690 -0.539822
C2    C     C_R   0.654934 0.383438 0.385063 0.697047
O6    O     O_R   0.489890 0.439660 0.562310 -0.539278
O7    O     O_3   0.662340 0.550560 0.508380 -0.367989
V1    V     V_3+5 0.935370 0.490620 0.498450 1.414303
O8    O     O_R   0.328750 0.569930 0.439790 -0.547496
C3    C     C_R   0.160691 0.584983 0.418074 0.705881
O9    O     O_R   0.324340 0.593700 0.587330 -0.538818
C4    C     C_R   0.155471 0.616537 0.614956 0.696364
V2    V     V_3+5 0.435940 0.509380 0.501550 1.414873
O10   O     O_3   0.159100 0.449440 0.491620 -0.368507
H1    H     H_    0.352367 0.868491 0.574038 0.114251
C5    C     C_R   0.032857 0.592364 0.748884 -0.252477
C6    C     C_R   0.972175 0.578690 0.812338 -0.199294
C7    C     C_R   0.960015 0.642386 0.876773 0.682655
C8    C     C_R   0.008454 0.720242 0.878175 -0.228637
C9    C     C_R   0.068903 0.736165 0.814450 -0.013706
C10   C     C_R   0.081423 0.670888 0.748424 0.075006
C11   C     C_R   0.120280 0.815241 0.816027 -0.148516
C12   C     C_R   0.184237 0.829021 0.751559 0.070516
C13   C     C_R   0.196805 0.763739 0.685532 0.065082
C14   C     C_R   0.145301 0.684670 0.683941 -0.156891
C15   C     C_R   0.232901 0.907550 0.751115 -0.148386
C16   C     C_R   0.293839 0.921203 0.687682 -0.121131
C17   C     C_R   0.306083 0.857503 0.623290 -0.115993
C18   C     C_R   0.257486 0.779666 0.621834 -0.138808
H2    H     H_    0.042630 0.540516 0.700525 0.136164
H3    H     H_    0.935613 0.518185 0.811492 0.147105
H4    H     H_    0.999263 0.767519 0.929849 0.130128
H5    H     H_    0.223070 0.959404 0.799466 0.104067
H6    H     H_    0.330586 0.981663 0.688450 0.114987
H7    H     H_    0.266856 0.732460 0.570124 0.100812
C19   C     C_R   0.990335 0.629443 0.324176 -0.207045
C20   C     C_R   0.152655 0.634118 0.368517 -0.084984
C21   C     C_R   0.307087 0.685460 0.364823 -0.235031
C22   C     C_R   0.299288 0.732288 0.318250 0.094694
C23   C     C_R   0.136695 0.726644 0.273598 0.054358
C24   C     C_R   0.982143 0.674729 0.276369 0.084383
C25   C     C_R   0.451070 0.784861 0.315606 -0.188372
C26   C     C_R   0.443137 0.830737 0.268572 -0.191676
C27   C     C_R   0.283144 0.824945 0.223347 0.092904
C28   C     C_R   0.128617 0.773011 0.226099 0.047956
C29   C     C_R   0.966029 0.767368 0.181445 0.088902
C30   C     C_R   0.814289 0.714765 0.184063 -0.142516
C31   C     C_R   0.822197 0.668906 0.231115 -0.186185
C32   C     C_R   0.274869 0.870299 0.175604 -0.205955
C33   C     C_R   0.112512 0.865664 0.131292 -0.089297
C34   C     C_R   0.958170 0.814249 0.134915 -0.188691
H8    H     H_    0.871195 0.589635 0.326089 0.123534
H9    H     H_    0.432414 0.689794 0.398886 0.127334
H10   H     H_    0.576704 0.790184 0.349659 0.132696
H11   H     H_    0.562867 0.870468 0.267294 0.125791
H12   H     H_    0.393972 0.910138 0.173726 0.122392
H13   H     H_    0.832850 0.809918 0.100848 0.142690
H14   H     H_    0.688679 0.709428 0.149997 0.150566
H15   H     H_    0.702466 0.629176 0.232394 0.131305
C35   C     C_R   0.467918 0.185912 0.867622 -0.228257
C36   C     C_R   0.623501 0.135679 0.869929 -0.083292
C37   C     C_R   0.783674 0.132165 0.824277 -0.213494
C38   C     C_R   0.787558 0.177038 0.775977 0.091142
C39   C     C_R   0.631050 0.227370 0.774246 0.053790
C40   C     C_R   0.471314 0.232168 0.820610 0.086737
C41   C     C_R   0.944617 0.172104 0.728968 -0.186616
C42   C     C_R   0.947758 0.217244 0.681241 -0.189629
C43   C     C_R   0.793863 0.268092 0.679624 0.091708
C44   C     C_R   0.634135 0.272900 0.725994 0.053692
C45   C     C_R   0.477618 0.323226 0.724254 0.086934
C46   C     C_R   0.320571 0.328168 0.771271 -0.170769
C47   C     C_R   0.317432 0.283027 0.818999 -0.176124
C48   C     C_R   0.797226 0.314312 0.632586 -0.231630
C49   C     C_R   0.641617 0.364523 0.630252 -0.084476
C50   C     C_R   0.481468 0.368069 0.675925 -0.208930
H16   H     H_    0.344190 0.189436 0.902809 0.128411
H17   H     H_    0.903540 0.093262 0.825242 0.122446
H18   H     H_    0.065693 0.133619 0.729364 0.129277
H19   H     H_    0.071368 0.212746 0.645862 0.132164
H20   H     H_    0.920941 0.310765 0.597387 0.127597
H21   H     H_    0.361583 0.406956 0.674942 0.124124
H22   H     H_    0.199490 0.366650 0.770872 0.134923
H23   H     H_    0.193819 0.287522 0.854376 0.138231
H24   H     H_    0.833630 0.131382 0.426614 0.114370
C51   C     C_R   0.541212 0.407666 0.250911 -0.147248
C52   C     C_R   0.485193 0.421357 0.187291 -0.115333
C53   C     C_R   0.473356 0.357670 0.122850 -0.107295
C54   C     C_R   0.517466 0.279810 0.121528 -0.138075
C55   C     C_R   0.573209 0.263860 0.185401 0.068978
C56   C     C_R   0.585318 0.329120 0.251473 0.069813
C57   C     C_R   0.620264 0.184781 0.183951 -0.183070
C58   C     C_R   0.679273 0.170949 0.248596 0.069818
C59   C     C_R   0.691377 0.236209 0.314667 0.068940
C60   C     C_R   0.644359 0.315290 0.316115 -0.183569
C61   C     C_R   0.723362 0.092403 0.249160 -0.144458
C62   C     C_R   0.779346 0.078709 0.312781 -0.123145
C63   C     C_R   0.791174 0.142395 0.377223 -0.117076
C64   C     C_R   0.747089 0.220257 0.378543 -0.135269
H25   H     H_    0.550858 0.459493 0.299318 0.104799
H26   H     H_    0.451927 0.481830 0.187961 0.121954
H27   H     H_    0.430869 0.368682 0.073461 0.125313
H28   H     H_    0.508597 0.232600 0.069792 0.101407
H29   H     H_    0.713719 0.040575 0.200752 0.102664
H30   H     H_    0.812593 0.018235 0.312114 0.113130
H31   H     H_    0.755946 0.267466 0.430280 0.099876
O11   O     O_R   0.775200 0.060470 0.937800 -0.539817
O12   O     O_R   0.441110 0.093720 0.087350 -0.539594
O13   O     O_R   0.266330 0.939630 0.062280 -0.538232
C65   C     C_R   0.609847 0.116639 0.114995 0.695640
O14   O     O_R   0.445750 0.069950 0.939820 -0.548921
O15   O     O_R   0.271000 0.915700 0.913700 -0.534507
C66   C     C_R   0.614948 0.085529 0.918567 0.704799
O16   O     O_R   0.770530 0.084400 0.086380 -0.536298
O17   O     O_3   0.602830 0.949510 0.991680 -0.365377
V3    V     V_3+5 0.329710 0.009370 0.001550 1.420026
O18   O     O_R   0.940990 0.906170 0.912570 -0.538766
C67   C     C_R   0.109930 0.883389 0.884990 0.697514
O19   O     O_R   0.936350 0.929940 0.060100 -0.547814
C68   C     C_R   0.104415 0.914895 0.081820 0.711501
V4    V     V_3+5 0.829160 0.990450 0.998310 1.424932
O20   O     O_3   0.105910 0.050480 0.008320 -0.369923
F1    F     F_    0.902355 0.628636 0.938506 -0.684425

loop_
_geom_bond_atom_site_label_1
_geom_bond_atom_site_label_2
_ccdc_geom_bond_type
C41   H18   S    
C51   C52   A    
C22   C23   A    
C57   C58   A    
C46   C47   A    
C59   C60   A    
C1    O6    A    
O14   C66   A    
C61   C62   A    
C34   H13   S    
O12   V3    S    
C26   C27   A    
O19   C68   A    
C12   C15   A    
C2    C60   S    
C16   H6    S    
C26   H11   S    
C13   C14   A    
C35   C36   A    
C30   H14   S    
O17   V4    S    
C35   C40   A    
C15   C16   A    
O12   C65   A    
O13   C68   A    
O5    C3    A    
C17   C18   A    
C50   H21   S    
V2    O10   S    
C56   C60   A    
O17   V3    S    
C5    C6    A    
O18   V4    S    
O11   C66   A    
O18   C67   A    
C45   C50   A    
C51   H25   S    
C36   C66   S    
O8    V2    S    
C39   C44   A    
C15   H5    S    
C41   C42   A    
C11   C67   S    
C43   C44   A    
O1    V2    S    
C10   C14   A    
C4    C14   S    
O7    V1    S    
C46   H22   S    
C61   H29   S    
C52   C53   A    
C38   C41   A    
C39   C40   A    
C13   C18   A    
O16   V4    S    
O15   C67   A    
O9    C4    A    
C53   H27   S    
H1    C17   S    
C42   C43   A    
O13   V3    S    
O19   V4    S    
C29   C34   A    
C1    C49   S    
C32   C33   A    
C19   C20   A    
C49   C50   A    
C6    H3    S    
C20   C21   A    
C32   H12   S    
C59   C64   A    
C8    H4    S    
C58   C61   A    
C12   C13   A    
C27   C32   A    
C18   H7    S    
O2    C1    A    
C48   C49   A    
C16   C17   A    
C55   C57   A    
C33   C68   S    
C25   H10   S    
C28   C29   A    
C19   H8    S    
C21   H9    S    
C24   C31   A    
C40   C47   A    
C11   C12   A    
H24   C63   S    
C54   H28   S    
O3    C4    A    
C57   C65   S    
O15   V3    S    
C21   C22   A    
C62   C63   A    
O6    V2    S    
O9    V2    S    
C37   H17   S    
C9    C11   A    
C5    H2    S    
C23   C24   A    
O2    V1    S    
C55   C56   A    
C51   C56   A    
C33   C34   A    
O4    C2    A    
C27   C28   A    
C29   C30   A    
C64   H31   S    
O1    C2    A    
C35   H16   S    
C25   C26   A    
O11   V4    S    
C45   C46   A    
O5    V1    S    
C52   H26   S    
O8    C3    A    
C48   H20   S    
C62   H30   S    
C63   C64   A    
C37   C38   A    
C6    C7    A    
V3    O20   S    
O4    V1    S    
O3    V1    S    
V1    O10   S    
C54   C55   A    
O14   V3    S    
C3    C20   S    
C5    C10   A    
C22   C25   A    
C23   C28   A    
C38   C39   A    
C47   H23   S    
O7    V2    S    
C58   C59   A    
C7    F1    S    
C42   H19   S    
C36   C37   A    
C19   C24   A    
C44   C45   A    
C7    C8    A    
C30   C31   A    
C43   C48   A    
V4    O20   S    
C31   H15   S    
C9    C10   A    
C65   O16   A    
C53   C54   A    
C8    C9    A    
