data_mof_unit_29558.cif
_audit_creation_date              2013-03-05T16:06:21-0500
_audit_creation_method            fapswitch 2.2
_symmetry_space_group_name_H-M    P1
_symmetry_Int_Tables_number       1
_space_group_crystal_system       triclinic
_cell_length_a                    10.763073
_cell_length_b                    9.517176
_cell_length_c                    27.720791
_cell_angle_alpha                 90.03123
_cell_angle_beta                  89.951194
_cell_angle_gamma                 89.73069
_cell_volume                      2839.52034405

loop_
_atom_site_label
_atom_site_type_symbol
_atom_site_description
_atom_site_fract_x
_atom_site_fract_y
_atom_site_fract_z
_atom_type_partial_charge
O1    O     O_R   0.319640 0.618740 0.500000 -0.583065
O2    O     O_R   0.680360 0.381260 0.500000 -0.582720
O3    O     O_R   0.680360 0.618740 0.500000 -0.569106
O4    O     O_R   0.319640 0.381260 0.500000 -0.569025
C1    C     C_R   0.262647 0.500405 0.499870 0.749686
C2    C     C_R   0.737349 0.499583 0.500154 0.751789
O5    O     O_R   0.500020 0.618770 0.430260 -0.589715
O6    O     O_R   0.499980 0.381230 0.569740 -0.588855
O7    O     O_R   0.499980 0.618770 0.569740 -0.580899
O8    O     O_R   0.500020 0.381230 0.430260 -0.580602
C3    C     C_R   0.499421 0.499852 0.407384 0.791378
C4    C     C_R   0.500657 0.499890 0.592626 0.791668
Cu1   Cu    Cu3+1 0.500000 0.640660 0.500000 0.955861
Cu2   Cu    Cu3+1 0.500000 0.359340 0.500000 0.956383
C5    C     C_R   0.395715 0.499300 0.177019 0.587222
C6    C     C_R   0.604583 0.497670 0.822962 0.585273
O9    O     O_2   0.289088 0.522406 0.201516 -0.498856
O10   O     O_2   0.711231 0.519182 0.798439 -0.499186
N1    N     N_R   0.505191 0.487715 0.201405 -0.452316
N2    N     N_R   0.495043 0.487562 0.798606 -0.452293
C7    C     C_R   0.615643 0.467653 0.177934 0.523118
C8    C     C_R   0.384599 0.468950 0.822089 0.524532
C9    C     C_R   0.468052 0.370453 0.279229 0.295181
C10   C     C_R   0.528543 0.368875 0.720715 0.297983
C11   C     C_R   0.465727 0.375231 0.329658 -0.244272
C12   C     C_R   0.530981 0.373664 0.670295 -0.244290
C13   C     C_R   0.532980 0.618047 0.327986 -0.201779
C14   C     C_R   0.470787 0.619514 0.672142 -0.204991
C15   C     C_R   0.535542 0.613964 0.277674 -0.131283
C16   C     C_R   0.468234 0.615425 0.722455 -0.136894
C17   C     C_R   0.503483 0.490635 0.253151 0.334446
C18   C     C_R   0.496655 0.490559 0.746873 0.338706
C19   C     C_R   0.505168 0.458563 0.101630 -0.042426
C20   C     C_R   0.495154 0.458397 0.898360 -0.042028
C21   C     C_R   0.393707 0.487490 0.126752 -0.036620
C22   C     C_R   0.606620 0.485975 0.873232 -0.036185
C23   C     C_R   0.282639 0.505479 0.101249 -0.105926
C24   C     C_R   0.717699 0.502779 0.898730 -0.106446
C25   C     C_R   0.618382 0.445402 0.127238 -0.088769
C26   C     C_R   0.381917 0.446532 0.872762 -0.088901
C27   C     C_R   0.498972 0.498293 0.354337 -0.073444
C28   C     C_R   0.501206 0.498280 0.645689 -0.065192
H1    H     H_    0.559039 0.714116 0.346252 0.172758
H2    H     H_    0.447655 0.716885 0.653965 0.166551
H3    H     H_    0.562312 0.706692 0.257647 0.155717
H4    H     H_    0.444303 0.709332 0.742563 0.152931
H5    H     H_    0.196994 0.532755 0.119621 0.224131
H6    H     H_    0.803330 0.529082 0.880351 0.225106
C29   C     C_R   0.385543 0.429119 0.974987 0.022137
C30   C     C_R   0.614783 0.427918 0.024996 0.022416
C31   C     C_R   0.612381 0.450745 0.974303 0.078905
C32   C     C_R   0.387953 0.452053 0.025680 0.078787
C33   C     C_R   0.497539 0.445493 0.949211 0.041845
C34   C     C_R   0.502791 0.445595 0.050775 0.041950
C35   C     C_R   0.276004 0.392514 0.949189 -0.045624
C36   C     C_R   0.724311 0.390190 0.050792 -0.046280
C37   C     C_R   0.272124 0.408986 0.898350 -0.074821
C38   C     C_R   0.728196 0.406725 0.101633 -0.074461
O11   O     O_2   0.278728 0.472651 0.796145 -0.525872
O12   O     O_2   0.721449 0.469552 0.203925 -0.526110
C39   C     C_R   0.280150 0.490078 0.051502 -0.118484
C40   C     C_R   0.720193 0.487506 0.948478 -0.118553
H7    H     H_    0.555878 0.279485 0.650456 0.152666
H8    H     H_    0.438131 0.282296 0.349458 0.156065
H9    H     H_    0.193328 0.512244 0.033388 0.149984
H10   H     H_    0.807026 0.508772 0.966589 0.149920
C41   C     C_R   0.065534 0.461297 0.542484 -0.034365
C42   C     C_R   0.934455 0.538609 0.457542 -0.031163
C43   C     C_R   0.934925 0.461948 0.542666 -0.025335
C44   C     C_R   0.065056 0.537697 0.457337 -0.027290
C45   C     C_R   0.871397 0.497979 0.499896 -0.207663
C46   C     C_R   0.128590 0.501941 0.500129 -0.207854
C47   C     C_R   0.424433 0.074765 0.469459 -0.002723
C48   C     C_R   0.575577 0.925244 0.530536 -0.004139
C49   C     C_R   0.575575 0.074091 0.530539 -0.006571
C50   C     C_R   0.424409 0.925918 0.469468 -0.007990
H11   H     H_    0.363904 0.131154 0.444994 0.127006
H12   H     H_    0.636131 0.868862 0.554991 0.133022
H13   H     H_    0.636122 0.129943 0.554995 0.117655
H14   H     H_    0.363831 0.870074 0.445025 0.122904
N3    N     N_R   0.500000 0.852070 0.500000 -0.162873
N4    N     N_R   0.500000 0.147930 0.500000 -0.160989
N5    N     N_2   0.560750 0.242537 0.745151 -0.420446
H15   H     H_    0.633042 0.188702 0.728963 0.268357
C51   C     C_3   0.456491 0.151558 0.754928 -0.646930
H16   H     H_    0.488645 0.058958 0.775924 0.233132
H17   H     H_    0.414802 0.114262 0.720573 0.227825
H18   H     H_    0.384725 0.207424 0.776466 0.249399
N6    N     N_2   0.432200 0.245767 0.254720 -0.417304
H19   H     H_    0.359646 0.194136 0.271255 0.268925
C52   C     C_3   0.534124 0.151368 0.243848 -0.652315
H20   H     H_    0.499029 0.060301 0.222927 0.235875
H21   H     H_    0.577009 0.112051 0.277754 0.224942
H22   H     H_    0.605690 0.205075 0.221824 0.246972
C53   C     C_2   0.155978 0.374330 0.872119 0.453305
H23   H     H_    0.157526 0.296897 0.843366 0.113669
O13   O     O_2   0.058720 0.434668 0.881748 -0.545828
C54   C     C_2   0.844450 0.371120 0.127825 0.453021
H24   H     H_    0.843145 0.293528 0.156494 0.112710
O14   O     O_2   0.941548 0.430785 0.118230 -0.544447
C55   C     C_2   0.174318 0.312904 0.973487 0.337784
H25   H     H_    0.078681 0.323197 0.961867 0.128336
O15   O     O_2   0.197636 0.230570 0.006070 -0.507786
C56   C     C_2   0.825996 0.309422 0.026491 0.337133
H26   H     H_    0.921617 0.318634 0.038142 0.129848
O16   O     O_2   0.802693 0.227318 0.993883 -0.507431
C57   C     C_2   0.138210 0.414994 0.585498 0.496736
H27   H     H_    0.225808 0.464977 0.594113 0.035534
O17   O     O_2   0.103765 0.316726 0.610372 -0.500926
C58   C     C_2   0.861810 0.585116 0.414539 0.492335
H28   H     H_    0.774013 0.535513 0.405974 0.035079
O18   O     O_2   0.896529 0.683144 0.389614 -0.501611
C59   C     C_2   0.862988 0.434923 0.587773 0.435528
H29   H     H_    0.775436 0.379169 0.586384 0.047032
O19   O     O_2   0.898086 0.480296 0.626627 -0.488628
C60   C     C_2   0.136953 0.564004 0.412175 0.434945
H30   H     H_    0.224694 0.619416 0.413471 0.054429
O20   O     O_2   0.101638 0.518374 0.373389 -0.489636

loop_
_geom_bond_atom_site_label_1
_geom_bond_atom_site_label_2
_geom_bond_distance
_ccdc_geom_bond_type
C55   H25   1.082853 S    
C13   C15   1.395457 A    
C53   H23   1.085288 S    
C38   C54   1.485072 S    
O3    C2    1.286762 A    
N1    C17   1.434811 S    
C56   O16   1.221502 D    
C51   H16   1.110514 S    
C5    N1    1.362981 A    
C43   C59   1.493229 S    
C19   C25   1.415827 A    
O1    C1    1.284970 A    
N1    C7    1.367275 A    
C10   N5    1.421999 S    
C10   C12   1.398672 A    
C1    C46   1.442879 S    
C32   C39   1.408525 A    
Cu1   N3    2.012026 S    
C60   H30   1.084410 S    
C41   C46   1.410795 A    
C14   C28   1.404025 A    
C43   C45   1.410806 A    
O7    Cu1   1.944554 S    
C58   H28   1.084740 S    
C4    C28   1.471059 S    
C60   O20   1.220992 D    
C57   H27   1.084767 S    
C9    N6    1.422156 S    
C24   C40   1.387052 A    
C23   H5    1.083191 S    
C24   H6    1.083131 S    
O3    Cu1   1.951430 S    
O6    C4    1.295063 A    
C55   O15   1.221520 D    
Cu1   Cu2   2.677372 S    
C15   C17   1.400783 A    
C57   O17   1.221090 D    
O2    C2    1.284851 A    
C31   C40   1.408572 A    
C5    C21   1.398108 A    
C56   H26   1.082860 S    
C32   C34   1.419941 A    
C51   H17   1.111795 S    
C2    C45   1.442793 S    
C48   C49   1.416606 A    
C40   H10   1.081172 S    
C36   C56   1.494236 S    
C7    O12   1.348291 S    
O8    Cu2   1.944553 S    
C11   C27   1.404022 A    
C52   H20   1.110452 S    
C44   C60   1.493079 S    
C29   C35   1.424014 A    
C25   C38   1.424942 A    
C14   H2    1.083152 S    
C30   C36   1.423979 A    
C15   H3    1.082916 S    
C31   C33   1.419915 A    
C11   H8    1.083752 S    
C9    C17   1.407409 A    
O5    C3    1.297063 A    
C12   H7    1.083782 S    
C10   C18   1.407014 A    
C39   H9    1.081167 S    
C52   H21   1.111741 S    
C13   C27   1.403877 A    
N5    H15   1.031841 S    
C7    C25   1.421335 A    
C6    N2    1.362890 A    
C29   C32   1.422258 A    
C8    C26   1.421213 A    
C30   C31   1.422301 A    
C42   C58   1.492369 S    
C6    O10   1.350061 S    
N5    C51   1.446129 S    
N2    C8    1.367106 A    
C54   O14   1.220911 D    
C35   C37   1.418701 A    
C48   H12   1.081729 S    
C47   C50   1.416607 A    
C20   C26   1.415755 A    
N6    C52   1.446131 S    
Cu2   N4    2.012027 S    
C48   N3    1.367131 A    
C47   N4    1.367108 A    
C8    O11   1.348328 S    
C12   C28   1.404355 A    
C59   H29   1.084337 S    
N2    C18   1.434479 S    
C51   H18   1.109417 S    
C19   C34   1.415355 A    
C5    O9    1.350076 S    
O6    Cu2   1.944327 S    
C26   C37   1.424803 A    
C21   C23   1.399214 A    
C16   H4    1.082981 S    
C50   H14   1.081807 S    
O4    C1    1.286682 A    
C50   N3    1.367001 A    
C23   C39   1.387009 A    
C53   O13   1.220867 D    
C49   N4    1.366976 A    
C35   C55   1.494216 S    
C22   C24   1.399157 A    
C30   C34   1.410092 A    
C6    C22   1.398186 A    
C52   H22   1.109308 S    
C16   C18   1.400638 A    
C41   C57   1.492241 S    
C42   C45   1.410765 A    
C29   C33   1.410071 A    
C14   C16   1.395525 A    
C19   C21   1.412513 A    
C36   C38   1.418691 A    
C3    C27   1.470578 S    
C20   C22   1.412503 A    
C9    C11   1.398834 A    
O4    Cu2   1.951430 S    
O2    Cu2   1.953380 S    
O7    C4    1.297425 A    
C58   O18   1.221057 D    
O8    C3    1.295158 A    
C13   H1    1.083130 S    
O5    Cu1   1.944328 S    
O1    Cu1   1.953380 S    
C20   C33   1.415288 A    
C42   C44   1.405662 A    
C54   H24   1.085279 S    
C37   C53   1.485060 S    
C47   H11   1.081778 S    
C44   C46   1.410752 A    
C41   C43   1.405747 A    
N6    H19   1.031798 S    
C49   H13   1.081853 S    
C59   O19   1.221058 D    
