data_mof_unit_13052.cif
_audit_creation_date              2012-12-10T16:44:44-0500
_audit_creation_method            fapswitch 2.2
_symmetry_space_group_name_H-M    P1
_symmetry_Int_Tables_number       1
_space_group_crystal_system       triclinic
_cell_length_a                    14.985967
_cell_length_b                    8.707803
_cell_length_c                    7.466151
_cell_angle_alpha                 103.072191
_cell_angle_beta                  94.169376
_cell_angle_gamma                 92.839502
_cell_volume                      944.348948999

loop_
_atom_site_label
_atom_site_type_symbol
_atom_type_description
_atom_site_fract_x
_atom_site_fract_y
_atom_site_fract_z
_atom_type_partial_charge
C1    C     C_R   0.496912 0.200091 0.453520 0.797185
C2    C     C_R   0.503088 0.799909 0.546480 0.797185
C3    C     C_R   0.038144 0.215754 0.373498 0.354378
C4    C     C_R   0.961856 0.784246 0.626502 0.354378
C5    C     C_2   0.494991 0.032727 0.427252 0.373073
C6    C     C_2   0.505009 0.967273 0.572747 0.373073
C7    C     C_R   0.329359 0.500848 0.502667 0.817759
C8    C     C_R   0.670640 0.499151 0.497333 0.817759
C9    C     C_R   0.817414 0.636984 0.543618 -0.131768
C10   C     C_R   0.182586 0.363016 0.456382 -0.131768
C11   C     C_R   0.766542 0.494779 0.490663 -0.137160
C12   C     C_R   0.233458 0.505221 0.509337 -0.137160
C13   C     C_R   0.806178 0.350869 0.440187 0.400496
C14   C     C_R   0.193821 0.649131 0.559813 0.400496
C15   C     C_R   0.900393 0.351247 0.429865 -0.080402
C16   C     C_R   0.099607 0.648753 0.570135 -0.080402
C17   C     C_R   0.952812 0.497852 0.496139 -0.067705
C18   C     C_R   0.047188 0.502148 0.503861 -0.067705
C19   C     C_R   0.910651 0.640748 0.554066 -0.002214
C20   C     C_R   0.089349 0.359252 0.445934 -0.002214
C21   C     C_R   0.944407 0.212467 0.357561 0.399268
C22   C     C_R   0.055593 0.787533 0.642439 0.399268
Cu1   Cu    Cu3+1 0.510010 0.517380 0.684380 1.250761
Cu2   Cu    Cu3+1 0.489990 0.482620 0.315620 1.250761
H1    H     H_    0.782553 0.743891 0.582812 0.214016
H2    H     H_    0.217447 0.256109 0.417188 0.214016
N1    N     N_2   0.474890 0.456420 0.038520 0.259955
N2    N     N_2   0.525110 0.543580 0.961480 0.259955
O1    O     O_R   0.506510 0.286130 0.619770 -0.532072
O2    O     O_R   0.493490 0.713870 0.380230 -0.532072
O3    O     O_R   0.489600 0.256770 0.308360 -0.513041
O4    O     O_R   0.510400 0.743230 0.691640 -0.513041
O5    O     O_R   0.378710 0.514640 0.655720 -0.538465
O6    O     O_R   0.621290 0.485360 0.344280 -0.538465
O7    O     O_R   0.361800 0.485290 0.344300 -0.558571
O8    O     O_R   0.638200 0.514710 0.655700 -0.558571
Cl1   Cl    Cl    0.735823 0.176709 0.421215 -0.477849
Cl2   Cl    Cl    0.264177 0.823291 0.578785 -0.477849
Cl3   Cl    Cl    0.887165 0.036699 0.221929 -0.354783
Cl4   Cl    Cl    0.112835 0.963301 0.778071 -0.354783
Cl5   Cl    Cl    0.090830 0.037235 0.294791 -0.428058
Cl6   Cl    Cl    0.909170 0.962765 0.705209 -0.428058
F1    F     F_    0.482641 0.945397 0.249944 -0.562120
F2    F     F_    0.517359 0.054603 0.750055 -0.562120
F3    F     F_    0.412903 0.358320 0.925924 -0.482683
F4    F     F_    0.587097 0.641680 0.074076 -0.482683

loop_
_geom_bond_atom_site_label_1
_geom_bond_atom_site_label_2
_ccdc_geom_bond_type
C16   C22   A    
Cu1   Cu2   S    
C14   Cl2   S    
C4    C22   A    
C9    C11   A    
C13   Cl1   S    
C21   Cl3   S    
Cu2   N1    S    
C1    O3    A    
C2    O2    A    
C22   Cl4   S    
Cu1   O4    S    
N1    F3    S    
C1    O1    A    
C17   C18   A    
C5    F1    S    
Cu2   O3    S    
C9    H1    S    
C3    C20   A    
C8    O6    A    
Cu1   N2    S    
C11   C13   A    
N2    F4    S    
C2    C6    S    
C10   C12   A    
C8    C11   S    
C1    C5    S    
Cu1   O1    S    
C16   C18   A    
C17   C19   A    
C12   C14   A    
C18   C20   A    
C13   C15   A    
C5    C6    D    
C4    Cl6   S    
C14   C16   A    
C7    C12   S    
C3    C21   A    
Cu2   O7    S    
C7    O5    A    
Cu2   O2    S    
C15   C21   A    
C2    O4    A    
Cu1   O8    S    
C8    O8    A    
N1    N2    D    
C15   C17   A    
C3    Cl5   S    
C6    F2    S    
C4    C19   A    
C7    O7    A    
C9    C19   A    
C10   H2    S    
Cu2   O6    S    
C10   C20   A    
Cu1   O5    S    
