data_mof_unit_53449.cif
_audit_creation_date              2012-12-10T16:54:52-0500
_audit_creation_method            fapswitch 2.2
_symmetry_space_group_name_H-M    P1
_symmetry_Int_Tables_number       1
_space_group_crystal_system       triclinic
_cell_length_a                    7.819426
_cell_length_b                    8.630019
_cell_length_c                    15.709941
_cell_angle_alpha                 92.107109
_cell_angle_beta                  84.862743
_cell_angle_gamma                 93.51048
_cell_volume                      1053.37327467

loop_
_atom_site_label
_atom_site_type_symbol
_atom_type_description
_atom_site_fract_x
_atom_site_fract_y
_atom_site_fract_z
_atom_type_partial_charge
C1    C     C_R   0.544990 0.794192 0.499961 0.861170
C2    C     C_2   0.435688 0.045825 0.520707 0.203150
C3    C     C_R   0.500708 0.500915 0.661457 0.816740
C4    C     C_R   0.455369 0.205999 0.503952 0.854544
C5    C     C_R   0.499343 0.499029 0.338498 0.853868
C6    C     C_3   0.387228 0.628444 0.959862 0.264442
C7    C     C_3   0.696911 0.530615 0.944610 0.857472
C8    C     C_3   0.688702 0.555451 0.044455 0.847745
C9    C     C_1   0.498234 0.497486 0.249683 -0.155234
C10   C     C_3   0.506284 0.503068 0.916835 -0.458675
C11   C     C_3   0.531152 0.118867 0.120646 -0.114292
C12   C     C_3   0.367817 0.609262 0.057782 0.956416
C13   C     C_3   0.294760 0.034005 0.653666 -0.292727
C14   C     C_3   0.956054 0.314996 0.356555 -0.000988
C15   C     C_3   0.035679 0.672591 0.647002 -0.019702
C16   C     C_3   0.749169 0.786025 0.883633 -0.355149
C17   C     C_3   0.888615 0.756101 0.083979 -0.011740
C18   C     C_3   0.401461 0.083584 0.892547 -0.131646
C19   C     C_3   0.503869 0.497608 0.082472 -0.375389
C20   C     C_3   0.454172 0.330503 0.046141 0.104364
C21   C     C_3   0.428445 0.340073 0.948752 0.981160
C22   C     C_1   0.499519 0.496443 0.174273 0.247811
C23   C     C_1   0.504838 0.503729 0.825350 0.261108
C24   C     C_1   0.502699 0.502563 0.750140 -0.145002
C25   C     C_2   0.567158 0.956182 0.494196 0.302841
F1    F     F_    0.387851 0.753457 0.098687 -0.691045
F2    F     F_    0.227226 0.617906 0.927577 -0.545554
F3    F     F_    0.203859 0.548092 0.083461 -0.599257
F4    F     F_    0.718617 0.012013 0.453536 -0.649168
F5    F     F_    0.776013 0.392127 0.926297 -0.501026
F6    F     F_    0.808620 0.464805 0.077003 -0.550125
F7    F     F_    0.251992 0.331013 0.939116 -0.591953
H1    H     H_    0.439417 0.747003 0.946328 0.075210
H2    H     H_    0.826152 0.257209 0.367644 0.206723
H3    H     H_    0.035584 0.234382 0.315741 0.137820
H4    H     H_    0.167646 0.726719 0.640008 0.189478
H5    H     H_    0.031485 0.559655 0.679403 0.164336
H6    H     H_    0.955328 0.751442 0.688572 0.131090
H7    H     H_    0.701066 0.849302 0.942496 0.217640
H8    H     H_    0.654229 0.775830 0.835339 0.135129
H9    H     H_    0.858646 0.860312 0.855098 0.224105
H10   H     H_    0.979226 0.719522 0.029628 0.276251
H11   H     H_    0.920374 0.706891 0.144641 0.218587
H12   H     H_    0.326894 0.290161 0.078786 0.157513
H13   H     H_    0.904823 0.884359 0.090965 0.140252
H14   H     H_    0.477756 0.989518 0.862228 0.133579
H15   H     H_    0.343685 0.044372 0.955913 0.170334
H16   H     H_    0.299486 0.102656 0.849744 0.183778
H17   H     H_    0.415479 0.047762 0.103263 0.182777
H18   H     H_    0.504916 0.177094 0.184276 0.119651
H19   H     H_    0.635557 0.039192 0.125463 0.220773
H20   H     H_    0.309058 0.162310 0.663550 0.177151
H21   H     H_    0.401385 0.977955 0.680813 0.125388
H22   H     H_    0.172697 0.994940 0.690070 0.190062
H23   H     H_    0.953892 0.423655 0.320742 0.143479
N1    N     N_2   0.950340 0.457950 0.477370 0.188944
N2    N     N_2   0.049660 0.542050 0.522630 0.190538
O1    O     O_R   0.389240 0.738570 0.505550 -0.604552
O2    O     O_3   0.286025 0.989479 0.566590 -0.569902
O3    O     O_3   0.032051 0.343132 0.433505 -0.511013
O4    O     O_3   0.967639 0.655391 0.567522 -0.509551
O5    O     O_3   0.811956 0.640964 0.899224 -0.545189
O6    O     O_3   0.716186 0.715099 0.068968 -0.704084
O7    O     O_3   0.511308 0.218544 0.900088 -0.557692
O8    O     O_R   0.678400 0.711630 0.491050 -0.535111
O9    O     O_R   0.355360 0.513470 0.630110 -0.660236
O10   O     O_R   0.644510 0.486530 0.615610 -0.586138
O11   O     O_R   0.321600 0.288370 0.508950 -0.549086
O12   O     O_R   0.610760 0.261430 0.494450 -0.596264
O13   O     O_R   0.355490 0.513470 0.384390 -0.584070
O14   O     O_R   0.644640 0.486530 0.369890 -0.656619
O15   O     O_3   0.585482 0.227752 0.057527 -0.502042
Zn1   Zn    Zn3+2 0.306930 0.517990 0.509680 1.070165
Zn2   Zn    Zn3+2 0.693070 0.482010 0.490320 1.076634

loop_
_geom_bond_atom_site_label_1
_geom_bond_atom_site_label_2
_ccdc_geom_bond_type
C14   H2    S    
O14   Zn2   S    
C2    C4    S    
C23   C24   T    
C17   H11   S    
C7    O5    S    
C6    C10   S    
C5    O13   A    
C11   H17   S    
C10   C23   S    
C7    C10   S    
C13   H20   S    
C14   O3    S    
C1    O8    A    
C19   C20   S    
C6    H1    S    
C18   H15   S    
O13   Zn1   S    
C14   H23   S    
C15   O4    S    
C7    C8    S    
C5    O14   A    
O10   Zn2   S    
C1    O1    A    
C17   O6    S    
C5    C9    S    
C14   H3    S    
O9    Zn1   S    
C18   O7    S    
C3    C24   S    
C15   H6    S    
C16   O5    S    
C16   H8    S    
C13   O2    S    
C18   H14   S    
C12   C19   S    
C4    O12   A    
C20   H12   S    
C17   H13   S    
C2    C25   D    
C13   H21   S    
C10   C21   S    
C6    C12   S    
C21   F7    S    
C3    O10   A    
C9    C22   T    
C3    O9    A    
N1    Zn2   S    
N1    N2    D    
N1    O3    S    
C16   H7    S    
C8    C19   S    
C2    O2    S    
C15   H4    S    
O12   Zn2   S    
C19   C22   S    
C11   H19   S    
C20   C21   S    
C12   F3    S    
C25   F4    S    
C4    O11   A    
C13   H22   S    
N2    Zn1   S    
N2    O4    S    
C7    F5    S    
C11   H18   S    
C17   H10   S    
C15   H5    S    
C21   O7    S    
C8    O6    S    
O11   Zn1   S    
C11   O15   S    
C8    F6    S    
C16   H9    S    
C1    C25   S    
C20   O15   S    
O8    Zn2   S    
C6    F2    S    
O1    Zn1   S    
C12   F1    S    
C18   H16   S    
