data_mof_unit_12297.cif
_audit_creation_date              2012-12-10T17:56:47-0500
_audit_creation_method            fapswitch 2.2
_symmetry_space_group_name_H-M    P1
_symmetry_Int_Tables_number       1
_space_group_crystal_system       triclinic
_cell_length_a                    10.862523
_cell_length_b                    9.52005
_cell_length_c                    10.782369
_cell_angle_alpha                 89.795429
_cell_angle_beta                  89.136787
_cell_angle_gamma                 89.841241
_cell_volume                      1114.88601251

loop_
_atom_site_label
_atom_site_type_symbol
_atom_type_description
_atom_site_fract_x
_atom_site_fract_y
_atom_site_fract_z
_atom_type_partial_charge
C1    C     C_R   0.262215 0.500579 0.496274 0.925166
C2    C     C_R   0.737887 0.500519 0.496840 0.802974
C3    C     C_R   0.936295 0.621502 0.444759 0.371561
C4    C     C_R   0.064770 0.619900 0.442032 0.407722
C5    C     C_R   0.435550 0.074985 0.413581 0.016838
C6    C     C_R   0.565245 0.073849 0.585869 0.014618
C7    C     C_R   0.436289 0.926265 0.413091 0.055193
C8    C     C_R   0.565075 0.925035 0.586003 0.047376
C9    C     C_R   0.503300 0.500093 0.262495 0.874232
C10   C     C_R   0.497262 0.499792 0.737287 0.874453
C11   C     C_R   0.728419 0.552457 0.120803 -0.236946
C12   C     C_R   0.722097 0.557844 0.862431 -0.279980
C13   C     C_R   0.836330 0.577275 0.051625 0.425131
C14   C     C_R   0.832706 0.581525 0.922172 0.384899
C15   C     C_R   0.612714 0.529705 0.930598 -0.014815
C16   C     C_R   0.615296 0.528604 0.061254 -0.023107
C17   C     C_R   0.505342 0.499550 0.128435 -0.205495
C18   C     C_R   0.501455 0.499276 0.870803 -0.204284
C19   C     C_R   0.396049 0.465913 0.067393 0.330664
C20   C     C_R   0.394162 0.465582 0.938294 0.328654
C21   C     C_R   0.063325 0.386362 0.535710 -0.119279
C22   C     C_R   0.936113 0.386256 0.535581 -0.163878
C23   C     C_R   0.871749 0.503318 0.491822 -0.178381
C24   C     C_R   0.128448 0.502802 0.490582 -0.155743
Cu1   Cu    Cu3+1 0.500000 0.640660 0.500000 1.041745
Cu2   Cu    Cu3+1 0.500000 0.359340 0.500000 1.008191
H1    H     H_    0.734436 0.549303 0.220818 0.172118
H2    H     H_    0.723496 0.559693 0.762170 0.164770
H3    H     H_    0.110848 0.295759 0.573075 0.202762
H4    H     H_    0.887925 0.295413 0.572506 0.188337
H5    H     H_    0.386270 0.870934 0.342654 0.183330
H6    H     H_    0.617510 0.868592 0.654713 0.140522
N1    N     N_R   0.500000 0.852070 0.500000 -0.176402
N2    N     N_R   0.500000 0.147940 0.500000 -0.180543
O1    O     O_R   0.319640 0.618740 0.499990 -0.540340
O2    O     O_R   0.680360 0.618740 0.500010 -0.547021
O3    O     O_R   0.319620 0.381170 0.499990 -0.577118
O4    O     O_R   0.680380 0.381170 0.500010 -0.593382
O5    O     O_R   0.500000 0.618810 0.319650 -0.569516
O6    O     O_R   0.500000 0.618810 0.680350 -0.585691
O7    O     O_R   0.499970 0.381240 0.319640 -0.575551
O8    O     O_R   0.500030 0.381240 0.680360 -0.575539
Cl1   Cl    Cl    0.260649 0.424094 0.153085 -0.462857
Cl2   Cl    Cl    0.256402 0.424475 0.860728 -0.460775
Cl3   Cl    Cl    0.976193 0.599213 0.128275 -0.393597
Cl4   Cl    Cl    0.965787 0.614413 0.831650 -0.475914
Cl5   Cl    Cl    0.860101 0.771794 0.384150 -0.493548
Cl6   Cl    Cl    0.142477 0.762825 0.370093 -0.472586
H7    H     H_    0.383637 0.131369 0.344440 0.167539
H8    H     H_    0.617798 0.129402 0.654474 0.133496

loop_
_geom_bond_atom_site_label_1
_geom_bond_atom_site_label_2
_ccdc_geom_bond_type
C15   C18   A    
Cu2   O3    S    
C11   H1    S    
C10   O8    A    
C11   C13   A    
C11   C16   A    
C2    O4    A    
C3    C23   A    
C19   C20   A    
C12   C15   A    
C1    O3    A    
C5    N2    A    
Cu1   N1    S    
C14   Cl4   S    
C21   C22   A    
Cu1   O5    S    
C13   Cl3   S    
C7    N1    A    
C5    H7    S    
C21   H3    S    
Cu1   O1    S    
C4    C24   A    
C9    C17   S    
C20   Cl2   S    
C19   Cl1   S    
C18   C20   A    
C8    N1    A    
Cu1   O6    S    
C10   C18   S    
C7    H5    S    
Cu1   O2    S    
C2    O2    A    
C15   C16   A    
C8    H6    S    
C17   C19   A    
C6    N2    A    
C9    O5    A    
Cu2   O8    S    
C1    C24   S    
C10   O6    A    
C4    Cl6   S    
C21   C24   A    
C3    Cl5   S    
C2    C23   S    
C5    C7    A    
C1    O1    A    
C22   C23   A    
Cu2   O4    S    
C6    C8    A    
C22   H4    S    
C12   H2    S    
Cu1   Cu2   S    
C13   C14   A    
C9    O7    A    
Cu2   N2    S    
C6    H8    S    
C3    C4    A    
Cu2   O7    S    
C12   C14   A    
C16   C17   A    
