data_mof_unit_64401.cif
_audit_creation_date              2012-12-10T16:46:18-0500
_audit_creation_method            fapswitch 2.2
_symmetry_space_group_name_H-M    P1
_symmetry_Int_Tables_number       1
_space_group_crystal_system       triclinic
_cell_length_a                    18.516956
_cell_length_b                    18.513766
_cell_length_c                    34.456487
_cell_angle_alpha                 89.977627
_cell_angle_beta                  90.023119
_cell_angle_gamma                 90.020652
_cell_volume                      11812.3216752

loop_
_atom_site_label
_atom_site_type_symbol
_atom_type_description
_atom_site_fract_x
_atom_site_fract_y
_atom_site_fract_z
_atom_type_partial_charge
C1    C     C_R   0.500574 0.000057 0.605649 0.840088
C2    C     C_R   0.129658 0.524406 0.229316 0.315162
C3    C     C_R   0.557529 0.033654 0.668158 0.157456
C4    C     C_R   0.523328 0.062234 0.167868 0.168288
C5    C     C_R   0.937548 0.475423 0.167662 0.145752
C6    C     C_R   0.481209 0.937250 0.167503 0.165600
C7    C     C_R   0.062487 0.518207 0.167665 0.157537
C8    C     C_R   0.000033 0.499997 0.647896 -0.204345
C9    C     C_R   0.500636 0.000298 0.647989 -0.188820
C10   C     C_R   0.500836 0.000318 0.147867 -0.183885
C11   C     C_R   0.999549 0.498319 0.147893 -0.153935
C12   C     C_R   0.976936 0.437579 0.708904 0.019632
C13   C     C_R   0.557125 0.119953 0.229426 0.331117
C14   C     C_R   0.560834 0.027602 0.709040 0.021985
C15   C     C_R   0.023041 0.562445 0.708889 0.019712
C16   C     C_R   0.440113 0.970641 0.708759 -0.001760
C17   C     C_R   0.484522 0.934859 0.208615 0.011016
C18   C     C_R   0.064612 0.513814 0.208680 -0.000464
C19   C     C_R   0.527929 0.060855 0.208805 0.020932
C20   C     C_R   0.937967 0.472247 0.208779 0.005287
C21   C     C_R   0.999978 0.500015 0.729476 -0.159764
C22   C     C_R   0.500411 0.999035 0.729422 -0.147758
C23   C     C_R   0.505388 0.998098 0.229315 -0.154214
C24   C     C_R   0.878325 0.444770 0.229690 0.317756
C25   C     C_R   0.001027 0.494086 0.229325 -0.136600
C26   C     C_3   0.969944 0.672667 0.640961 -0.700413
C27   C     C_3   0.335775 0.971721 0.625771 -0.652040
C28   C     C_3   0.030152 0.327306 0.641118 -0.701972
C29   C     C_3   0.602705 0.149101 0.645767 -0.642474
C30   C     C_3   0.474223 0.173038 0.141939 -0.709092
C31   C     C_3   0.863040 0.394790 0.127343 -0.613748
C32   C     C_3   0.379597 0.868285 0.140547 -0.648437
C33   C     C_3   0.165314 0.498781 0.123641 -0.662210
C34   C     C_3   0.366727 0.880864 0.355909 -0.661669
C35   C     C_R   0.464585 0.871992 0.270189 0.334960
C36   C     C_3   0.123546 0.628905 0.355816 -0.666915
C37   C     C_3   0.481649 0.170731 0.363272 -0.697683
C38   C     C_3   0.829600 0.523980 0.363288 -0.696929
C39   C     C_3   0.037700 0.329896 0.861051 -0.701774
C40   C     C_3   0.612747 0.141216 0.854073 -0.642405
C41   C     C_3   0.962219 0.670114 0.861000 -0.701522
C42   C     C_3   0.387586 0.858018 0.854655 -0.640925
C43   C     C_R   0.128754 0.530250 0.270090 0.336421
C44   C     C_R   0.552766 0.122079 0.270213 0.325013
C45   C     C_R   0.876065 0.450576 0.270431 0.341601
C46   C     C_R   0.955604 0.374993 0.770361 0.323912
C47   C     C_R   0.625325 0.042038 0.770568 0.323832
C48   C     C_R   0.044278 0.625056 0.770332 0.324248
C49   C     C_R   0.000012 0.500000 0.605619 0.803005
C50   C     C_R   0.375843 0.954797 0.770301 0.339130
C51   C     C_R   0.481098 0.935913 0.290983 0.016185
C52   C     C_R   0.064259 0.516548 0.290941 0.017001
C53   C     C_R   0.527129 0.061233 0.291056 0.017773
C54   C     C_R   0.937538 0.474737 0.291175 0.014953
C55   C     C_R   0.979825 0.436391 0.791167 0.020591
C56   C     C_R   0.561809 0.024266 0.791123 0.016861
C57   C     C_R   0.020072 0.563649 0.791151 0.020575
C58   C     C_R   0.438885 0.973649 0.791029 0.015883
C59   C     C_R   0.505109 0.998211 0.270478 -0.157490
C60   C     C_R   0.999010 0.499834 0.105614 0.895102
C61   C     C_R   0.001093 0.494597 0.270507 -0.157915
C62   C     C_R   0.999958 0.500019 0.770609 -0.159280
C63   C     C_R   0.500376 0.998924 0.770518 -0.155775
C64   C     C_R   0.475376 0.938588 0.331977 0.174551
C65   C     C_R   0.061980 0.522404 0.331928 0.175020
C66   C     C_R   0.523978 0.061555 0.332123 0.179140
C67   C     C_R   0.937417 0.478176 0.332239 0.177466
C68   C     C_R   0.983880 0.435926 0.832199 0.179774
C69   C     C_R   0.559230 0.029087 0.832048 0.177957
C70   C     C_R   0.016022 0.564106 0.832182 0.179826
C71   C     C_R   0.500073 0.000424 0.105604 0.843973
C72   C     C_R   0.441002 0.969825 0.832018 0.175784
C73   C     C_R   0.500033 0.999869 0.352009 -0.205728
C74   C     C_R   0.999957 0.500000 0.352032 -0.204192
C75   C     C_R   0.999957 0.500012 0.852116 -0.203700
C76   C     C_R   0.499946 0.999828 0.852070 -0.211672
C77   C     C_R   0.499941 0.000068 0.394344 0.806171
C78   C     C_R   0.999959 0.500069 0.394351 0.805450
C79   C     C_R   0.999987 0.500001 0.894382 0.807571
C80   C     C_R   0.499901 0.999986 0.894356 0.796819
C81   C     C_R   0.361349 0.138402 0.500148 0.853682
C82   C     C_R   0.949586 0.377628 0.729600 0.328952
C83   C     C_R   0.861282 0.361669 0.499912 0.851655
C84   C     C_R   0.638339 0.861275 0.499924 0.852830
C85   C     C_R   0.138446 0.638617 0.500113 0.852354
C86   C     C_R   0.638653 0.138395 0.500161 0.852806
C87   C     C_R   0.138703 0.361643 0.499936 0.852539
C88   C     C_R   0.361690 0.861246 0.499892 0.849523
C89   C     C_R   0.861602 0.638656 0.500147 0.852095
C90   C     C_R   0.861668 0.638725 0.999905 0.852384
C91   C     C_R   0.361600 0.861352 0.000147 0.852129
C92   C     C_R   0.138647 0.361592 0.000160 0.851721
C93   C     C_R   0.623558 0.048265 0.729825 0.320830
C94   C     C_R   0.638742 0.138323 0.999897 0.851197
C95   C     C_R   0.138327 0.638730 0.999910 0.849578
C96   C     C_R   0.638416 0.861355 0.000150 0.855601
C97   C     C_R   0.861333 0.361603 0.000162 0.846870
C98   C     C_R   0.361306 0.138365 0.999927 0.852799
C99   C     C_2   0.194118 0.749695 0.476388 -0.163917
C100  C     C_2   0.249396 0.193245 0.477066 -0.160322
C101  C     C_2   0.807861 0.248290 0.477903 -0.154579
C102  C     C_2   0.751743 0.807940 0.477946 -0.156936
C103  C     C_2   0.806675 0.750541 0.477007 -0.160244
C104  C     C_R   0.050339 0.622415 0.729577 0.329256
C105  C     C_2   0.750403 0.193402 0.476960 -0.152880
C106  C     C_2   0.192014 0.248196 0.477988 -0.157178
C107  C     C_2   0.249007 0.807168 0.477294 -0.164594
C108  C     C_2   0.692397 0.251446 0.977651 -0.163763
C109  C     C_2   0.748265 0.692118 0.977900 -0.160581
C110  C     C_2   0.306233 0.749960 0.976679 -0.158742
C111  C     C_2   0.250549 0.306775 0.977068 -0.160796
C112  C     C_2   0.307964 0.251854 0.977984 -0.158900
C113  C     C_2   0.251428 0.692419 0.977669 -0.157043
C114  C     C_2   0.693310 0.749502 0.977005 -0.158435
C115  C     C_R   0.377966 0.948299 0.729549 0.316554
C116  C     C_2   0.749840 0.306354 0.976751 -0.153772
C117  C     C_2   0.193352 0.694406 0.501555 -0.286403
C118  C     C_2   0.305550 0.193273 0.501665 -0.293286
C119  C     C_2   0.803877 0.308378 0.499522 -0.290591
C120  C     C_2   0.691654 0.803902 0.499569 -0.290042
C121  C     C_2   0.806753 0.694478 0.501670 -0.292728
C122  C     C_2   0.694533 0.193206 0.501721 -0.292787
C123  C     C_2   0.196031 0.308289 0.499615 -0.292824
C124  C     C_2   0.308472 0.803781 0.499459 -0.288012
C125  C     C_2   0.696160 0.191593 0.999494 -0.287983
C126  C     C_R   0.470068 0.870608 0.229391 0.328885
C127  C     C_2   0.808365 0.696096 0.999534 -0.291809
C128  C     C_2   0.306834 0.805429 0.001705 -0.293962
C129  C     C_2   0.194457 0.306724 0.001690 -0.293094
C130  C     C_2   0.303974 0.191714 0.999591 -0.292359
C131  C     C_2   0.191567 0.696196 0.999478 -0.290496
C132  C     C_2   0.693320 0.805571 0.001649 -0.291236
C133  C     C_2   0.805438 0.306810 0.001716 -0.293658
C134  C     C_R   0.019782 0.563014 0.667870 0.183273
C135  C     C_R   0.443395 0.966939 0.667701 0.177037
C136  C     C_R   0.980259 0.436989 0.667890 0.183339
H1    H     H_    0.152389 0.754059 0.454337 0.172687
H2    H     H_    0.738761 0.645330 0.959575 0.176429
H3    H     H_    0.023393 0.277802 0.875051 0.234957
H4    H     H_    0.629223 0.040458 0.879552 0.213321
H5    H     H_    0.563859 0.159186 0.870020 0.227511
H6    H     H_    0.611330 0.163582 0.824163 0.240366
H7    H     H_    0.661255 0.162924 0.869016 0.228083
H8    H     H_    0.059869 0.624258 0.877720 0.229010
H9    H     H_    0.925711 0.639660 0.880672 0.218410
H10   H     H_    0.933599 0.681916 0.833360 0.252731
H11   H     H_    0.976536 0.722205 0.874983 0.234738
H12   H     H_    0.370610 0.959310 0.879371 0.212811
H13   H     H_    0.348030 0.745496 0.954690 0.173398
H14   H     H_    0.436336 0.840523 0.870896 0.227567
H15   H     H_    0.389403 0.834954 0.824916 0.241856
H16   H     H_    0.338973 0.836520 0.869576 0.226597
H17   H     H_    0.255614 0.349198 0.955447 0.176190
H18   H     H_    0.354760 0.261391 0.959675 0.175731
H19   H     H_    0.260773 0.645764 0.959233 0.176919
H20   H     H_    0.650884 0.744421 0.955391 0.176127
H21   H     H_    0.745219 0.348331 0.954851 0.176841
H22   H     H_    0.232750 0.688937 0.524521 0.152913
H23   H     H_    0.311729 0.233314 0.524244 0.151383
H24   H     H_    0.757401 0.320931 0.517251 0.152278
H25   H     H_    0.244259 0.150826 0.455462 0.175529
H26   H     H_    0.679127 0.757433 0.517337 0.152185
H27   H     H_    0.766819 0.688408 0.524310 0.152228
H28   H     H_    0.688694 0.232977 0.524464 0.150414
H29   H     H_    0.242442 0.320794 0.517424 0.151942
H30   H     H_    0.320618 0.757719 0.517603 0.153229
H31   H     H_    0.742474 0.179211 0.017404 0.153104
H32   H     H_    0.820899 0.742509 0.017327 0.152542
H33   H     H_    0.267446 0.810872 0.024667 0.149027
H34   H     H_    0.188356 0.266687 0.024292 0.151634
H35   H     H_    0.257561 0.179162 0.017375 0.151697
H36   H     H_    0.854661 0.238789 0.459602 0.177739
H37   H     H_    0.179128 0.742599 0.017293 0.151947
H38   H     H_    0.733367 0.811687 0.024242 0.152315
H39   H     H_    0.811068 0.267248 0.024597 0.151325
H40   H     H_    0.063725 0.622241 0.621904 0.230928
H41   H     H_    0.986001 0.724076 0.626778 0.234746
H42   H     H_    0.944423 0.685666 0.669294 0.253222
H43   H     H_    0.930190 0.644539 0.622103 0.215671
H44   H     H_    0.376900 0.877352 0.653496 0.265156
H45   H     H_    0.281835 0.960116 0.638354 0.263076
H46   H     H_    0.334949 0.957038 0.594546 0.205813
H47   H     H_    0.761235 0.854778 0.459641 0.177399
H48   H     H_    0.346571 0.030634 0.628311 0.219228
H49   H     H_    0.936431 0.377723 0.621909 0.231109
H50   H     H_    0.014138 0.275908 0.626923 0.234767
H51   H     H_    0.055556 0.314282 0.669495 0.252854
H52   H     H_    0.069988 0.355435 0.622316 0.215707
H53   H     H_    0.627256 0.049391 0.620950 0.211875
H54   H     H_    0.649931 0.174243 0.631212 0.226710
H55   H     H_    0.598473 0.171740 0.675532 0.237279
H56   H     H_    0.553146 0.163127 0.629272 0.232451
H57   H     H_    0.566598 0.121561 0.121760 0.230280
H58   H     H_    0.848999 0.755601 0.455349 0.175764
H59   H     H_    0.490552 0.224417 0.127814 0.235458
H60   H     H_    0.449865 0.185986 0.170573 0.253596
H61   H     H_    0.433427 0.145767 0.123360 0.212363
H62   H     H_    0.826881 0.490260 0.155179 0.262555
H63   H     H_    0.814176 0.367817 0.139106 0.252358
H64   H     H_    0.910281 0.358754 0.132067 0.243844
H65   H     H_    0.855175 0.402620 0.095699 0.213828
H66   H     H_    0.489198 0.832436 0.143040 0.263719
H67   H     H_    0.361315 0.820529 0.157364 0.256207
H68   H     H_    0.366773 0.859366 0.109450 0.225742
H69   H     H_    0.755259 0.151209 0.455215 0.178205
H70   H     H_    0.349483 0.916711 0.150676 0.228500
H71   H     H_    0.145771 0.593864 0.156443 0.266282
H72   H     H_    0.221447 0.499381 0.134963 0.258612
H73   H     H_    0.166233 0.516238 0.092826 0.202180
H74   H     H_    0.144510 0.442476 0.125069 0.228437
H75   H     H_    0.876316 0.302250 0.726594 0.348708
H76   H     H_    0.709510 0.108053 0.726132 0.344216
H77   H     H_    0.123567 0.697836 0.726589 0.348613
H78   H     H_    0.293696 0.886187 0.726120 0.346231
H79   H     H_    0.483997 0.766615 0.226079 0.352093
H80   H     H_    0.145204 0.238713 0.459667 0.177173
H81   H     H_    0.232552 0.503163 0.226281 0.354012
H82   H     H_    0.632012 0.193665 0.225909 0.349936
H83   H     H_    0.804238 0.370229 0.227137 0.355318
H84   H     H_    0.409777 0.782798 0.274231 0.343668
H85   H     H_    0.220966 0.579959 0.273676 0.342498
H86   H     H_    0.562919 0.226384 0.273835 0.345104
H87   H     H_    0.771501 0.442809 0.273802 0.345900
H88   H     H_    0.947535 0.270523 0.773811 0.345318
H89   H     H_    0.730107 0.034035 0.773771 0.350923
H90   H     H_    0.052273 0.729533 0.773736 0.345273
H91   H     H_    0.240012 0.853487 0.458540 0.173733
H92   H     H_    0.270900 0.961152 0.773134 0.351672
H93   H     H_    0.469672 0.867654 0.379224 0.211288
H94   H     H_    0.348264 0.927978 0.373140 0.233159
H95   H     H_    0.347657 0.830695 0.370302 0.226676
H96   H     H_    0.342056 0.883683 0.326555 0.239541
H97   H     H_    0.133211 0.525566 0.379093 0.211054
H98   H     H_    0.077154 0.648911 0.373118 0.232515
H99   H     H_    0.121502 0.653684 0.326467 0.240647
H100  H     H_    0.174379 0.646219 0.370169 0.226984
H101  H     H_    0.577133 0.116817 0.376558 0.236438
H102  H     H_    0.645809 0.260725 0.959134 0.174123
H103  H     H_    0.445293 0.143156 0.384194 0.210937
H104  H     H_    0.450744 0.184940 0.336691 0.253093
H105  H     H_    0.501654 0.221435 0.376701 0.235960
H106  H     H_    0.880895 0.427276 0.376959 0.234829
H107  H     H_    0.858272 0.559847 0.384028 0.212258
H108  H     H_    0.778413 0.505610 0.376853 0.235590
H109  H     H_    0.816168 0.554905 0.336596 0.253495
H110  H     H_    0.940077 0.375759 0.877751 0.228836
H111  H     H_    0.074239 0.360337 0.880716 0.218225
H112  H     H_    0.066283 0.318098 0.833418 0.252371
N1    N     N_2   0.033120 0.627986 0.646680 -0.233705
N2    N     N_2   0.121969 0.550842 0.353114 -0.228798
N3    N     N_2   0.542355 0.124903 0.353616 -0.232207
N4    N     N_2   0.873647 0.461852 0.353842 -0.232318
N5    N     N_2   0.972609 0.370858 0.853631 -0.232870
N6    N     N_2   0.616439 0.063133 0.853096 -0.230568
N7    N     N_2   0.027307 0.629165 0.853596 -0.232909
N8    N     N_2   0.383693 0.936071 0.853114 -0.231038
N9    N     N_2   0.390460 0.929210 0.645384 -0.266446
N10   N     N_2   0.966966 0.372000 0.646726 -0.233229
N11   N     N_2   0.612339 0.071525 0.647200 -0.230600
N12   N     N_2   0.536918 0.127356 0.146853 -0.233073
N13   N     N_2   0.873005 0.464617 0.145650 -0.303696
N14   N     N_2   0.456828 0.877579 0.144855 -0.286170
N15   N     N_2   0.120750 0.548246 0.145769 -0.278463
N16   N     N_2   0.444803 0.879741 0.353242 -0.228968
O1    O     O_3   0.500000 0.000000 0.500000 -0.486404
O2    O     O_R   0.560130 0.000000 0.087440 -0.651714
O3    O     O_R   0.000000 0.560130 0.087440 -0.632998
O4    O     O_R   0.439870 0.000000 0.087440 -0.630332
O5    O     O_R   0.439940 0.000000 0.412560 -0.646722
O6    O     O_R   0.000000 0.439940 0.412560 -0.647020
O7    O     O_R   0.560060 0.000000 0.412560 -0.647581
O8    O     O_R   0.000000 0.560060 0.412560 -0.646873
O9    O     O_R   0.939940 0.500000 0.912560 -0.647209
O10   O     O_R   0.500000 0.939940 0.912560 -0.644675
O11   O     O_R   0.060060 0.500000 0.912560 -0.646938
O12   O     O_3   1.000000 0.500000 0.500000 -0.485349
O13   O     O_R   0.500000 0.060060 0.912560 -0.643999
O14   O     O_R   0.415450 0.144560 0.522930 -0.642920
O15   O     O_R   0.855440 0.415450 0.522930 -0.643581
O16   O     O_R   0.584550 0.855440 0.522930 -0.643525
O17   O     O_R   0.144560 0.584550 0.522930 -0.643225
O18   O     O_R   0.584550 0.144560 0.522930 -0.646394
O19   O     O_R   0.144560 0.415450 0.522930 -0.643421
O20   O     O_R   0.415450 0.855440 0.522930 -0.640455
O21   O     O_R   0.855440 0.584550 0.522930 -0.642618
O22   O     O_R   0.915450 0.644560 0.022930 -0.642602
O23   O     O_3   0.000000 0.500000 0.000000 -0.487705
O24   O     O_R   0.355440 0.915450 0.022930 -0.646718
O25   O     O_R   0.084550 0.355440 0.022930 -0.642788
O26   O     O_R   0.644560 0.084550 0.022930 -0.644186
O27   O     O_R   0.084550 0.644560 0.022930 -0.641556
O28   O     O_R   0.644560 0.915450 0.022930 -0.640547
O29   O     O_R   0.915450 0.355440 0.022930 -0.649613
O30   O     O_R   0.355440 0.084550 0.022930 -0.645454
O31   O     O_R   0.644640 0.915430 0.477080 -0.641502
O32   O     O_R   0.084570 0.644640 0.477080 -0.645700
O33   O     O_R   0.355360 0.084570 0.477080 -0.644991
O34   O     O_3   0.500000 0.000000 0.000000 -0.486398
O35   O     O_R   0.915430 0.355360 0.477080 -0.644317
O36   O     O_R   0.355360 0.915430 0.477080 -0.646595
O37   O     O_R   0.915430 0.644640 0.477080 -0.644716
O38   O     O_R   0.644640 0.084570 0.477080 -0.643838
O39   O     O_R   0.084570 0.355360 0.477080 -0.641212
O40   O     O_R   0.144640 0.415430 0.977080 -0.644070
O41   O     O_R   0.584570 0.144640 0.977080 -0.646091
O42   O     O_R   0.855360 0.584570 0.977080 -0.644237
O43   O     O_R   0.415430 0.855360 0.977080 -0.644317
O44   O     O_R   0.855360 0.415430 0.977080 -0.642095
O45   O     O_R   0.500000 0.939870 0.587440 -0.623844
O46   O     O_R   0.415430 0.144640 0.977080 -0.642908
O47   O     O_R   0.144640 0.584570 0.977080 -0.644697
O48   O     O_R   0.584570 0.855360 0.977080 -0.643211
O49   O     O_3   0.914315 0.323122 0.709731 -0.743757
O50   O     O_3   0.684070 0.071698 0.710019 -0.745520
O51   O     O_3   0.085597 0.676938 0.709708 -0.744146
O52   O     O_3   0.318140 0.923041 0.709883 -0.790890
O53   O     O_3   0.464089 0.805907 0.209728 -0.796491
O54   O     O_3   0.194521 0.524218 0.209498 -0.790432
O55   O     O_3   0.592794 0.174036 0.209413 -0.743282
O56   O     O_R   0.060130 0.500000 0.587440 -0.644860
O57   O     O_3   0.823908 0.408832 0.210229 -0.789953
O58   O     O_3   0.445349 0.810011 0.290011 -0.748350
O59   O     O_3   0.191618 0.546729 0.289823 -0.747714
O60   O     O_3   0.574384 0.183428 0.289884 -0.742140
O61   O     O_3   0.814018 0.431304 0.290174 -0.742873
O62   O     O_3   0.935925 0.313072 0.790115 -0.743764
O63   O     O_3   0.689648 0.049750 0.790574 -0.746082
O64   O     O_3   0.063897 0.686996 0.790070 -0.743556
O65   O     O_3   0.311446 0.946288 0.790125 -0.747571
O66   O     O_R   0.500000 0.060130 0.587440 -0.654004
O67   O     O_R   0.939870 0.500000 0.587440 -0.644716
O68   O     O_R   0.000000 0.439870 0.087440 -0.650524
Zn1   Zn    Zn3+2 0.414160 0.000000 0.467250 0.949736
Zn2   Zn    Zn3+2 0.914220 0.500000 0.532750 0.966358
Zn3   Zn    Zn3+2 0.500000 0.914220 0.532750 0.974315
Zn4   Zn    Zn3+2 0.085780 0.500000 0.532750 0.966721
Zn5   Zn    Zn3+2 0.000000 0.585780 0.032750 0.975261
Zn6   Zn    Zn3+2 0.414220 0.000000 0.032750 0.965415
Zn7   Zn    Zn3+2 0.000000 0.414220 0.032750 0.958145
Zn8   Zn    Zn3+2 0.585780 0.000000 0.032750 0.971514
Zn9   Zn    Zn3+2 0.000000 0.414160 0.467250 0.962797
Zn10  Zn    Zn3+2 0.585840 0.000000 0.467250 0.961768
Zn11  Zn    Zn3+2 0.000000 0.585840 0.467250 0.951248
Zn12  Zn    Zn3+2 0.914160 0.500000 0.967250 0.958190
Zn13  Zn    Zn3+2 0.500000 0.914160 0.967250 0.956726
Zn14  Zn    Zn3+2 0.085840 0.500000 0.967250 0.956608
Zn15  Zn    Zn3+2 0.500000 0.085840 0.967250 0.953797
Zn16  Zn    Zn3+2 0.500000 0.085780 0.532750 0.956612

loop_
_geom_bond_atom_site_label_1
_geom_bond_atom_site_label_2
_ccdc_geom_bond_type
C33   H72   S    
C89   O21   A    
O17   Zn4   S    
C94   O26   A    
C34   H94   S    
C68   C75   A    
O32   Zn11  S    
C83   O15   A    
C52   C61   A    
O33   Zn1   S    
C37   H103  S    
C55   C62   A    
O23   Zn7   S    
C83   C119  S    
O20   Zn3   S    
C44   C53   A    
C109  C127  D    
C46   C55   A    
C98   O46   A    
C36   N2    S    
C100  H25   S    
C40   N6    S    
C10   C71   S    
C4    N12   S    
C85   O17   A    
C92   O40   A    
C5    N13   S    
H85   O59   S    
C18   C25   A    
C107  C124  D    
C113  H19   S    
H66   N14   S    
C114  H20   S    
C31   H64   S    
H97   N2    S    
C27   N9    S    
H8    N7    S    
O5    Zn1   S    
H53   N11   S    
O34   Zn8   S    
C28   H51   S    
C116  C133  D    
C37   N3    S    
C38   H109  S    
C36   H99   S    
H77   O51   S    
C19   C23   A    
H78   O52   S    
C26   N1    S    
C30   H59   S    
C130  H35   S    
C47   C93   A    
O4    Zn6   S    
C67   C74   A    
C85   C117  S    
C21   C62   A    
H44   N9    S    
C54   C61   A    
C35   C51   A    
C80   O13   A    
H83   O57   S    
C60   O3    A    
C32   H70   S    
C11   C60   S    
C103  C121  D    
C16   C115  A    
O24   Zn6   S    
H93   N16   S    
C97   O44   A    
O37   Zn11  S    
C51   C64   A    
C96   O28   A    
O6    Zn9   S    
C115  O52   S    
C39   N5    S    
H110  N5    S    
C106  H80   S    
C100  C106  S    
O23   Zn5   S    
O12   Zn2   S    
C31   N13   S    
C32   H67   S    
O43   Zn13  S    
C3    N11   S    
C39   H112  S    
H49   N10   S    
C50   O65   S    
C73   C77   S    
C75   C79   S    
C13   C44   A    
C52   C65   A    
C110  C128  D    
O38   Zn10  S    
C91   O43   A    
C71   O4    A    
O9    Zn12  S    
C87   O39   A    
C111  C112  S    
O34   Zn6   S    
C97   C133  S    
C88   C124  S    
O27   Zn5   S    
C48   C57   A    
C5    C20   A    
C26   H43   S    
O3    Zn5   S    
H88   O62   S    
C38   H107  S    
C17   C23   A    
C30   N12   S    
O45   Zn3   S    
H84   O58   S    
C43   C52   A    
C44   O60   S    
C36   H98   S    
C121  H27   S    
H57   N12   S    
C122  H28   S    
C101  H36   S    
O34   Zn15  S    
H92   O65   S    
O66   Zn16  S    
C22   C63   A    
C46   C82   A    
C68   N5    S    
C38   N4    S    
O21   Zn2   S    
C86   O38   A    
C107  H91   S    
C90   O22   A    
H81   O54   S    
C29   H55   S    
C7    N15   S    
C103  H58   S    
C95   O27   A    
C14   C93   A    
C89   O37   A    
C128  H33   S    
C112  H18   S    
C65   N2    S    
O41   Zn15  S    
C88   O20   A    
C69   N6    S    
C56   C63   A    
C37   H105  S    
O12   Zn4   S    
C8    C134  A    
C129  H34   S    
C65   C74   A    
C2    O54   S    
C109  H2    S    
C27   H45   S    
C3    C9    A    
C28   H50   S    
O1    Zn10  S    
C99   C117  D    
C111  H17   S    
C33   H74   S    
O23   Zn14  S    
O12   Zn9   S    
C86   O18   A    
C6    N14   S    
C132  H38   S    
C42   H15   S    
C133  H39   S    
C95   O47   A    
C109  C114  S    
C9    C135  A    
H12   N8    S    
C71   O2    A    
C28   N10   S    
C77   O5    A    
C26   H41   S    
C6    C17   A    
C79   O11   A    
C117  H22   S    
C76   C80   S    
C126  O53   S    
C36   H100  S    
C41   N7    S    
O34   Zn13  S    
H106  N4    S    
C14   C22   A    
C87   C123  S    
O28   Zn8   S    
C84   O16   A    
O2    Zn8   S    
C105  C122  D    
C102  C103  S    
O67   Zn2   S    
C38   H108  S    
C45   O61   S    
C29   N11   S    
C56   C69   A    
C12   C136  A    
C40   H7    S    
C70   C75   A    
O29   Zn7   S    
C35   O58   S    
C112  C130  D    
C60   O68   A    
C47   C56   A    
C83   O35   A    
C8    C136  A    
H89   O63   S    
C31   H63   S    
C55   C68   A    
C118  H23   S    
C15   C134  A    
C24   O57   S    
C97   O29   A    
C102  H47   S    
O36   Zn1   S    
C125  H31   S    
C5    C11   A    
O47   Zn14  S    
C28   H52   S    
C17   C126  A    
C94   C125  S    
C20   C25   A    
C82   O49   S    
O18   Zn16  S    
O12   Zn11  S    
C50   C115  A    
C111  C129  D    
C30   H60   S    
H87   O61   S    
C34   H95   S    
C127  H32   S    
C86   C122  S    
C90   C127  S    
C77   O7    A    
C88   O36   A    
C78   O8    A    
C57   C70   A    
H90   O64   S    
C67   N4    S    
C79   O9    A    
O40   Zn14  S    
C95   C131  S    
C91   O24   A    
C72   N8    S    
O68   Zn7   S    
C39   H3    S    
C135  N9    S    
C91   C128  S    
C13   C19   A    
C81   O14   A    
C50   C58   A    
C1    C9    S    
H40   N1    S    
C84   O31   A    
C37   H104  S    
C81   C118  S    
O35   Zn9   S    
C32   H68   S    
C23   C59   A    
H62   N13   S    
C84   C120  S    
C98   C130  S    
C49   O67   A    
O1    Zn1   S    
O25   Zn7   S    
C3    C14   A    
C96   O48   A    
H86   O60   S    
C1    O66   A    
O48   Zn13  S    
C108  H102  S    
H4    N6    S    
C102  C120  D    
C1    O45   A    
C66   N3    S    
C16   C22   A    
O10   Zn13  S    
C34   H96   S    
C70   N7    S    
C6    C10   A    
C64   N16   S    
C105  H69   S    
C99   C107  S    
C33   N15   S    
C34   N16   S    
C108  C116  S    
C92   C129  S    
C120  H26   S    
C85   O32   A    
C89   C121  S    
H82   O55   S    
C78   O6    A    
C87   O19   A    
C116  H21   S    
C41   H9    S    
C74   C78   S    
C49   O56   A    
C104  O51   S    
O14   Zn16  S    
C29   H54   S    
C134  N1    S    
C8    C49   S    
C40   H6    S    
C2    C18   A    
H76   O50   S    
C13   O55   S    
C72   C76   A    
C110  H13   S    
C53   C59   A    
C57   C62   A    
C7    C11   A    
C47   O63   S    
C69   C76   A    
C24   C45   A    
O39   Zn9   S    
C48   C104  A    
O1    Zn3   S    
C27   H48   S    
C4    C19   A    
C33   H73   S    
C20   C24   A    
C119  H24   S    
C94   O41   A    
C92   O25   A    
O8    Zn11  S    
C15   C104  A    
C42   H16   S    
C96   C132  S    
O30   Zn6   S    
O56   Zn4   S    
C98   O30   A    
O26   Zn8   S    
O1    Zn16  S    
C26   H42   S    
C101  C105  S    
C46   O62   S    
C41   H10   S    
C101  C119  D    
O44   Zn12  S    
C43   O59   S    
O19   Zn4   S    
H75   O49   S    
C25   C61   A    
C54   C67   A    
C66   C73   A    
C12   C21   A    
C131  H37   S    
C106  C123  D    
C35   C126  A    
C81   O33   A    
O16   Zn3   S    
C41   H11   S    
C42   N8    S    
C2    C43   A    
C64   C73   A    
C7    C18   A    
C93   O50   S    
C80   O10   A    
C29   H56   S    
C12   C82   A    
C32   N14   S    
C53   C66   A    
C110  C113  S    
O7    Zn10  S    
C124  H30   S    
C45   C54   A    
C136  N10   S    
C108  C125  D    
C39   H111  S    
C51   C59   A    
C4    C10   A    
O13   Zn15  S    
C58   C63   A    
O23   Zn12  S    
C113  C131  D    
C114  C132  D    
C99   H1    S    
C90   O42   A    
O42   Zn12  S    
H79   O53   S    
O22   Zn5   S    
C27   H46   S    
O46   Zn15  S    
O11   Zn14  S    
C58   C72   A    
H71   N15   S    
C48   O64   S    
O15   Zn2   S    
C42   H14   S    
C31   H65   S    
C123  H29   S    
C15   C21   A    
C30   H61   S    
C100  C118  D    
H101  N3    S    
O31   Zn10  S    
C40   H5    S    
C16   C135  A    
