data_mof_unit_23717.cif
_audit_creation_date              2012-12-10T17:08:45-0500
_audit_creation_method            fapswitch 2.2
_symmetry_space_group_name_H-M    P1
_symmetry_Int_Tables_number       1
_space_group_crystal_system       triclinic
_cell_length_a                    27.749862
_cell_length_b                    10.797587
_cell_length_c                    9.831308
_cell_angle_alpha                 109.939496
_cell_angle_beta                  99.272723
_cell_angle_gamma                 90.04326
_cell_volume                      2728.06368479

loop_
_atom_site_label
_atom_site_type_symbol
_atom_type_description
_atom_site_fract_x
_atom_site_fract_y
_atom_site_fract_z
_atom_type_partial_charge
C1    C     C_R   0.494381 0.253002 0.442768 0.699960
C2    C     C_R   0.500884 0.746983 0.557216 0.693716
C3    C     C_R   0.103083 0.510231 0.531854 -0.043145
C4    C     C_R   0.900005 0.512952 0.528810 -0.045366
C5    C     C_R   0.130253 0.408507 0.558330 -0.015380
C6    C     C_R   0.874613 0.626912 0.535125 -0.018360
C7    C     C_R   0.107848 0.315533 0.602039 -0.216725
C8    C     C_R   0.900843 0.745639 0.560271 -0.222848
C9    C     C_R   0.126008 0.606034 0.492002 -0.021260
C10   C     C_R   0.873737 0.394334 0.507985 -0.020788
C11   C     C_R   0.354411 0.499446 0.501770 -0.055107
C12   C     C_R   0.645703 0.500609 0.500069 -0.043541
C13   C     C_R   0.977085 0.404094 0.545756 0.074236
C14   C     C_R   0.026674 0.623630 0.526774 0.073077
C15   C     C_R   0.977345 0.633473 0.549853 0.033188
C16   C     C_R   0.029059 0.412142 0.570608 0.036268
C17   C     C_R   0.951600 0.517146 0.542216 0.037996
C18   C     C_R   0.052904 0.515626 0.543885 0.041164
C19   C     C_R   0.949669 0.284477 0.513810 -0.122875
C20   C     C_R   0.049574 0.712683 0.476873 -0.123080
C21   C     C_R   0.898904 0.280050 0.497268 -0.138909
C22   C     C_R   0.098571 0.705106 0.461671 -0.129796
C23   C     C_R   0.407417 0.499820 0.500290 0.776837
C24   C     C_R   0.592588 0.500096 0.499833 0.814897
C25   C     C_R   0.058348 0.319413 0.614998 -0.035476
C26   C     C_R   0.951868 0.751906 0.574377 -0.023931
C27   C     C_2   0.487364 0.110721 0.417926 0.214390
C28   C     C_2   0.496239 0.889147 0.581817 0.212720
C29   C     C_2   0.462572 0.069563 0.504855 0.055188
C30   C     C_2   0.462019 0.929284 0.492519 0.054416
C31   C     C_2   0.507873 0.497519 0.078073 -0.051011
C32   C     C_2   0.500535 0.478860 0.917153 -0.051134
C33   C     C_R   0.180050 0.405411 0.546557 0.554400
C34   C     C_R   0.823457 0.620830 0.523318 0.549349
C35   C     C_R   0.175908 0.599561 0.482049 0.549992
C36   C     C_R   0.822662 0.392688 0.496560 0.542386
C37   C     C_R   0.286942 0.518680 0.635877 -0.080620
C38   C     C_R   0.728587 0.505702 0.628060 -0.099423
C39   C     C_R   0.337009 0.518414 0.633624 -0.190500
C40   C     C_R   0.678321 0.504796 0.627031 -0.204344
C41   C     C_R   0.320719 0.480225 0.372127 -0.178721
C42   C     C_R   0.664382 0.497568 0.374251 -0.201285
C43   C     C_R   0.270558 0.480146 0.374604 -0.082612
C44   C     C_R   0.714795 0.499273 0.375916 -0.095087
C45   C     C_R   0.253468 0.499492 0.506545 0.334321
C46   C     C_R   0.746966 0.503171 0.502794 0.354349
Cu1   Cu    Cu3+1 0.508480 0.521810 0.644910 0.960404
Cu2   Cu    Cu3+1 0.491520 0.478190 0.355090 1.010892
H1    H     H_    0.333062 0.465279 0.268945 0.182079
H2    H     H_    0.640127 0.494691 0.275047 0.155073
H3    H     H_    0.478252 0.394084 0.840075 0.142523
H4    H     H_    0.540199 0.554372 0.148971 0.190040
H5    H     H_    0.244938 0.464897 0.274028 0.156442
H6    H     H_    0.728888 0.497352 0.278769 0.140160
H7    H     H_    0.129498 0.242645 0.632795 0.187208
H8    H     H_    0.881756 0.835763 0.575842 0.185178
H9    H     H_    0.665054 0.507007 0.725520 0.158937
H10   H     H_    0.362028 0.533337 0.735275 0.169427
H11   H     H_    0.753373 0.508913 0.726454 0.141833
H12   H     H_    0.274076 0.534329 0.738447 0.154542
H13   H     H_    0.879468 0.186394 0.475466 0.184505
H14   H     H_    0.114781 0.777020 0.425324 0.190076
H15   H     H_    0.966975 0.192023 0.496507 0.135822
H16   H     H_    0.029513 0.786588 0.444259 0.139952
N1    N     N_R   0.201923 0.500710 0.510152 -0.471026
N2    N     N_R   0.798744 0.505166 0.505495 -0.472879
N3    N     N_2   0.478780 0.445430 0.137360 -0.242566
N4    N     N_2   0.521220 0.554570 0.862640 -0.239912
O1    O     O_R   0.504520 0.332330 0.577400 -0.598426
O2    O     O_R   0.495480 0.667670 0.422600 -0.580552
O3    O     O_R   0.490210 0.295500 0.332650 -0.515641
O4    O     O_R   0.509790 0.704500 0.667350 -0.572090
O5    O     O_R   0.437420 0.518430 0.622370 -0.587507
O6    O     O_R   0.562580 0.481570 0.377630 -0.583855
O7    O     O_R   0.423110 0.481600 0.377610 -0.558993
O8    O     O_R   0.576890 0.518400 0.622390 -0.593894
O9    O     O_2   0.206419 0.307762 0.570961 -0.515331
O10   O     O_2   0.798641 0.729860 0.531440 -0.524062
O11   O     O_2   0.797069 0.279878 0.477219 -0.522620
O12   O     O_2   0.198428 0.692447 0.446866 -0.515877
O13   O     O_3   0.528125 0.982594 0.691632 -0.696477
H17   H     H_    0.551534 0.936150 0.741833 0.333630
O14   O     O_3   0.507969 0.018309 0.310530 -0.652096
H18   H     H_    0.526030 0.065553 0.261905 0.346340
C47   C     C_2   0.548580 0.674454 0.953289 0.583571
H19   H     H_    0.578466 0.708933 0.914049 0.046171
O15   O     O_2   0.536699 0.744654 0.068065 -0.538285
C48   C     C_2   0.433795 0.376591 0.053748 0.658731
H20   H     H_    0.416544 0.391689 0.953932 -0.008186
O16   O     O_2   0.413130 0.300418 0.095987 -0.496507
C49   C     C_2   0.041618 0.237662 0.694936 0.345716
H21   H     H_    0.058708 0.146220 0.690259 0.109490
O17   O     O_2   0.010788 0.275091 0.773426 -0.507334
C50   C     C_2   0.976472 0.886237 0.635721 0.341842
H22   H     H_    0.958096 0.968298 0.614719 0.077283
O18   O     O_2   0.016075 0.908092 0.717125 -0.515892
C51   C     C_2   0.421079 0.840161 0.387898 0.415612
H23   H     H_    0.412313 0.744498 0.393766 0.056390
O19   O     O_2   0.395733 0.874889 0.295282 -0.490457
C52   C     C_2   0.432207 0.157316 0.605618 0.353462
H24   H     H_    0.422888 0.252730 0.598828 0.059054
O20   O     O_2   0.416227 0.121810 0.695954 -0.503443

loop_
_geom_bond_atom_site_label_1
_geom_bond_atom_site_label_2
_ccdc_geom_bond_type
C26   C50   S    
C20   H16   S    
C27   C29   D    
C8    C26   A    
C14   C18   A    
C7    H7    S    
C31   H4    S    
C24   O6    A    
C8    H8    S    
C51   H23   S    
C33   N1    A    
C47   H19   S    
C31   N3    D    
C30   C51   S    
N3    C48   S    
C1    O3    A    
Cu2   O2    S    
C19   C21   A    
Cu1   O8    S    
C46   N2    S    
C36   N2    A    
C9    C22   A    
C49   O17   D    
C35   N1    A    
C35   O12   S    
C3    C18   A    
C11   C23   S    
Cu1   O1    S    
C12   C42   A    
C43   H5    S    
C31   C32   S    
C19   H15   S    
C5    C33   A    
C21   H13   S    
C32   N4    D    
N4    C47   S    
C41   C43   A    
Cu2   O7    S    
C34   N2    A    
C42   C44   A    
C23   O5    A    
C2    O4    A    
C41   H1    S    
C51   O19   D    
C44   C46   A    
O13   H17   S    
C47   O15   D    
C10   C21   A    
C25   C49   S    
C13   C19   A    
Cu1   Cu2   S    
C14   C20   A    
Cu1   O5    S    
C4    C6    A    
C23   O7    A    
C49   H21   S    
C5    C7    A    
C24   O8    A    
C15   C26   A    
C6    C8    A    
C39   H10   S    
C1    O1    A    
C6    C34   A    
C12   C40   A    
C11   C39   A    
C32   H3    S    
C29   C30   S    
C3    C9    A    
Cu2   O6    S    
C22   H14   S    
O14   H18   S    
C52   O20   D    
C50   O18   D    
C43   C45   A    
C42   H2    S    
C4    C17   A    
C20   C22   A    
C45   N1    S    
Cu2   O3    S    
C4    C10   A    
Cu1   N4    S    
C1    C27   S    
C16   C25   A    
C15   C17   A    
C40   H9    S    
C29   C52   S    
C28   O13   S    
C48   O16   D    
C3    C5    A    
C36   O11   S    
C10   C36   A    
C12   C24   S    
C7    C25   A    
C13   C17   A    
C27   O14   S    
C37   C39   A    
C34   O10   S    
C38   C40   A    
C33   O9    S    
C28   C30   D    
C52   H24   S    
C11   C41   A    
Cu2   N3    S    
C50   H22   S    
Cu1   O4    S    
C38   C46   A    
C37   H12   S    
C38   H11   S    
C44   H6    S    
C48   H20   S    
C16   C18   A    
C13   C16   A    
C9    C35   A    
C14   C15   A    
C2    C28   S    
C2    O2    A    
C37   C45   A    
