data_mof_unit_23704.cif
_audit_creation_date              2012-12-10T16:55:01-0500
_audit_creation_method            fapswitch 2.2
_symmetry_space_group_name_H-M    P1
_symmetry_Int_Tables_number       1
_space_group_crystal_system       triclinic
_cell_length_a                    7.879201
_cell_length_b                    8.55443
_cell_length_c                    15.732957
_cell_angle_alpha                 92.449645
_cell_angle_beta                  84.683289
_cell_angle_gamma                 93.650893
_cell_volume                      1053.00433738

loop_
_atom_site_label
_atom_site_type_symbol
_atom_type_description
_atom_site_fract_x
_atom_site_fract_y
_atom_site_fract_z
_atom_type_partial_charge
C1    C     C_R   0.545326 0.794274 0.498187 0.943289
C2    C     C_2   0.430986 0.042035 0.503997 -0.370322
C3    C     C_R   0.500396 0.500865 0.661249 0.899791
C4    C     C_R   0.454663 0.205733 0.502287 0.967123
C5    C     C_R   0.499898 0.499710 0.338678 0.899587
C6    C     C_3   0.364543 0.592910 0.960255 -0.406055
C7    C     C_3   0.698009 0.580348 0.940967 0.147772
C8    C     C_3   0.694706 0.580631 0.043433 0.022165
C9    C     C_1   0.501410 0.502347 0.249881 -0.178472
C10   C     C_3   0.517524 0.503968 0.915958 0.149290
C11   C     C_2   0.591388 0.215678 0.080354 0.353840
C12   C     C_3   0.375208 0.607736 0.057082 -0.452566
C13   C     C_3   0.987846 0.682547 0.567254 -0.127722
C14   C     C_3   0.072339 0.719856 0.649742 -0.852778
C15   C     C_2   0.838136 0.476156 0.900019 0.289297
C16   C     C_3   0.752102 0.743331 0.898516 -0.431798
C17   C     C_3   0.624228 0.871310 0.899948 -0.753070
C18   C     C_3   0.753321 0.739407 0.088789 -0.422716
C19   C     C_3   0.946507 0.755791 0.094545 -0.867726
C20   C     C_2   0.342429 0.237066 0.914435 0.373156
C21   C     C_3   0.517404 0.507637 0.082267 0.176560
C22   C     C_3   0.482458 0.335121 0.046520 -0.225552
C23   C     C_3   0.495001 0.330706 0.947074 -0.223456
C24   C     C_1   0.507379 0.505078 0.174448 -0.102764
C25   C     C_1   0.508090 0.503705 0.824753 -0.071682
C26   C     C_1   0.502494 0.502612 0.749842 -0.149026
C27   C     C_2   0.568989 0.957998 0.497372 -0.372258
H1    H     H_    0.399591 0.732773 0.077129 0.185184
H2    H     H_    0.348875 0.298968 0.070964 0.117198
H3    H     H_    0.535756 0.139015 0.130086 0.059806
H4    H     H_    0.063620 0.614895 0.689493 0.261513
H5    H     H_    0.206697 0.764095 0.637055 0.289352
H6    H     H_    0.004572 0.813939 0.687143 0.216780
H7    H     H_    0.010385 0.783548 0.524710 0.161985
H8    H     H_    0.853967 0.668537 0.589247 0.233020
H9    H     H_    0.845529 0.449761 0.831672 0.091095
H10   H     H_    0.535772 0.845440 0.849520 0.264483
H11   H     H_    0.551131 0.889170 0.962605 0.245058
H12   H     H_    0.243131 0.527598 0.947886 0.220628
H13   H     H_    0.694997 0.984321 0.884154 0.267875
H14   H     H_    0.869444 0.795572 0.924690 0.233932
H15   H     H_    0.792261 0.722509 0.829360 0.185013
H16   H     H_    0.982518 0.672462 0.141056 0.255856
H17   H     H_    0.017812 0.731260 0.031819 0.270592
H18   H     H_    0.984367 0.876603 0.117218 0.266166
H19   H     H_    0.713480 0.842980 0.058703 0.250533
H20   H     H_    0.694564 0.749751 0.155381 0.217731
H21   H     H_    0.213740 0.259368 0.940447 0.153658
H22   H     H_    0.250099 0.567155 0.089993 0.199389
H23   H     H_    0.699474 0.008769 0.491037 0.178570
H24   H     H_    0.300513 0.991246 0.510464 0.177015
H25   H     H_    0.009033 0.368695 0.442538 0.177737
H26   H     H_    0.348721 0.707982 0.934200 0.197730
H27   H     H_    0.785068 0.497577 0.062588 0.242550
H28   H     H_    0.607734 0.266603 0.920997 0.208354
N1    N     N_2   0.950340 0.457950 0.477370 -0.158398
N2    N     N_2   0.049660 0.542050 0.522630 -0.039605
O1    O     O_R   0.389240 0.738570 0.505550 -0.615129
O2    O     O_2   0.943513 0.421996 0.940704 -0.597003
O3    O     O_2   0.362919 0.133852 0.859081 -0.585574
O4    O     O_R   0.678400 0.711630 0.491050 -0.660957
O5    O     O_R   0.355360 0.513470 0.630110 -0.605297
O6    O     O_R   0.644510 0.486530 0.615610 -0.642577
O7    O     O_R   0.321600 0.288370 0.508950 -0.627876
O8    O     O_R   0.610760 0.261430 0.494450 -0.612466
O9    O     O_R   0.355490 0.513470 0.384390 -0.620675
O10   O     O_R   0.644640 0.486530 0.369890 -0.607253
O11   O     O_2   0.741186 0.205472 0.054199 -0.553967
Zn1   Zn    Zn3+2 0.306930 0.517990 0.509680 0.948632
Zn2   Zn    Zn3+2 0.693070 0.482010 0.490320 0.935433

loop_
_geom_bond_atom_site_label_1
_geom_bond_atom_site_label_2
_ccdc_geom_bond_type
O4    Zn2   S    
C6    C10   S    
C7    C10   S    
C2    C4    S    
C19   H18   S    
O1    Zn1   S    
C23   H28   S    
C2    C27   D    
C22   H2    S    
C3    O6    A    
C10   C23   S    
C20   O3    D    
C4    O7    A    
C11   C22   S    
O6    Zn2   S    
C14   H4    S    
C5    O10   A    
O10   Zn2   S    
C6    H12   S    
C18   H20   S    
C14   H6    S    
C7    C15   S    
C8    C21   S    
C13   H7    S    
C9    C24   T    
C17   H10   S    
O7    Zn1   S    
C19   H17   S    
C5    C9    S    
C20   H21   S    
C1    O1    A    
C12   H1    S    
C18   H19   S    
C10   C25   S    
C7    C16   S    
C19   H16   S    
C13   H8    S    
N1    Zn2   S    
C17   H11   S    
C6    C12   S    
C4    O8    A    
C3    O5    A    
O9    Zn1   S    
C13   N2    S    
C2    H24   S    
C6    H26   S    
O8    Zn2   S    
C12   C21   S    
C16   H15   S    
C15   H9    S    
C7    C8    S    
C12   H22   S    
C11   O11   D    
O5    Zn1   S    
C27   H23   S    
C1    C27   S    
C18   C19   S    
C21   C24   S    
C8    H27   S    
N1    N2    D    
C22   C23   S    
C16   C17   S    
C13   C14   S    
N2    Zn1   S    
C25   C26   T    
C21   C22   S    
C20   C23   S    
C15   O2    D    
C16   H14   S    
C3    C26   S    
C8    C18   S    
H25   N1    S    
C11   H3    S    
C14   H5    S    
C5    O9    A    
C17   H13   S    
C1    O4    A    
