data_mof_unit_45272.cif
_audit_creation_date              2012-12-10T20:00:30-0500
_audit_creation_method            fapswitch 2.2
_symmetry_space_group_name_H-M    P1
_symmetry_Int_Tables_number       1
_space_group_crystal_system       triclinic
_cell_length_a                    14.989576
_cell_length_b                    14.197417
_cell_length_c                    15.816235
_cell_angle_alpha                 89.896658
_cell_angle_beta                  90.182126
_cell_angle_gamma                 90.283159
_cell_volume                      3365.84106023

loop_
_atom_site_label
_atom_site_type_symbol
_atom_type_description
_atom_site_fract_x
_atom_site_fract_y
_atom_site_fract_z
_atom_type_partial_charge
C1    C     C_R   0.327632 0.499670 0.500298 0.910321
C2    C     C_R   0.564807 0.795526 0.543335 0.549261
C3    C     C_R   0.540043 0.204698 0.564900 0.527539
C4    C     C_R   0.435292 0.795007 0.456589 0.550923
C5    C     C_R   0.499957 0.053228 0.500518 0.094470
C6    C     C_R   0.499789 0.946582 0.500663 0.085309
C7    C     C_R   0.499768 0.500076 0.339264 0.884617
C8    C     C_R   0.500522 0.499924 0.660727 0.879721
C9    C     C_R   0.569370 0.548458 0.956509 -0.192132
C10   C     C_R   0.435400 0.450086 0.043433 -0.188625
C11   C     C_R   0.568710 0.548819 0.044182 -0.185518
C12   C     C_R   0.671834 0.500082 0.500011 0.906408
C13   C     C_R   0.436058 0.449720 0.955806 -0.180749
C14   C     C_R   0.502959 0.498975 0.913007 0.176320
C15   C     C_R   0.501648 0.499730 0.086962 0.175489
C16   C     C_1   0.502767 0.499400 0.824120 -0.082328
C17   C     C_1   0.500799 0.500134 0.175852 -0.083845
C18   C     C_1   0.500162 0.500217 0.250790 -0.185469
C19   C     C_1   0.501879 0.499701 0.749187 -0.189156
C20   C     C_R   0.091909 0.578156 0.482699 0.468610
C21   C     C_R   0.903976 0.433419 0.450907 0.486085
C22   C     C_R   0.904802 0.555689 0.560096 0.503156
C23   C     C_R   0.047068 0.494514 0.505466 -0.062671
C24   C     C_R   0.094396 0.412488 0.526483 0.470794
C25   C     C_R   0.184149 0.580153 0.483747 -0.300857
C26   C     C_R   0.811704 0.434534 0.450977 -0.340338
C27   C     C_R   0.812785 0.560775 0.554538 -0.287192
C28   C     C_R   0.186875 0.414486 0.522110 -0.345585
C29   C     C_R   0.231515 0.498296 0.502228 -0.164600
C30   C     C_R   0.766957 0.499370 0.501176 -0.162331
C31   C     C_3   0.026794 0.659479 0.375215 0.055287
C32   C     C_3   0.998977 0.758459 0.348383 -0.287027
C33   C     C_3   0.976585 0.762327 0.254259 -0.985675
C34   C     C_R   0.950616 0.493234 0.506597 -0.089028
C35   C     C_3   0.955733 0.411006 0.316769 0.053097
C36   C     C_3   0.953813 0.331888 0.251448 -0.300211
C37   C     C_3   0.969053 0.369774 0.162262 -0.977770
C38   C     C_3   0.963282 0.571156 0.693356 0.076519
C39   C     C_3   0.895511 0.607254 0.757709 -0.362448
C40   C     C_3   0.912570 0.566112 0.845425 -0.960443
C41   C     C_3   0.062108 0.299588 0.625719 0.059195
C42   C     C_3   0.023845 0.200363 0.636316 -0.292662
C43   C     C_3   0.029620 0.167400 0.728051 -0.984298
C44   C     C_3   0.332181 0.242491 0.364806 0.097701
C45   C     C_R   0.461918 0.104714 0.433487 -0.390872
C46   C     C_3   0.293440 0.318506 0.307034 -0.299164
C47   C     C_3   0.192446 0.309233 0.299071 -0.978126
C48   C     C_3   0.631059 0.758688 0.671005 0.080717
C49   C     C_3   0.719951 0.801104 0.700174 -0.363631
C50   C     C_3   0.726827 0.802861 0.796451 -0.976018
C51   C     C_3   0.669801 0.248934 0.629820 0.096203
C52   C     C_3   0.708374 0.324525 0.688485 -0.278646
C53   C     C_3   0.810051 0.323206 0.689253 -1.011170
C54   C     C_3   0.361042 0.767026 0.330195 0.076142
C55   C     C_3   0.265885 0.799487 0.311393 -0.360827
C56   C     C_R   0.567015 0.895067 0.542006 -0.382337
C57   C     C_3   0.252796 0.820950 0.217655 -0.965668
C58   C     C_R   0.538440 0.105230 0.567114 -0.387909
C59   C     C_R   0.432572 0.894657 0.459100 -0.392149
C60   C     C_R   0.460386 0.204214 0.435114 0.529581
H1    H     H_    0.619957 0.587143 0.078484 0.138332
H2    H     H_    0.622038 0.931227 0.572320 0.159384
H3    H     H_    0.566159 0.069619 0.621642 0.161494
H4    H     H_    0.377401 0.930618 0.429208 0.159492
H5    H     H_    0.970503 0.610306 0.362255 0.128312
H6    H     H_    0.085653 0.638387 0.336638 0.117244
H7    H     H_    0.939543 0.780174 0.385284 0.237074
H8    H     H_    0.054244 0.808760 0.361951 0.221622
H9    H     H_    0.035504 0.741966 0.216114 0.266953
H10   H     H_    0.957093 0.835129 0.236642 0.269218
H11   H     H_    0.920153 0.713970 0.239594 0.265619
H12   H     H_    0.384693 0.411535 0.921531 0.140377
H13   H     H_    0.020499 0.449260 0.312690 0.139079
H14   H     H_    0.900955 0.461122 0.300533 0.117155
H15   H     H_    0.006106 0.279371 0.266720 0.239572
H16   H     H_    0.887933 0.295698 0.253834 0.220023
H17   H     H_    0.915892 0.420581 0.144914 0.266671
H18   H     H_    0.967506 0.310584 0.116487 0.268716
H19   H     H_    0.035038 0.405385 0.158085 0.261596
H20   H     H_    0.031461 0.589781 0.715667 0.170177
H21   H     H_    0.960379 0.492732 0.690640 0.102964
H22   H     H_    0.900009 0.685291 0.761250 0.243274
H23   H     H_    0.621045 0.586602 0.922775 0.134306
H24   H     H_    0.826978 0.587413 0.737396 0.211038
H25   H     H_    0.907700 0.488046 0.843737 0.261663
H26   H     H_    0.861924 0.593145 0.890234 0.265643
H27   H     H_    0.979866 0.587023 0.868489 0.266374
H28   H     H_    0.026263 0.348243 0.668644 0.132698
H29   H     H_    0.133875 0.297722 0.644058 0.129740
H30   H     H_    0.953000 0.199225 0.615498 0.231978
H31   H     H_    0.061612 0.150792 0.595723 0.224802
H32   H     H_    0.100335 0.165190 0.749150 0.268498
H33   H     H_    0.000571 0.095574 0.733646 0.269929
H34   H     H_    0.383611 0.412091 0.077135 0.136392
H35   H     H_    0.991827 0.215623 0.769818 0.265478
H36   H     H_    0.301757 0.249987 0.428736 0.133598
H37   H     H_    0.314798 0.172047 0.338583 0.125823
H38   H     H_    0.310013 0.389210 0.332884 0.223814
H39   H     H_    0.323699 0.312768 0.243169 0.219492
H40   H     H_    0.160420 0.315286 0.362008 0.297166
H41   H     H_    0.166823 0.366321 0.257720 0.260557
H42   H     H_    0.174405 0.240263 0.270554 0.264193
H43   H     H_    0.623121 0.688216 0.700780 0.170719
H44   H     H_    0.574949 0.803001 0.694545 0.117142
H45   H     H_    0.218278 0.645210 0.467983 0.217687
H46   H     H_    0.775841 0.758928 0.674508 0.240302
H47   H     H_    0.726566 0.874113 0.675607 0.216052
H48   H     H_    0.672250 0.845877 0.823538 0.269971
H49   H     H_    0.791790 0.834312 0.815516 0.270347
H50   H     H_    0.722775 0.730165 0.822352 0.261202
H51   H     H_    0.696385 0.261159 0.564836 0.149163
H52   H     H_    0.691651 0.178445 0.652521 0.121981
H53   H     H_    0.685691 0.395156 0.667360 0.221764
H54   H     H_    0.683582 0.312603 0.753821 0.222780
H55   H     H_    0.836540 0.336187 0.624750 0.283009
H56   H     H_    0.775229 0.386816 0.409897 0.178221
H57   H     H_    0.834149 0.254153 0.712815 0.272124
H58   H     H_    0.835457 0.379289 0.731884 0.263819
H59   H     H_    0.374232 0.702103 0.293221 0.170997
H60   H     H_    0.409730 0.821240 0.307602 0.117697
H61   H     H_    0.218152 0.743352 0.330463 0.227464
H62   H     H_    0.251057 0.863733 0.348688 0.218320
H63   H     H_    0.299104 0.877882 0.197278 0.266453
H64   H     H_    0.183236 0.844536 0.206441 0.269917
H65   H     H_    0.265010 0.756862 0.179282 0.265076
H66   H     H_    0.776964 0.610388 0.593494 0.185601
H67   H     H_    0.223566 0.350338 0.534210 0.174133
H68   H     H_    0.434806 0.068591 0.378933 0.159746
N1    N     N_R   0.500000 0.252470 0.500000 -0.161895
N2    N     N_R   0.500000 0.747530 0.500000 -0.161967
O1    O     O_R   0.369060 0.579480 0.500010 -0.573094
O2    O     O_3   0.947928 0.371259 0.398491 -0.597198
O3    O     O_3   0.950095 0.615799 0.614204 -0.605438
O4    O     O_3   0.049817 0.328291 0.540972 -0.604077
O5    O     O_3   0.425729 0.253852 0.367605 -0.610588
O6    O     O_3   0.632467 0.745625 0.582229 -0.618598
O7    O     O_3   0.575810 0.254593 0.631798 -0.612687
O8    O     O_3   0.368379 0.743831 0.417087 -0.623661
O9    O     O_R   0.630940 0.420520 0.499990 -0.631479
O10   O     O_R   0.630940 0.579480 0.499990 -0.569978
O11   O     O_R   0.369060 0.420520 0.500010 -0.632463
O12   O     O_R   0.499980 0.579460 0.378020 -0.617031
O13   O     O_R   0.500020 0.420540 0.621980 -0.561588
O14   O     O_R   0.500020 0.579460 0.621980 -0.624154
O15   O     O_R   0.499980 0.420540 0.378020 -0.561115
O16   O     O_3   0.046285 0.659660 0.462625 -0.599036
Zn1   Zn    Zn3+2 0.500000 0.606140 0.500000 1.003391
Zn2   Zn    Zn3+2 0.500000 0.393860 0.500000 0.997450

loop_
_geom_bond_atom_site_label_1
_geom_bond_atom_site_label_2
_ccdc_geom_bond_type
C31   H6    S    
C41   H29   S    
C21   C26   A    
C55   H61   S    
C45   C60   A    
C51   H52   S    
C47   H41   S    
C54   H60   S    
C41   C42   S    
C35   C36   S    
C46   H39   S    
C25   H45   S    
C35   H14   S    
C54   O8    S    
C52   H53   S    
C37   H19   S    
C28   C29   A    
C59   H4    S    
C38   H20   S    
C5    C58   A    
C40   H27   S    
C36   C37   S    
C39   H24   S    
C10   C15   A    
C57   H65   S    
C38   C39   S    
C27   H66   S    
C53   H57   S    
C20   C25   A    
C10   H34   S    
C45   H68   S    
C48   H44   S    
C50   H50   S    
C31   H5    S    
C42   H31   S    
C38   O3    S    
C40   H26   S    
N1    Zn2   S    
C36   H16   S    
O11   Zn2   S    
C2    N2    A    
C46   C47   S    
C31   O16   S    
C11   C15   A    
C43   H35   S    
C23   C24   A    
C12   O10   A    
O1    Zn1   S    
C3    O7    S    
C14   C16   S    
C28   H67   S    
C33   H9    S    
C32   H8    S    
C23   C34   S    
C44   O5    S    
C46   H38   S    
C55   H62   S    
C47   H42   S    
C54   H59   S    
C27   C30   A    
C50   H48   S    
O14   Zn1   S    
O12   Zn1   S    
O10   Zn1   S    
C41   O4    S    
C44   C46   S    
C25   C29   A    
O13   Zn2   S    
C22   C34   A    
O9    Zn2   S    
C8    C19   S    
C22   O3    S    
C51   C52   S    
C49   H47   S    
C39   C40   S    
C53   H58   S    
C4    N2    A    
C21   C34   A    
C1    O1    A    
C48   H43   S    
C5    C45   A    
C50   H49   S    
C2    O6    S    
C47   H40   S    
C42   H30   S    
C40   H25   S    
C9    C14   A    
C21   O2    S    
C44   H36   S    
C36   H15   S    
C57   H63   S    
C44   H37   S    
C31   C32   S    
C20   C23   A    
C7    C18   S    
C1    C29   S    
C17   C18   T    
C12   O9    A    
C8    O14   A    
C9    C11   A    
C60   O5    S    
C33   H10   S    
C9    H23   S    
C32   H7    S    
C51   O7    S    
C48   C49   S    
C26   C30   A    
C22   C27   A    
C55   C57   S    
C38   H21   S    
C20   O16   S    
C42   C43   S    
O15   Zn2   S    
C52   C53   S    
C24   O4    S    
C58   H3    S    
C15   C17   S    
C41   H28   S    
C54   C55   S    
C35   H13   S    
C51   H51   S    
C12   C30   S    
N2    Zn1   S    
C3    N1    A    
C6    C59   A    
C48   O6    S    
C24   C28   A    
C39   H22   S    
C6    C56   A    
C11   H1    S    
C10   C13   A    
C60   N1    A    
C49   H46   S    
C13   H12   S    
C52   H54   S    
C37   H18   S    
C43   H32   S    
C32   C33   S    
C2    C56   A    
C57   H64   S    
C5    C6    S    
C37   H17   S    
C16   C19   T    
C4    C59   A    
C43   H33   S    
C8    O13   A    
C56   H2    S    
C26   H56   S    
C1    O11   A    
C33   H11   S    
C4    O8    S    
C3    C58   A    
C49   C50   S    
C13   C14   A    
C35   O2    S    
C7    O12   A    
C53   H55   S    
C7    O15   A    
