data_mof_unit_49878.cif
_audit_creation_date              2012-12-11T14:15:47-0500
_audit_creation_method            fapswitch 2.2
_symmetry_space_group_name_H-M    P1
_symmetry_Int_Tables_number       1
_space_group_crystal_system       triclinic
_cell_length_a                    11.160922
_cell_length_b                    12.708362
_cell_length_c                    23.538322
_cell_angle_alpha                 90.58129
_cell_angle_beta                  96.718567
_cell_angle_gamma                 68.494258
_cell_volume                      3082.90657407

loop_
_atom_site_label
_atom_site_type_symbol
_atom_type_description
_atom_site_fract_x
_atom_site_fract_y
_atom_site_fract_z
_atom_type_partial_charge
C1    C     C_R   0.149543 0.616686 0.428841 0.548375
C2    C     C_2   0.180674 0.233143 0.226550 -0.120419
C3    C     C_2   0.155814 0.165194 0.262902 -0.121171
C4    C     C_R   0.749988 0.603912 0.403868 0.545335
C5    C     C_1   0.132822 0.198912 0.320640 -0.045162
C6    C     C_1   0.210100 0.197544 0.169689 -0.045314
C7    C     C_1   0.116384 0.232103 0.368408 -0.000567
C8    C     C_1   0.167646 0.750095 0.123796 -0.002548
C9    C     C_2   0.142633 0.689344 0.228051 -0.124407
C10   C     C_2   0.236744 0.676260 0.271570 -0.126099
C11   C     C_1   0.217972 0.652515 0.329170 -0.047283
C12   C     C_R   0.664336 0.556337 0.310465 -0.128689
C13   C     C_1   0.155430 0.721118 0.170869 -0.046149
C14   C     C_1   0.193987 0.634845 0.376124 -0.001233
C15   C     C_1   0.629107 0.754782 0.865185 -0.011933
C16   C     C_R   0.101239 0.282332 0.423354 0.544046
C17   C     C_2   0.702326 0.699894 0.762489 -0.094247
C18   C     C_2   0.612538 0.705836 0.718205 -0.110060
C19   C     C_1   0.651050 0.670568 0.662513 -0.015038
C20   C     C_1   0.665389 0.731610 0.818739 -0.053564
C21   C     C_1   0.690140 0.640074 0.617165 0.013386
C22   C     C_R   0.195237 0.178181 0.854076 0.031766
C23   C     C_R   0.714138 0.727567 0.317810 -0.126961
C24   C     C_R   0.105474 0.238488 0.642267 0.030034
C25   C     C_R   0.063833 0.120723 0.710761 -0.125086
C26   C     C_R   0.058392 0.154265 0.654086 -0.133280
C27   C     C_R   0.150065 0.294281 0.686290 -0.118586
C28   C     C_R   0.147576 0.615455 0.591629 0.570973
C29   C     C_R   0.156322 0.261497 0.742579 -0.005589
C30   C     C_R   0.114861 0.172782 0.755022 0.026890
C31   C     C_R   0.131222 0.134015 0.811171 -0.181431
C32   C     C_R   0.233293 0.268853 0.842411 0.273326
C33   C     C_R   0.208321 0.313289 0.786253 -0.129523
C34   C     C_R   0.705049 0.735651 0.258295 0.040272
C35   C     C_R   0.127177 0.743016 0.854139 -0.022490
C36   C     C_R   0.179602 0.631701 0.651856 0.010769
C37   C     C_R   0.312247 0.576280 0.742946 -0.148076
C38   C     C_R   0.297993 0.564872 0.683297 0.252276
C39   C     C_R   0.077453 0.704760 0.679426 -0.157389
C40   C     C_R   0.749862 0.602302 0.566064 0.544291
C41   C     C_R   0.089242 0.712973 0.738000 0.035918
C42   C     C_R   0.208262 0.648086 0.769955 -0.045403
C43   C     C_R   0.224871 0.661260 0.828195 -0.130806
C44   C     C_R   0.005142 0.799929 0.823747 -0.122963
C45   C     C_R   0.684340 0.648656 0.225781 0.041338
C46   C     C_R   0.985086 0.787958 0.764513 0.263372
C47   C     C_R   0.265726 0.110049 0.069433 0.551886
C48   C     C_R   0.600830 0.774496 0.081039 0.543982
C49   C     C_R   0.189641 0.787848 0.069844 0.547308
C50   C     C_R   0.240692 0.115039 0.907950 0.581565
C51   C     C_R   0.573802 0.776273 0.918163 0.544220
C52   C     C_R   0.099879 0.279224 0.584974 0.534977
C53   C     C_R   0.163586 0.785566 0.907951 0.547699
C54   C     C_R   0.670119 0.752769 0.138945 0.006440
C55   C     C_R   0.699062 0.635058 0.344066 0.008429
C56   C     C_R   0.679216 0.653202 0.167085 -0.117702
C57   C     C_R   0.660736 0.561293 0.251769 -0.143247
C58   C     C_3   0.406746 0.319802 0.874538 -0.106200
C59   C     C_3   0.799821 0.953951 0.750056 -0.130048
C60   C     C_3   0.472035 0.393010 0.683247 -0.006977
C61   C     C_3   0.541908 0.308270 0.640770 -0.347309
C62   C     C_R   0.694377 0.838681 0.170600 -0.132132
C63   C     C_R   0.716049 0.828276 0.230394 -0.139131
C64   C     C_1   0.235518 0.162603 0.122967 0.000924
Cr1   Cr    Cr6+3 0.189770 0.415650 0.511620 1.039642
Cr2   Cr    Cr6+3 0.930400 0.667320 0.496770 1.023028
Cr3   Cr    Cr6+3 0.879870 0.417010 0.491650 1.024990
Cr4   Cr    Cr6+3 0.149500 0.973980 0.985330 1.022904
Cr5   Cr    Cr6+3 0.457000 0.976510 0.994660 1.034928
Cr6   Cr    Cr6+3 0.411170 0.724270 0.995270 1.023435
H1    H     H_    0.664708 0.584406 0.143260 0.134379
H2    H     H_    0.318837 0.615475 0.852126 0.140419
H3    H     H_    0.688555 0.916103 0.149577 0.135368
H4    H     H_    0.929334 0.858001 0.845898 0.122356
H5    H     H_    0.404213 0.531149 0.768344 0.090579
H6    H     H_    0.985469 0.753971 0.655061 0.199078
H7    H     H_    0.640063 0.496505 0.226745 0.111415
H8    H     H_    0.732464 0.895661 0.254661 0.113242
H9    H     H_    0.650256 0.485231 0.329621 0.144147
H10   H     H_    0.738943 0.789666 0.343467 0.125104
H11   H     H_    0.155571 0.082995 0.249883 0.138204
H12   H     H_    0.052788 0.679863 0.235534 0.142384
H13   H     H_    0.181752 0.315000 0.239762 0.138953
H14   H     H_    0.326242 0.686732 0.264442 0.141951
H15   H     H_    0.389941 0.394143 0.846035 0.095798
H16   H     H_    0.468149 0.240324 0.855627 0.108384
H17   H     H_    0.461986 0.330401 0.915098 0.146072
H18   H     H_    0.865711 0.000366 0.762620 0.101490
H19   H     H_    0.744536 0.949318 0.785632 0.126988
H20   H     H_    0.728230 0.003511 0.714229 0.142820
H21   H     H_    0.409887 0.357071 0.703974 0.110543
H22   H     H_    0.546573 0.403840 0.715963 0.129019
H23   H     H_    0.510155 0.736449 0.723650 0.138159
H24   H     H_    0.606917 0.340118 0.619903 0.168080
H25   H     H_    0.601015 0.226074 0.663387 0.080505
H26   H     H_    0.470122 0.295001 0.607478 0.175442
H27   H     H_    0.804712 0.667104 0.757120 0.168729
H28   H     H_    0.104331 0.062794 0.820713 0.127653
H29   H     H_    0.031362 0.052820 0.719896 0.112943
H30   H     H_    0.233810 0.384815 0.776243 0.105050
H31   H     H_    0.020084 0.113754 0.619745 0.114563
H32   H     H_    0.181064 0.362989 0.676496 0.121438
O1    O     O_R   0.196340 0.303200 0.448500 -0.508062
O2    O     O_R   0.555390 0.700940 0.062700 -0.521405
O3    O     O_R   0.295020 0.731920 0.049950 -0.492209
O4    O     O_R   0.199310 0.519670 0.454880 -0.491365
O5    O     O_R   0.094290 0.884230 0.921550 -0.525277
O6    O     O_R   0.168980 0.069410 0.926940 -0.515478
O7    O     O_R   0.358400 0.089990 0.927950 -0.484950
O8    O     O_R   0.544850 0.873850 0.939920 -0.498972
O9    O     O_R   0.536020 0.701900 0.936430 -0.513369
O10   O     O_R   0.277070 0.732810 0.932890 -0.502053
O11   O     O_3   0.339220 0.891590 0.991750 -0.251147
O12   O     O_R   0.811960 0.658090 0.547150 -0.497848
O13   O     O_R   0.045660 0.691380 0.441680 -0.509217
O14   O     O_R   0.811930 0.659460 0.430950 -0.503348
O15   O     O_R   0.757900 0.507620 0.421760 -0.517350
O16   O     O_R   0.988630 0.322990 0.439840 -0.495838
O17   O     O_R   0.196380 0.301720 0.573850 -0.523767
O18   O     O_R   0.199350 0.518300 0.571080 -0.457324
O19   O     O_R   0.045700 0.689900 0.567030 -0.537880
O20   O     O_3   0.287897 0.315503 0.887058 -0.550013
O21   O     O_3   0.866651 0.844515 0.731148 -0.588481
O22   O     O_3   0.398665 0.497458 0.653868 -0.541493
O23   O     O_R   0.757930 0.506140 0.547110 -0.504572
O24   O     O_R   0.988670 0.321620 0.556040 -0.499552
O25   O     O_3   0.000020 0.499990 0.500010 -0.255946
O26   O     O_R   0.113660 0.883270 0.047820 -0.508207
O27   O     O_R   0.186930 0.068530 0.043990 -0.495117
O28   O     O_R   0.377770 0.089040 0.054220 -0.504726
O29   O     O_R   0.562800 0.872960 0.056970 -0.500801

loop_
_geom_bond_atom_site_label_1
_geom_bond_atom_site_label_2
_ccdc_geom_bond_type
C24   C52   S    
C8    C13   T    
C35   C53   S    
C41   C42   A    
C24   C27   A    
C58   H17   S    
C61   H26   S    
C39   C41   A    
C48   C54   S    
Cr5   O11   S    
C62   C63   A    
C22   C32   A    
C47   O27   A    
Cr1   O25   S    
C19   C21   T    
C37   C38   A    
C24   C26   A    
C16   O16   A    
Cr3   O23   S    
C26   H31   S    
C30   C31   A    
C11   C14   T    
Cr6   O2    S    
C27   C29   A    
Cr6   O9    S    
C48   O2    A    
C12   H9    S    
C29   C33   A    
C17   C20   S    
Cr2   O25   S    
C18   C19   S    
C59   H19   S    
C31   H28   S    
C6    C64   T    
C37   C42   A    
C60   O22   S    
C9    C13   S    
C59   H18   S    
Cr5   O7    S    
C25   H29   S    
C40   O12   A    
C45   C56   A    
Cr5   O28   S    
C3    H11   S    
C41   C46   A    
C62   H3    S    
Cr4   O5    S    
C15   C51   S    
C23   H10   S    
C35   C43   A    
C9    C10   D    
Cr4   O26   S    
C49   O26   A    
Cr4   O11   S    
C22   C50   S    
C23   C34   A    
C37   H5    S    
C50   O6    A    
C2    H13   S    
C2    C6    S    
C58   H16   S    
C44   C46   A    
C60   H22   S    
Cr6   O11   S    
C59   O21   S    
C15   C20   T    
C54   C56   A    
C58   O20   S    
C22   C31   A    
C47   O28   A    
C57   H7    S    
Cr2   O13   S    
Cr3   O24   S    
C47   C64   S    
C5    C7    T    
C52   O24   A    
C61   H24   S    
C49   O3    A    
C54   C62   A    
C25   C26   A    
C50   O7    A    
C9    H12   S    
C60   C61   S    
C59   H20   S    
C29   C30   A    
Cr3   O25   S    
Cr5   O8    S    
C53   O5    A    
C16   O1    A    
Cr5   O29   S    
C56   H1    S    
C45   C57   A    
C17   C18   D    
Cr1   O17   S    
Cr2   O19   S    
C48   O29   A    
C34   C45   A    
C39   H6    S    
C44   H4    S    
C35   C44   A    
Cr3   O15   S    
Cr6   O10   S    
C12   C57   A    
C53   O10   A    
C7    C16   S    
C51   O8    A    
C4    C55   S    
C28   O18   A    
C4    O15   A    
C42   C43   A    
Cr1   O1    S    
C58   H15   S    
Cr1   O4    S    
C32   O20   S    
C60   H21   S    
C25   C30   A    
C43   H2    S    
C51   O9    A    
Cr2   O12   S    
C28   O19   A    
C4    O14   A    
C36   C39   A    
C3    C5    S    
Cr6   O3    S    
C61   H25   S    
C23   C55   A    
Cr4   O6    S    
C1    O4    A    
C27   H32   S    
C33   H30   S    
C32   C33   A    
C36   C38   A    
C2    C3    D    
Cr2   O14   S    
C21   C40   S    
C40   O23   A    
C10   H14   S    
C34   C63   A    
Cr1   O18   S    
Cr4   O27   S    
C46   O21   S    
Cr3   O16   S    
C12   C55   A    
C10   C11   S    
C52   O17   A    
C28   C36   S    
C18   H23   S    
C1    C14   S    
C1    O13   A    
C17   H27   S    
C8    C49   S    
C38   O22   S    
C63   H8    S    
