data_mof_unit_27308.cif
_audit_creation_date              2012-12-11T16:57:11-0500
_audit_creation_method            fapswitch 2.2
_symmetry_space_group_name_H-M    P1
_symmetry_Int_Tables_number       1
_space_group_crystal_system       triclinic
_cell_length_a                    14.440958
_cell_length_b                    16.306398
_cell_length_c                    6.942119
_cell_angle_alpha                 89.857913
_cell_angle_beta                  98.749665
_cell_angle_gamma                 90.0002
_cell_volume                      1615.70082165

loop_
_atom_site_label
_atom_site_type_symbol
_atom_type_description
_atom_site_fract_x
_atom_site_fract_y
_atom_site_fract_z
_atom_type_partial_charge
O1    O     O_R   0.584990 0.413650 0.534420 -0.554121
O2    O     O_R   0.584990 0.586350 0.534420 -0.551412
O3    O     O_R   0.596190 0.585230 0.208380 -0.535846
O4    O     O_R   0.596190 0.414770 0.208380 -0.531768
O5    O     O_R   0.415010 0.586420 0.976930 -0.533704
O6    O     O_R   0.415010 0.413580 0.976930 -0.534652
C1    C     C_R   0.619766 0.613408 0.384089 0.713623
C2    C     C_R   0.619392 0.386221 0.384298 0.714060
O7    O     O_3   0.440560 0.500000 0.319140 -0.350644
V1    V     V_3+5 0.511030 0.500000 0.068070 1.504096
O8    O     O_R   0.403810 0.414840 0.643540 -0.513242
O9    O     O_R   0.403810 0.585160 0.643540 -0.513408
C3    C     C_R   0.379026 0.387900 0.805120 0.726251
C4    C     C_R   0.378948 0.612100 0.804946 0.734061
V2    V     V_3+5 0.488970 0.500000 0.560620 1.544314
O10   O     O_3   0.559440 0.500000 0.859420 -0.395721
H1    H     H_    0.188518 0.810171 0.807136 0.174221
H2    H     H_    0.189105 0.189712 0.806964 0.174002
H3    H     H_    0.335071 0.707845 0.088554 0.198756
H4    H     H_    0.334788 0.292071 0.089044 0.196262
C5    C     C_2   0.301501 0.673585 0.791714 -0.213599
C6    C     C_2   0.301743 0.326384 0.791846 -0.208409
C7    C     C_2   0.289307 0.718460 0.951396 -0.144789
C8    C     C_2   0.289338 0.281463 0.951623 -0.158383
C9    C     C_2   0.196944 0.820266 0.110985 -0.321591
C10   C     C_2   0.196803 0.179624 0.110691 -0.325838
C11   C     C_2   0.220102 0.786199 0.947619 -0.082293
C12   C     C_2   0.220309 0.213667 0.947447 -0.080280
C13   C     C_R   0.683293 0.741289 0.557707 0.126910
C14   C     C_R   0.683773 0.259167 0.563470 0.121879
C15   C     C_R   0.686978 0.683267 0.411949 -0.096562
C16   C     C_R   0.686407 0.316017 0.413271 -0.084529
C17   C     C_R   0.753276 0.698263 0.285538 -0.148886
C18   C     C_R   0.753008 0.301847 0.287978 -0.150524
C19   C     C_R   0.817809 0.764431 0.319247 -0.129515
C20   C     C_R   0.818130 0.236606 0.322840 -0.138182
C21   C     C_R   0.817649 0.818169 0.479407 -0.098713
C22   C     C_R   0.818302 0.182700 0.482731 -0.099675
C23   C     C_R   0.744754 0.806836 0.588782 0.071470
C24   C     C_R   0.747236 0.194080 0.598037 0.057026
C25   C     C_3   0.736968 0.810344 0.800799 -0.284655
C26   C     C_3   0.753446 0.204757 0.814276 -0.298479
C27   C     C_3   0.671315 0.735056 0.766612 -0.273384
C28   C     C_3   0.680879 0.274363 0.773670 -0.280421
H5    H     H_    0.702865 0.677616 0.833536 0.097439
H6    H     H_    0.709484 0.335696 0.820208 0.095107
O11   O     O_R   0.921430 0.915960 0.371040 -0.522314
O12   O     O_R   0.921430 0.084040 0.371040 -0.509584
O13   O     O_R   0.910450 0.087500 0.697310 -0.544383
O14   O     O_R   0.910450 0.912500 0.697310 -0.550158
O15   O     O_R   0.091710 0.087460 0.928430 -0.545445
O16   O     O_R   0.091710 0.912540 0.928430 -0.546018
C29   C     C_R   0.888394 0.114782 0.519922 0.729071
C30   C     C_R   0.888037 0.885561 0.519489 0.716029
O17   O     O_3   0.065970 0.000000 0.586140 -0.384941
V3    V     V_3+5 0.995640 0.000000 0.837400 1.495785
O18   O     O_R   0.103020 0.915700 0.261710 -0.546288
O19   O     O_R   0.103020 0.084300 0.261710 -0.545602
C31   C     C_R   0.126154 0.886682 0.100424 0.724516
C32   C     C_R   0.126112 0.113271 0.100218 0.730790
V4    V     V_3+5 0.017940 0.000000 0.344880 1.487230
O20   O     O_3   0.947330 0.000000 0.046180 -0.333264
H7    H     H_    0.229604 0.798900 0.253051 0.176539
H8    H     H_    0.229070 0.201029 0.252747 0.176926
C33   C     C_2   0.235438 0.679674 0.604471 0.740324
O21   O     O_2   0.264062 0.669078 0.449522 -0.560551
O22   O     O_R   0.139762 0.692838 0.605260 -0.667577
H9    H     H_    0.102549 0.695040 0.469140 0.286015
C34   C     C_2   0.236079 0.320182 0.604159 0.746524
O23   O     O_2   0.265170 0.330235 0.449404 -0.560727
O24   O     O_R   0.140275 0.307448 0.604249 -0.668061
H10   H     H_    0.103356 0.305089 0.467898 0.285387
H11   H     H_    0.758505 0.656626 0.166707 0.113951
H12   H     H_    0.757680 0.343390 0.168168 0.118341
H13   H     H_    0.870630 0.771143 0.225225 0.113808
H14   H     H_    0.870873 0.230231 0.228591 0.126402
C35   C     C_2   0.689392 0.888083 0.849078 0.861571
O25   O     O_2   0.713074 0.921148 0.006528 -0.538316
O26   O     O_R   0.615004 0.919296 0.716103 -0.641215
H15   H     H_    0.575919 0.960992 0.774782 0.313317
C36   C     C_2   0.724891 0.129384 0.917431 0.868157
O27   O     O_2   0.782596 0.095091 0.037433 -0.529622
O28   O     O_R   0.633343 0.099685 0.881563 -0.651347
H16   H     H_    0.619642 0.060760 0.987658 0.311747
H17   H     H_    0.804457 0.797245 0.895661 0.120808
H18   H     H_    0.823947 0.227759 0.878536 0.116268
C37   C     C_2   0.571206 0.747675 0.799152 0.835328
O29   O     O_2   0.552482 0.745699 0.964952 -0.560506
O30   O     O_R   0.500885 0.763668 0.641452 -0.640400
H19   H     H_    0.438496 0.776901 0.683768 0.286599
C38   C     C_2   0.584150 0.259494 0.824671 0.869526
O31   O     O_2   0.571181 0.265354 0.993836 -0.562040
O32   O     O_R   0.510231 0.236839 0.680074 -0.645354
H20   H     H_    0.451049 0.223008 0.735050 0.286499

loop_
_geom_bond_atom_site_label_1
_geom_bond_atom_site_label_2
_ccdc_geom_bond_type
C14   C16   A    
C37   O29   D    
O32   H20   S    
O1    C2    A    
O2    C1    A    
O4    C2    A    
C36   O27   D    
C23   C25   S    
C35   O25   D    
C19   H13   S    
O14   C30   A    
C4    C5    S    
C19   C21   A    
O3    C1    A    
C25   C35   S    
O18   C31   A    
O19   C32   A    
V2    O10   S    
O15   V3    S    
C9    H7    S    
C34   O24   S    
C10   H8    S    
C20   H14   S    
O8    V2    S    
H4    C8    S    
C33   O22   S    
C15   C17   A    
C26   H18   S    
C7    C11   S    
O7    V1    S    
C6    C34   S    
C18   C20   A    
O19   V4    S    
C24   C26   S    
C13   C27   S    
C25   C27   S    
C14   C28   S    
V4    O20   S    
C26   C36   S    
C26   C28   S    
C36   O28   S    
C28   H6    S    
C35   O26   S    
O12   C29   A    
C1    C15   S    
O22   H9    S    
C2    C16   S    
H2    C12   S    
C38   O31   D    
O14   V3    S    
H1    C11   S    
H3    C7    S    
O11   V4    S    
O16   C31   A    
C38   O32   S    
O28   H16   S    
O9    V2    S    
C13   C23   A    
O17   V3    S    
C14   C24   A    
O2    V2    S    
C27   H5    S    
O5    C4    A    
C28   C38   S    
C18   H12   S    
O11   C30   A    
O1    V2    S    
C21   C30   S    
C17   H11   S    
O9    C4    A    
C5    C7    D    
V3    O20   S    
O4    V1    S    
C5    C33   S    
C8    C12   S    
O6    V1    S    
O18   V4    S    
C9    C11   D    
O13   V3    S    
C25   H17   S    
C10   C12   D    
C27   C37   S    
C20   C22   A    
O7    V2    S    
O24   H10   S    
C21   C23   A    
O3    V1    S    
V1    O10   S    
O6    C3    A    
C22   C24   A    
O8    C3    A    
O12   V4    S    
C22   C29   S    
O13   C29   A    
O17   V4    S    
C17   C19   A    
C3    C6    S    
C6    C8    D    
C34   O23   D    
O26   H15   S    
O5    V1    S    
C13   C15   A    
C33   O21   D    
C37   O30   S    
O15   C32   A    
C9    C31   S    
O30   H19   S    
C10   C32   S    
O16   V3    S    
C16   C18   A    
