data_mof_unit_59782.cif
_audit_creation_date              2012-12-10T17:59:44-0500
_audit_creation_method            fapswitch 2.2
_symmetry_space_group_name_H-M    P1
_symmetry_Int_Tables_number       1
_space_group_crystal_system       triclinic
_cell_length_a                    10.778425
_cell_length_b                    9.626668
_cell_length_c                    15.859849
_cell_angle_alpha                 91.668433
_cell_angle_beta                  91.69765
_cell_angle_gamma                 89.369441
_cell_volume                      1644.118619

loop_
_atom_site_label
_atom_site_type_symbol
_atom_type_description
_atom_site_fract_x
_atom_site_fract_y
_atom_site_fract_z
_atom_type_partial_charge
C1    C     C_R   0.262814 0.500566 0.498932 0.790575
C2    C     C_3   0.620001 0.597089 0.956896 -0.009696
C3    C     C_3   0.606611 0.602365 0.056641 1.070975
C4    C     C_1   0.503548 0.506052 0.825113 0.061618
C5    C     C_1   0.501842 0.495712 0.175428 0.106575
C6    C     C_1   0.500824 0.495153 0.250911 -0.173508
C7    C     C_R   0.063779 0.420101 0.438884 -0.172797
C8    C     C_R   0.068700 0.583175 0.558120 -0.204115
C9    C     C_R   0.934135 0.419206 0.437412 0.116901
C10   C     C_R   0.940112 0.580588 0.561696 0.150418
C11   C     C_R   0.872295 0.498756 0.500569 -0.090504
C12   C     C_R   0.129404 0.501921 0.498239 -0.090990
C13   C     C_R   0.446438 0.068651 0.434583 0.212566
C14   C     C_R   0.424220 0.925971 0.445456 0.240555
C15   C     C_R   0.500254 0.498308 0.340481 0.794265
C16   C     C_R   0.567947 0.927997 0.559149 -0.079973
C17   C     C_R   0.561734 0.076252 0.562182 -0.058712
C18   C     C_R   0.737563 0.499560 0.500881 0.784213
C19   C     C_R   0.499733 0.501715 0.659644 0.818979
C20   C     C_3   0.376992 0.550492 0.048342 -0.509124
C21   C     C_3   0.530789 0.352220 0.045632 -0.532849
C22   C     C_3   0.523503 0.352461 0.947745 0.485975
C23   C     C_3   0.377935 0.555628 0.951136 0.509113
C24   C     C_1   0.501326 0.505172 0.749448 -0.160615
C25   C     C_3   0.504485 0.500061 0.083376 -0.028246
C26   C     C_3   0.507038 0.505501 0.917636 -0.066255
Cu1   Cu    Cu3+1 0.500020 0.640660 0.500000 0.949301
Cu2   Cu    Cu3+1 0.500020 0.359340 0.500000 0.942484
H1    H     H_    0.622440 0.874755 0.606757 0.131304
H2    H     H_    0.611381 0.132825 0.612247 0.145225
H3    H     H_    0.303085 0.479139 0.067766 0.236921
H4    H     H_    0.462399 0.277526 0.068891 0.240701
H5    H     H_    0.624218 0.315363 0.067361 0.173844
H6    H     H_    0.353826 0.655323 0.075293 0.180905
H7    H     H_    0.607940 0.302358 0.921863 0.064303
H8    H     H_    0.352593 0.660931 0.932052 0.094706
H9    H     H_    0.115120 0.359756 0.393225 0.139126
H10   H     H_    0.122614 0.644362 0.604238 0.144373
N1    N     N_R   0.500030 0.852070 0.500020 -0.177171
N2    N     N_R   0.500030 0.147930 0.500020 -0.182749
O1    O     O_R   0.319660 0.618740 0.500000 -0.587978
O2    O     O_R   0.319660 0.381260 0.500000 -0.569685
O3    O     O_R   0.500020 0.618840 0.379440 -0.552454
O4    O     O_R   0.500020 0.381160 0.379440 -0.583919
O5    O     O_R   0.680370 0.618830 0.500010 -0.574154
O6    O     O_R   0.680370 0.381170 0.500010 -0.595353
O7    O     O_R   0.500010 0.618730 0.620560 -0.577283
O8    O     O_R   0.500010 0.381270 0.620560 -0.563840
F1    F     F_    0.282675 0.474070 0.916838 -0.593081
F2    F     F_    0.426524 0.269016 0.918187 -0.584343
F3    F     F_    0.576224 0.735262 0.085837 -0.684709
F4    F     F_    0.717156 0.567080 0.098314 -0.678275
C27   C     C_3   0.627861 0.747668 0.919588 -0.312308
C28   C     C_3   0.512959 0.842119 0.915090 -0.791102
H11   H     H_    0.451401 0.810401 0.860745 0.231594
H12   H     H_    0.462400 0.846473 0.974887 0.287099
H13   H     H_    0.542635 0.949709 0.902949 0.261701
H14   H     H_    0.698865 0.807503 0.957168 0.249211
H15   H     H_    0.661948 0.738731 0.854204 0.190254
C29   C     C_3   0.747412 0.521649 0.934446 -0.416970
C30   C     C_3   0.866561 0.607540 0.946960 -0.713775
H16   H     H_    0.873556 0.684961 0.896873 0.216858
H17   H     H_    0.871097 0.661979 0.009502 0.295908
H18   H     H_    0.948736 0.537377 0.942339 0.259937
H19   H     H_    0.762295 0.428103 0.972842 0.220798
H20   H     H_    0.744092 0.483934 0.867630 0.190941
C31   C     C_3   0.860574 0.336926 0.369160 -0.368709
C32   C     C_3   0.934801 0.279133 0.294922 -0.821855
H21   H     H_    0.985326 0.363766 0.264934 0.263800
H22   H     H_    0.001060 0.197187 0.316098 0.239958
H23   H     H_    0.870160 0.231367 0.246837 0.255911
H24   H     H_    0.814969 0.248171 0.398468 0.219266
H25   H     H_    0.786917 0.405715 0.342211 0.207343
C33   C     C_3   0.879983 0.661607 0.633390 -0.403448
C34   C     C_3   0.833106 0.564952 0.699681 -0.828146
H26   H     H_    0.767383 0.487697 0.671506 0.236880
H27   H     H_    0.912323 0.509118 0.730276 0.269282
H28   H     H_    0.784342 0.627588 0.748388 0.228360
H29   H     H_    0.947490 0.733572 0.665482 0.198934
H30   H     H_    0.803855 0.729077 0.609588 0.213488
C35   C     C_3   0.449406 0.109315 0.342734 -0.323346
C36   C     C_3   0.331776 0.183426 0.310532 -0.801189
H31   H     H_    0.297731 0.259506 0.357954 0.263234
H32   H     H_    0.351922 0.238379 0.251991 0.236649
H33   H     H_    0.257124 0.107993 0.294582 0.229116
H34   H     H_    0.535985 0.164779 0.330524 0.214650
H35   H     H_    0.461319 0.015517 0.301271 0.182583
C37   C     C_3   0.295998 0.876944 0.415147 -0.342878
C38   C     C_3   0.291640 0.789604 0.332793 -0.736500
H36   H     H_    0.376923 0.800478 0.296273 0.254981
H37   H     H_    0.277073 0.678586 0.345683 0.243075
H38   H     H_    0.211579 0.823249 0.292343 0.216482
H39   H     H_    0.245690 0.829248 0.466179 0.214179
H40   H     H_    0.235505 0.969316 0.404717 0.164212

loop_
_geom_bond_atom_site_label_1
_geom_bond_atom_site_label_2
_ccdc_geom_bond_type
C11   C18   S    
C35   C36   S    
C27   H15   S    
C27   C28   S    
C22   H7    S    
Cu2   O6    S    
C15   O4    A    
C5    C6    T    
C4    C24   T    
C2    C29   S    
C23   F1    S    
C21   H5    S    
C20   C25   S    
Cu2   N2    S    
C13   C35   S    
C31   H24   S    
C23   C26   S    
C30   H17   S    
C13   N2    A    
C14   N1    A    
C37   H39   S    
Cu1   N1    S    
C16   C17   A    
C31   H25   S    
C38   H37   S    
C35   H34   S    
C8    C12   A    
C22   F2    S    
C20   H6    S    
Cu1   O5    S    
C6    C15   S    
C29   H20   S    
C33   H30   S    
C21   C22   S    
C17   H2    S    
C1    C12   S    
C8    H10   S    
C18   O6    A    
C37   H40   S    
C7    C12   A    
C21   H4    S    
C28   H12   S    
C33   C34   S    
C31   C32   S    
C3    C25   S    
C3    F3    S    
C19   O8    A    
C32   H21   S    
C16   H1    S    
Cu2   O4    S    
C29   C30   S    
C17   N2    A    
C30   H18   S    
C34   H26   S    
C9    C31   S    
C9    C11   A    
Cu1   O1    S    
C20   C23   S    
C27   H14   S    
C7    H9    S    
C2    C26   S    
C38   H38   S    
C34   H27   S    
C35   H35   S    
C5    C25   S    
C1    O1    A    
C29   H19   S    
C23   H8    S    
C36   H32   S    
C33   H29   S    
C18   O5    A    
Cu1   O7    S    
C7    C9    A    
C21   C25   S    
C28   H11   S    
Cu2   O8    S    
C2    C27   S    
C4    C26   S    
C3    F4    S    
C36   H33   S    
C2    C3    S    
C15   O3    A    
C10   C33   S    
C32   H23   S    
Cu2   O2    S    
C19   C24   S    
C19   O7    A    
C30   H16   S    
C34   H28   S    
C10   C11   A    
C16   N1    A    
C14   C37   S    
Cu1   O3    S    
C1    O2    A    
C37   C38   S    
C8    C10   A    
C36   H31   S    
C22   C26   S    
Cu1   Cu2   S    
C32   H22   S    
C38   H36   S    
C13   C14   A    
C28   H13   S    
C20   H3    S    
