data_mof_unit_58196.cif
_audit_creation_date              2012-12-10T18:43:42-0500
_audit_creation_method            fapswitch 2.2
_symmetry_space_group_name_H-M    P1
_symmetry_Int_Tables_number       1
_space_group_crystal_system       triclinic
_cell_length_a                    10.87279
_cell_length_b                    10.711132
_cell_length_c                    9.870294
_cell_angle_alpha                 90.401721
_cell_angle_beta                  105.828057
_cell_angle_gamma                 90.674476
_cell_volume                      1105.77072765

loop_
_atom_site_label
_atom_site_type_symbol
_atom_type_description
_atom_site_fract_x
_atom_site_fract_y
_atom_site_fract_z
_atom_type_partial_charge
C1    C     C_R   0.499699 0.259964 0.499584 0.876898
C2    C     C_R   0.500301 0.740036 0.500416 0.876899
C3    C     C_R   0.258310 0.502147 0.439211 0.904955
C4    C     C_R   0.741690 0.497852 0.560789 0.904955
C5    C     C_R   0.582014 0.575626 0.098155 -0.142007
C6    C     C_R   0.417986 0.424374 0.901845 -0.142008
C7    C     C_R   0.582510 0.575987 0.955104 0.207748
C8    C     C_R   0.417490 0.424014 0.044896 0.207750
C9    C     C_2   0.119612 0.510874 0.401711 0.038933
C10   C     C_2   0.880389 0.489122 0.598289 0.038934
C11   C     C_2   0.065216 0.484046 0.504634 -0.205649
C12   C     C_2   0.934783 0.515947 0.495363 -0.205647
C13   C     C_R   0.526019 0.063484 0.387182 -0.159400
C14   C     C_R   0.473981 0.936516 0.612817 -0.159400
C15   C     C_R   0.526647 0.935610 0.387811 -0.183994
C16   C     C_R   0.473353 0.064390 0.612189 -0.183994
C17   C     C_R   0.500544 0.872527 0.500601 -0.022899
C18   C     C_R   0.499455 0.127473 0.499399 -0.022899
H1    H     H_    0.879319 0.557399 0.397946 0.183446
H2    H     H_    0.120680 0.442593 0.602051 0.183441
H3    H     H_    0.647374 0.635976 0.173555 0.159829
H4    H     H_    0.352626 0.364024 0.826445 0.159828
H5    H     H_    0.547190 0.111843 0.299942 0.174993
H6    H     H_    0.452809 0.888157 0.700058 0.174993
H7    H     H_    0.548210 0.886560 0.300827 0.165092
H8    H     H_    0.451789 0.113440 0.699172 0.165091
N1    N     N_R   0.499970 0.499970 0.857200 -0.103966
N2    N     N_R   0.500030 0.500030 0.142800 -0.103967
O1    O     O_R   0.499990 0.316750 0.614620 -0.631376
O2    O     O_R   0.500010 0.683250 0.385380 -0.631375
O3    O     O_R   0.499990 0.316780 0.385290 -0.593589
O4    O     O_R   0.500010 0.683220 0.614710 -0.593588
O5    O     O_R   0.317810 0.500000 0.571850 -0.638795
O6    O     O_R   0.682190 0.500000 0.428150 -0.638795
O7    O     O_R   0.317810 0.500030 0.342520 -0.579954
O8    O     O_R   0.682190 0.499970 0.657480 -0.579954
Zn1   Zn    Zn3+2 0.500000 0.499980 0.653120 0.969229
Zn2   Zn    Zn3+2 0.500000 0.500020 0.346880 0.969230
N3    N     N_2   0.954882 0.445221 0.732236 -0.313395
H9    H     H_    0.027370 0.504431 0.786600 0.241343
C19   C     C_3   0.896316 0.368079 0.817863 -0.684715
H10   H     H_    0.971923 0.316716 0.894847 0.247476
H11   H     H_    0.829505 0.298332 0.751557 0.237003
H12   H     H_    0.845550 0.427049 0.877581 0.258386
N4    N     N_2   0.045119 0.554777 0.267764 -0.313395
H13   H     H_    0.972641 0.495559 0.213393 0.241342
C20   C     C_3   0.103683 0.631931 0.182146 -0.684712
H14   H     H_    0.028075 0.683295 0.105164 0.247478
H15   H     H_    0.154455 0.572970 0.122424 0.258384
H16   H     H_    0.170489 0.701677 0.248459 0.236998
I1    I     I_    0.715787 0.698786 0.902766 -0.405590
I2    I     I_    0.284212 0.301216 0.097233 -0.405590

loop_
_geom_bond_atom_site_label_1
_geom_bond_atom_site_label_2
_ccdc_geom_bond_type
C11   C12   S    
C4    O8    A    
C9    N4    S    
C3    C9    S    
C3    O7    A    
C5    N2    A    
C19   H11   S    
C19   H10   S    
C8    I2    S    
C7    N1    A    
C20   H14   S    
O3    Zn2   S    
N2    Zn2   S    
C2    O2    A    
C1    O1    A    
C7    I1    S    
C20   H15   S    
O6    Zn2   S    
N4    H13   S    
C2    C17   S    
C9    C11   D    
C14   C17   A    
O2    Zn2   S    
C1    C18   S    
C10   C12   D    
C13   C18   A    
N1    Zn1   S    
C15   C17   A    
C12   H1    S    
C16   C18   A    
O8    Zn1   S    
C20   H16   S    
C14   C16   A    
C13   C15   A    
C16   H8    S    
C8    N2    A    
C19   H12   S    
C4    O6    A    
C11   H2    S    
C15   H7    S    
O1    Zn1   S    
C3    O5    A    
C4    C10   S    
C6    H4    S    
C1    O3    A    
O7    Zn2   S    
C5    H3    S    
C13   H5    S    
C2    O4    A    
N4    C20   S    
C14   H6    S    
N3    H9    S    
C5    C7    A    
C6    C8    A    
O4    Zn1   S    
O5    Zn1   S    
N3    C19   S    
C6    N1    A    
C10   N3    S    
