data_mof_unit_54307.cif
_audit_creation_date              2012-12-10T19:47:23-0500
_audit_creation_method            fapswitch 2.2
_symmetry_space_group_name_H-M    P1
_symmetry_Int_Tables_number       1
_space_group_crystal_system       triclinic
_cell_length_a                    10.868114
_cell_length_b                    10.826205
_cell_length_c                    12.732914
_cell_angle_alpha                 92.039013
_cell_angle_beta                  92.292091
_cell_angle_gamma                 90.048964
_cell_volume                      1496.00977875

loop_
_atom_site_label
_atom_site_type_symbol
_atom_type_description
_atom_site_fract_x
_atom_site_fract_y
_atom_site_fract_z
_atom_type_partial_charge
C1    C     C_R   0.261931 0.502232 0.501139 0.785425
C2    C     C_R   0.738066 0.497678 0.498864 0.785262
C3    C     C_R   0.495394 0.871584 0.497541 -0.081868
C4    C     C_R   0.504638 0.128410 0.502459 -0.081903
C5    C     C_R   0.433022 0.936075 0.417237 -0.003471
C6    C     C_R   0.566977 0.063915 0.582787 -0.003451
C7    C     C_R   0.186638 0.561223 0.874941 -0.130172
C8    C     C_R   0.813758 0.436899 0.124987 -0.130271
C9    C     C_R   0.124754 0.519192 0.782232 -0.139368
C10   C     C_R   0.875887 0.479160 0.217514 -0.139718
C11   C     C_R   0.127291 0.589039 0.691492 0.126415
C12   C     C_R   0.872666 0.410132 0.308679 0.126069
C13   C     C_R   0.190271 0.702605 0.695205 -0.093738
C14   C     C_R   0.808889 0.297040 0.305517 -0.092949
C15   C     C_R   0.252472 0.744064 0.788050 -0.120159
C16   C     C_R   0.746421 0.255381 0.212867 -0.119605
C17   C     C_R   0.250842 0.673144 0.877581 -0.137432
C18   C     C_R   0.748642 0.325557 0.122946 -0.137649
C19   C     C_R   0.937357 0.537314 0.588956 -0.252890
C20   C     C_R   0.062644 0.462349 0.411071 -0.252889
C21   C     C_R   0.871744 0.496064 0.497407 -0.083780
C22   C     C_R   0.128251 0.503656 0.502611 -0.083744
C23   C     C_R   0.503028 0.262055 0.501186 0.786045
C24   C     C_R   0.496983 0.737943 0.498815 0.786312
C25   C     C_R   0.935158 0.457374 0.407367 -0.006082
C26   C     C_R   0.064831 0.542188 0.592683 -0.006361
C27   C     C_2   0.476169 0.455671 0.030956 0.102138
C28   C     C_2   0.523952 0.544349 0.969045 0.102470
C29   C     C_1   0.521697 0.528546 0.852508 0.186158
C30   C     C_1   0.478355 0.471459 0.147493 0.185667
C31   C     C_R   0.814866 0.257308 0.728341 -0.117179
C32   C     C_R   0.184769 0.742771 0.272092 -0.117114
C33   C     C_R   0.740762 0.204058 0.646577 -0.086391
C34   C     C_R   0.259008 0.796082 0.353742 -0.086746
C35   C     C_R   0.643140 0.125120 0.668890 0.122508
C36   C     C_R   0.356708 0.874842 0.331250 0.122527
C37   C     C_R   0.622861 0.098268 0.774001 -0.154913
C38   C     C_R   0.376954 0.901438 0.226079 -0.154663
C39   C     C_R   0.698271 0.150158 0.855277 -0.150746
C40   C     C_R   0.301438 0.849451 0.144911 -0.150449
C41   C     C_R   0.793709 0.230418 0.832636 -0.130571
C42   C     C_R   0.205902 0.769389 0.167732 -0.130491
C43   C     C_R   0.560725 0.935747 0.579302 -0.237421
C44   C     C_R   0.439319 0.064240 0.420687 -0.237557
Cu1   Cu    Cu3+1 0.492140 0.492110 0.395880 0.977824
Cu2   Cu    Cu3+1 0.507860 0.507890 0.604120 0.977882
H1    H     H_    0.852010 0.270803 0.895708 0.125547
H2    H     H_    0.147511 0.728942 0.104746 0.125532
H3    H     H_    0.192586 0.757734 0.626006 0.096331
H4    H     H_    0.806074 0.242503 0.375021 0.095900
H5    H     H_    0.302654 0.830606 0.790392 0.116612
H6    H     H_    0.695542 0.169293 0.210991 0.116710
H7    H     H_    0.889226 0.568420 0.658044 0.163716
H8    H     H_    0.110793 0.431216 0.342000 0.163619
H9    H     H_    0.889554 0.318236 0.710703 0.124805
H10   H     H_    0.110002 0.682000 0.289865 0.124886
H11   H     H_    0.759893 0.223655 0.566069 0.084644
H12   H     H_    0.239922 0.776674 0.434305 0.084795
H13   H     H_    0.549198 0.036381 0.792930 0.121338
H14   H     H_    0.450687 0.963178 0.207020 0.121149
H15   H     H_    0.682984 0.126857 0.935598 0.123228
H16   H     H_    0.316722 0.872509 0.064528 0.123144
H17   H     H_    0.610694 0.885304 0.639503 0.157136
H18   H     H_    0.389353 0.114672 0.360478 0.157165
H19   H     H_    0.300742 0.703767 0.948675 0.130204
H20   H     H_    0.698497 0.294818 0.052013 0.130203
H21   H     H_    0.185922 0.506509 0.944441 0.145722
H22   H     H_    0.814962 0.491018 0.055169 0.145160
H23   H     H_    0.076642 0.431504 0.780633 0.115756
H24   H     H_    0.924683 0.566431 0.218642 0.115777
N1    N     N_1   0.480320 0.480250 0.239400 -0.162610
N2    N     N_1   0.519680 0.519750 0.760600 -0.162621
O1    O     O_R   0.313000 0.493330 0.412070 -0.583879
O2    O     O_R   0.687000 0.506670 0.587930 -0.583956
O3    O     O_R   0.326280 0.506660 0.587930 -0.563605
O4    O     O_R   0.673720 0.493340 0.412070 -0.563619
O5    O     O_R   0.493370 0.312980 0.412070 -0.583624
O6    O     O_R   0.506630 0.687020 0.587930 -0.583554
O7    O     O_R   0.506650 0.326310 0.587930 -0.567081
O8    O     O_R   0.493350 0.673690 0.412070 -0.567066
N3    N     N_2   0.577372 0.654955 0.017393 -0.438630
H25   H     H_    0.545259 0.682390 0.089668 0.260199
C45   C     C_3   0.603768 0.757064 0.951181 -0.700758
H26   H     H_    0.646987 0.833806 0.999797 0.220122
H27   H     H_    0.517336 0.791480 0.913031 0.215420
H28   H     H_    0.669371 0.727951 0.890391 0.239672
N4    N     N_2   0.422818 0.345054 0.982562 -0.438978
H29   H     H_    0.455591 0.317220 0.910639 0.260307
C46   C     C_3   0.395408 0.243323 0.048822 -0.701331
H30   H     H_    0.481370 0.208661 0.087551 0.215622
H31   H     H_    0.329434 0.272952 0.109140 0.239684
H32   H     H_    0.352222 0.166625 0.000128 0.220247

loop_
_geom_bond_atom_site_label_1
_geom_bond_atom_site_label_2
_ccdc_geom_bond_type
C13   H3    S    
N4    H29   S    
Cu1   N1    S    
C30   N1    T    
C43   H17   S    
C39   C41   A    
Cu1   Cu2   S    
C44   H18   S    
C3    C43   A    
Cu1   O4    S    
C28   C29   S    
C19   C21   A    
C9    H23   S    
Cu2   O7    S    
C20   C25   A    
C5    C36   S    
C40   H16   S    
C6    C35   S    
Cu1   O1    S    
C19   C26   A    
C24   O8    A    
C7    C17   A    
C31   C33   A    
C15   H5    S    
C46   H31   S    
Cu2   N2    S    
C2    O2    A    
C29   N2    T    
C19   H7    S    
C40   C42   A    
C1    C22   S    
C27   C30   S    
C3    C24   S    
Cu2   O3    S    
N3    C45   S    
N3    H25   S    
C39   H15   S    
C1    O3    A    
C20   H8    S    
Cu2   O6    S    
C4    C23   S    
C4    C44   A    
C11   C26   S    
C8    C18   A    
C32   C34   A    
C45   H26   S    
C2    C21   S    
C41   H1    S    
C16   C18   A    
C42   H2    S    
C23   O5    A    
C46   H32   S    
C27   N4    S    
C9    C11   A    
C37   H13   S    
C10   C12   A    
C38   H14   S    
C10   H24   S    
C4    C6    A    
C45   H27   S    
C5    C44   A    
C12   C14   A    
C8    H22   S    
C6    C43   A    
C13   C15   A    
C14   C16   A    
Cu2   O2    S    
C2    O4    A    
C24   O6    A    
C15   C17   A    
C21   C25   A    
C33   H11   S    
C31   C41   A    
C35   C37   A    
C28   N3    S    
C16   H6    S    
C20   C22   A    
C3    C5    A    
C23   O7    A    
C18   H20   S    
C17   H19   S    
C12   C25   S    
C1    O1    A    
N4    C46   S    
C37   C39   A    
C38   C40   A    
C11   C13   A    
C14   H4    S    
C36   C38   A    
C33   C35   A    
Cu1   O8    S    
C34   C36   A    
C7    H21   S    
C7    C9    A    
C45   H28   S    
C8    C10   A    
C22   C26   A    
C27   C28   D    
C34   H12   S    
C32   C42   A    
Cu1   O5    S    
C31   H9    S    
C46   H30   S    
C32   H10   S    
