data_mof_unit_50300.cif
_audit_creation_date              2012-12-10T18:46:18-0500
_audit_creation_method            fapswitch 2.2
_symmetry_space_group_name_H-M    P1
_symmetry_Int_Tables_number       1
_space_group_crystal_system       triclinic
_cell_length_a                    9.833157
_cell_length_b                    10.693763
_cell_length_c                    13.158873
_cell_angle_alpha                 90.117035
_cell_angle_beta                  71.168268
_cell_angle_gamma                 89.969303
_cell_volume                      1309.62849417

loop_
_atom_site_label
_atom_site_type_symbol
_atom_type_description
_atom_site_fract_x
_atom_site_fract_y
_atom_site_fract_z
_atom_type_partial_charge
C1    C     C_R   0.498852 0.740128 0.502393 0.828123
C2    C     C_R   0.432495 0.553838 0.984682 0.080546
C3    C     C_R   0.466466 0.570518 0.873325 0.029520
C4    C     C_R   0.541454 0.575221 0.030974 -0.030930
C5    C     C_R   0.685151 0.592874 0.965338 0.111029
C6    C     C_R   0.711414 0.629212 0.859338 -0.217876
C7    C     C_R   0.598659 0.628399 0.816933 -0.178657
C8    C     C_R   0.512595 0.578029 0.141353 0.415806
C9    C     C_R   0.764679 0.542011 0.116376 -0.283136
C10   C     C_R   0.371062 0.524331 0.821152 -0.224122
C11   C     C_R   0.603728 0.935961 0.534044 -0.194690
C12   C     C_R   0.421124 0.508009 0.703952 0.871578
C13   C     C_R   0.603039 0.064130 0.534803 -0.221737
C14   C     C_R   0.495640 0.127545 0.507418 -0.009587
C15   C     C_R   0.384380 0.064002 0.485255 -0.206828
C16   C     C_R   0.383684 0.936150 0.486273 -0.198417
C17   C     C_R   0.495481 0.872542 0.507764 -0.005353
C18   C     C_R   0.955629 0.419740 0.434287 0.549131
C19   C     C_R   0.100846 0.421198 0.434065 -0.177134
C20   C     C_R   0.044314 0.580295 0.564307 -0.088190
C21   C     C_R   0.901185 0.581206 0.563255 -0.176998
C22   C     C_R   0.498942 0.259893 0.502086 0.863250
C23   C     C_R   0.578018 0.508897 0.296603 0.913062
C24   C     C_R   0.797141 0.577630 0.008833 -0.204330
C25   C     C_R   0.620722 0.540231 0.182895 -0.174251
C26   C     C_R   0.233845 0.479577 0.882685 0.464921
C27   C     C_R   0.196774 0.473746 0.994132 -0.283363
C28   C     C_R   0.296419 0.505292 0.044300 -0.239390
H1    H     H_    0.850737 0.521567 0.148396 0.194068
H2    H     H_    0.686619 0.113206 0.555815 0.144641
H3    H     H_    0.299718 0.112583 0.465152 0.155591
H4    H     H_    0.298535 0.887540 0.466840 0.161007
H5    H     H_    0.180340 0.361055 0.380199 0.141088
H6    H     H_    0.076722 0.644883 0.615552 0.147374
H7    H     H_    0.826902 0.648889 0.611315 0.137687
H8    H     H_    0.817517 0.658949 0.810155 0.142830
H9    H     H_    0.908224 0.587981 0.959132 0.192950
H10   H     H_    0.266992 0.485751 0.129131 0.209108
H11   H     H_    0.092713 0.437984 0.041532 0.158445
H12   H     H_    0.616964 0.668869 0.738746 0.156501
H13   H     H_    0.688518 0.886910 0.553565 0.148060
N1    N     N_R   0.142790 0.500030 0.500030 -0.096335
N2    N     N_R   0.857180 0.499940 0.500010 -0.107042
O1    O     O_R   0.385370 0.683250 0.500010 -0.620654
O2    O     O_R   0.614700 0.683220 0.500010 -0.635589
O3    O     O_R   0.328400 0.499990 0.653620 -0.571175
O4    O     O_R   0.557730 0.499960 0.653620 -0.624530
O5    O     O_R   0.385300 0.316780 0.499990 -0.637999
O6    O     O_R   0.614630 0.316750 0.499990 -0.601353
O7    O     O_R   0.442270 0.500040 0.346380 -0.561773
O8    O     O_R   0.671600 0.500010 0.346380 -0.578021
Zn1   Zn    Zn3+2 0.346870 0.500020 0.500000 0.966445
Zn2   Zn    Zn3+2 0.653130 0.499980 0.500000 0.972141
O9    O     O_3   0.915268 0.349902 0.359968 -0.629486
C29   C     C_3   0.946106 0.221151 0.365156 0.061147
H14   H     H_    0.844427 0.169388 0.377172 0.187617
H15   H     H_    0.984940 0.194853 0.433202 0.094335
C30   C     C_3   0.053850 0.178166 0.258428 -0.353451
H16   H     H_    0.016470 0.208584 0.191125 0.232426
H17   H     H_    0.160312 0.221388 0.247286 0.207805
C31   C     C_3   0.069808 0.036056 0.254695 -0.980490
H18   H     H_    0.103288 0.002787 0.322954 0.256369
H19   H     H_    0.152389 0.007714 0.178316 0.265651
H20   H     H_    0.966287 0.991108 0.258937 0.272656
O10   O     O_3   0.384798 0.628351 0.209165 -0.640086
C32   C     C_3   0.373848 0.757402 0.187502 0.086000
H21   H     H_    0.268843 0.790816 0.242521 0.175822
H22   H     H_    0.371229 0.772668 0.104558 0.138249
C33   C     C_3   0.493980 0.836079 0.207599 -0.378958
H23   H     H_    0.502783 0.812271 0.287173 0.230847
H24   H     H_    0.598589 0.814561 0.145557 0.217618
C34   C     C_3   0.465630 0.975900 0.203280 -0.944835
H25   H     H_    0.456759 0.001332 0.123859 0.263141
H26   H     H_    0.555685 0.029315 0.215915 0.271548
H27   H     H_    0.365042 0.002312 0.267317 0.267549
O11   O     O_3   0.134441 0.443662 0.834112 -0.645537
C35   C     C_3   0.135134 0.311989 0.825288 0.097468
H28   H     H_    0.083249 0.269484 0.905692 0.133390
H29   H     H_    0.246804 0.274824 0.790600 0.125126
C36   C     C_3   0.050515 0.274879 0.750760 -0.291505
H30   H     H_    0.938152 0.309356 0.784619 0.223122
H31   H     H_    0.100149 0.319031 0.670978 0.244801
C37   C     C_3   0.049119 0.133357 0.736108 -0.997567
H32   H     H_    0.160523 0.097175 0.701536 0.276591
H33   H     H_    0.988694 0.109953 0.680410 0.258679
H34   H     H_    0.996130 0.087126 0.814433 0.268512

loop_
_geom_bond_atom_site_label_1
_geom_bond_atom_site_label_2
_ccdc_geom_bond_type
C32   H22   S    
C29   H14   S    
C31   H20   S    
C22   O5    A    
C4    C8    A    
C9    C25   A    
C35   H28   S    
C26   C27   A    
C3    C7    A    
C36   C37   S    
C5    C6    A    
C32   C33   S    
C30   H17   S    
C15   C16   A    
O3    Zn1   S    
C31   H19   S    
C18   C19   A    
C33   H24   S    
C21   N2    A    
C23   O8    A    
N2    Zn2   S    
C27   H11   S    
C16   C17   A    
C26   O11   S    
C7    H12   S    
C34   H27   S    
C19   N1    A    
C9    H1    S    
O4    Zn2   S    
C20   H6    S    
O1    Zn1   S    
C30   C31   S    
C32   H21   S    
O2    Zn2   S    
C8    O10   S    
C13   C14   A    
C8    C25   A    
C33   H23   S    
C12   O4    A    
C24   H9    S    
C35   H29   S    
C13   H2    S    
O11   C35   S    
C34   H26   S    
C19   H5    S    
C36   H30   S    
C23   O7    A    
C30   H16   S    
O8    Zn2   S    
C12   O3    A    
C33   C34   S    
C2    C4    A    
C1    O1    A    
O7    Zn1   S    
C37   H32   S    
C28   H10   S    
C10   C26   A    
C10   C12   S    
C22   O6    A    
C36   H31   S    
C37   H33   S    
C29   H15   S    
C35   C36   S    
O9    C29   S    
C11   C17   A    
C34   H25   S    
C20   N1    A    
C9    C24   A    
C15   H3    S    
C6    C7    A    
C21   H7    S    
C16   H4    S    
C1    C17   S    
C14   C22   S    
C2    C3    A    
C3    C10   A    
C18   N2    A    
C11   C13   A    
C1    O2    A    
C5    C24   A    
O6    Zn2   S    
C4    C5    A    
C6    H8    S    
C11   H13   S    
C23   C25   S    
C31   H18   S    
C18   O9    S    
O5    Zn1   S    
C37   H34   S    
C20   C21   A    
O10   C32   S    
C29   C30   S    
C27   C28   A    
C14   C15   A    
C2    C28   A    
N1    Zn1   S    
