data_mof_unit_48183.cif
_audit_creation_date              2012-12-11T15:48:35-0500
_audit_creation_method            fapswitch 2.2
_symmetry_space_group_name_H-M    P1
_symmetry_Int_Tables_number       1
_space_group_crystal_system       triclinic
_cell_length_a                    10.938915
_cell_length_b                    10.997515
_cell_length_c                    18.808476
_cell_angle_alpha                 90.424923
_cell_angle_beta                  90.096643
_cell_angle_gamma                 60.549831
_cell_volume                      1970.24227416

loop_
_atom_site_label
_atom_site_type_symbol
_atom_type_description
_atom_site_fract_x
_atom_site_fract_y
_atom_site_fract_z
_atom_type_partial_charge
C1    C     C_R   0.240439 0.644749 0.610328 0.558006
C2    C     C_3   0.734947 0.512473 0.798795 -0.247887
C3    C     C_3   0.695050 0.664978 0.815651 0.059237
C4    C     C_3   0.667375 0.640379 0.679348 0.044912
C5    C     C_3   0.771377 0.693998 0.690964 -0.241677
C6    C     C_3   0.721420 0.498110 0.718338 -0.221846
C7    C     C_R   0.714911 0.084075 0.814002 -0.044522
C8    C     C_R   0.782691 0.150475 0.783498 -0.069036
C9    C     C_R   0.767051 0.180897 0.711100 -0.038700
C10   C     C_R   0.603954 0.094146 0.700351 0.318798
C11   C     C_R   0.621342 0.062259 0.771857 -0.141667
C12   C     C_R   0.651632 0.618301 0.602824 0.546822
C13   C     C_3   0.935442 0.099300 0.781144 -0.208820
C14   C     C_3   0.920928 0.123749 0.701697 0.246250
C15   C     C_R   0.677900 0.153636 0.668772 0.078396
C16   C     C_R   0.169870 0.674707 0.833595 0.019036
C17   C     C_R   0.149601 0.578995 0.793405 0.027814
C18   C     C_R   0.167209 0.569706 0.720364 -0.033862
C19   C     C_R   0.204369 0.767323 0.724520 -0.102294
C20   C     C_R   0.203377 0.765391 0.798188 -0.200794
C21   C     C_3   0.214724 0.424631 0.800759 -0.126128
C22   C     C_3   0.239152 0.413636 0.720432 -0.219725
C23   C     C_R   0.629881 0.225124 0.601353 0.573467
C24   C     C_R   0.195055 0.663756 0.684210 0.049859
C25   C     C_R   0.651919 0.657772 0.165036 0.032628
C26   C     C_R   0.750462 0.539192 0.202138 -0.021611
C27   C     C_R   0.744602 0.531990 0.274498 0.018493
C28   C     C_R   0.525300 0.746299 0.276797 -0.136871
C29   C     C_R   0.530297 0.754269 0.202040 0.317388
C30   C     C_3   0.908223 0.465952 0.204105 -0.264582
C31   C     C_3   0.899698 0.458831 0.283882 -0.269660
C32   C     C_R   0.640667 0.640382 0.313997 -0.041359
C33   C     C_R   0.637287 0.187285 0.169132 0.016229
C34   C     C_R   0.225936 0.646638 0.400174 0.551268
C35   C     C_R   0.519591 0.204939 0.206983 0.003457
C36   C     C_R   0.515900 0.216841 0.279649 0.028396
C37   C     C_R   0.733862 0.220625 0.278542 -0.160285
C38   C     C_R   0.736668 0.211495 0.204434 -0.161265
C39   C     C_3   0.450678 0.116261 0.209332 -0.226788
C40   C     C_3   0.445620 0.131416 0.289301 -0.273765
C41   C     C_R   0.628700 0.211006 0.316944 0.018073
C42   C     C_R   0.162419 0.670327 0.179779 0.020471
C43   C     C_R   0.177997 0.771574 0.218068 0.086535
C44   C     C_R   0.189460 0.764430 0.289769 0.035164
C45   C     C_R   0.638031 0.618320 0.390119 0.553792
C46   C     C_R   0.197896 0.541568 0.288282 -0.163920
C47   C     C_R   0.186420 0.547864 0.214177 -0.177576
C48   C     C_3   0.088203 0.928177 0.221753 -0.251292
C49   C     C_3   0.104059 0.917935 0.301434 -0.286526
C50   C     C_R   0.187861 0.656779 0.326726 0.010233
C51   C     C_R   0.726910 0.044358 0.888813 0.548159
C52   C     C_R   0.719054 0.684011 0.890787 0.533871
C53   C     C_R   0.116346 0.707470 0.905545 0.536816
C54   C     C_R   0.673285 0.110931 0.102542 0.545463
C55   C     C_R   0.694971 0.688549 0.096789 0.565944
C56   C     C_R   0.612641 0.237220 0.392564 0.551064
C57   C     C_R   0.095109 0.709438 0.111702 0.549439
C58   C     C_3   0.539775 0.757619 0.793913 -0.241515
C59   C     C_3   0.524933 0.745025 0.713423 -0.228497
C60   C     C_3   0.793749 0.700033 0.771197 -0.212224
Cr1   Cr    Cr6+3 0.392960 0.397920 0.502240 1.041691
Cr2   Cr    Cr6+3 0.398340 0.708480 0.501250 1.047375
Cr3   Cr    Cr6+3 0.708670 0.393570 0.496460 1.028822
Cr4   Cr    Cr6+3 0.937650 0.938540 0.007610 1.017811
Cr5   Cr    Cr6+3 0.625330 0.937370 0.994520 1.028549
Cr6   Cr    Cr6+3 0.937940 0.625230 0.001190 0.993034
H1    H     H_    0.497602 0.868236 0.808889 0.135308
H2    H     H_    0.826572 0.422873 0.697374 0.126808
H3    H     H_    0.903014 0.620853 0.783252 0.136839
H4    H     H_    0.873425 0.623450 0.664529 0.127439
H5    H     H_    0.560843 0.019683 0.794673 0.140062
H6    H     H_    0.990975 0.990149 0.797245 0.180881
H7    H     H_    0.964389 0.169523 0.810489 0.081399
H8    H     H_    0.952718 0.199148 0.682826 0.117835
H9    H     H_    0.223088 0.845196 0.699733 0.190081
H10   H     H_    0.474387 0.722243 0.822740 0.110304
H11   H     H_    0.218721 0.842391 0.827138 0.126851
H12   H     H_    0.134534 0.395222 0.816154 0.123087
H13   H     H_    0.350401 0.364849 0.703463 0.183217
H14   H     H_    0.176833 0.373717 0.691875 0.137876
H15   H     H_    0.434077 0.824269 0.305250 0.149047
H16   H     H_    0.950098 0.534889 0.187752 0.171518
H17   H     H_    0.956946 0.361766 0.177659 0.136358
H18   H     H_    0.942732 0.350620 0.303727 0.137225
H19   H     H_    0.453668 0.702738 0.703994 0.119948
H20   H     H_    0.936102 0.523684 0.312837 0.141514
H21   H     H_    0.816489 0.229275 0.305638 0.136356
H22   H     H_    0.824703 0.207410 0.176061 0.127666
H23   H     H_    0.522961 0.007696 0.191702 0.212507
H24   H     H_    0.345194 0.167652 0.184146 0.157947
H25   H     H_    0.337176 0.193610 0.310532 0.136861
H26   H     H_    0.512887 0.031560 0.317301 0.139776
H27   H     H_    0.211757 0.449068 0.315221 0.137420
H28   H     H_    0.185991 0.462881 0.185000 0.124060
H29   H     H_    0.978510 0.964284 0.204929 0.152688
H30   H     H_    0.480129 0.849503 0.688317 0.196968
H31   H     H_    0.139342 0.983140 0.196826 0.191374
H32   H     H_    0.167398 0.963916 0.322637 0.149586
H33   H     H_    0.004072 0.948728 0.330134 0.137996
H34   H     H_    0.783348 0.801693 0.786479 0.119478
H35   H     H_    0.729964 0.799395 0.667455 0.179339
H36   H     H_    0.844716 0.438882 0.815225 0.130348
H37   H     H_    0.665525 0.482891 0.828148 0.115294
H38   H     H_    0.648347 0.456876 0.708195 0.111404
O1    O     O_R   0.507380 0.255700 0.581440 -0.462367
O2    O     O_R   0.524480 0.695810 0.424040 -0.505860
O3    O     O_R   0.736390 0.504290 0.414790 -0.513136
O4    O     O_R   0.691300 0.277290 0.422170 -0.508365
O5    O     O_3   0.499990 0.499990 0.499980 -0.278298
O6    O     O_R   0.089400 0.825690 0.930570 -0.529274
O7    O     O_R   0.818460 0.054440 0.929850 -0.494509
O8    O     O_R   0.606060 0.077150 0.915510 -0.542241
O9    O     O_R   0.646550 0.806680 0.917570 -0.525375
O10   O     O_R   0.837170 0.593410 0.915250 -0.529136
O11   O     O_R   0.065200 0.635530 0.931570 -0.507430
O12   O     O_R   0.280320 0.527350 0.578930 -0.516209
O13   O     O_R   0.068260 0.828890 0.091840 -0.509212
O14   O     O_R   0.798870 0.057410 0.079340 -0.511584
O15   O     O_R   0.584930 0.080350 0.076780 -0.510999
O16   O     O_R   0.626960 0.809650 0.067060 -0.448786
O17   O     O_R   0.816040 0.596610 0.076510 -0.537031
O18   O     O_R   0.045610 0.638500 0.081060 -0.517241
O19   O     O_3   0.833640 0.833710 0.001100 -0.273193
O20   O     O_R   0.260510 0.739590 0.584590 -0.491326
O21   O     O_R   0.532300 0.695080 0.573820 -0.499123
O22   O     O_R   0.744840 0.503500 0.576370 -0.527648
O23   O     O_R   0.699120 0.276560 0.571960 -0.504817
O24   O     O_R   0.498940 0.256500 0.419860 -0.513874
O25   O     O_R   0.272500 0.528080 0.429150 -0.511344
O26   O     O_R   0.252060 0.740380 0.423010 -0.511656
F1    F     F_    0.512003 0.069629 0.662797 -0.656330
F2    F     F_    0.978314 0.001992 0.661800 -0.639858
C61   C     C_3   0.344676 0.355316 0.849526 -0.245324
C62   C     C_3   0.457700 0.397894 0.838494 -0.407975
H39   H     H_    0.494751 0.382318 0.782721 0.133293
H40   H     H_    0.421872 0.506917 0.854643 0.139578
H41   H     H_    0.547828 0.334738 0.873680 0.167207
H42   H     H_    0.308544 0.378646 0.905650 0.162054
H43   H     H_    0.391509 0.241295 0.842440 0.172747
F3    F     F_    0.421430 0.859162 0.167070 -0.664089

loop_
_geom_bond_atom_site_label_1
_geom_bond_atom_site_label_2
_ccdc_geom_bond_type
C53   O6    A    
C44   C49   S    
C55   O17   A    
Cr3   O5    S    
C51   O8    A    
C48   H29   S    
C32   C45   S    
Cr2   O26   S    
C19   C20   A    
C9    C14   S    
Cr1   O5    S    
C62   H41   S    
Cr2   O20   S    
C58   H10   S    
C7    C8    A    
Cr5   O8    S    
C14   F2    S    
C52   O9    A    
C7    C11   A    
C48   H31   S    
Cr2   O5    S    
C26   C27   A    
C8    C13   S    
C20   H11   S    
C18   C24   A    
C14   H8    S    
C23   O23   A    
C28   C29   A    
C22   H13   S    
C10   C15   A    
C30   C31   S    
C11   H5    S    
C12   O22   A    
C2    H36   S    
C23   O1    A    
Cr4   O14   S    
C30   H17   S    
C10   F1    S    
C56   O4    A    
C56   O24   A    
C57   O18   A    
C16   C53   S    
Cr5   O16   S    
C35   C36   A    
C34   O25   A    
C16   C17   A    
C21   H12   S    
Cr6   O18   S    
C1    O12   A    
C6    H38   S    
C4    C12   S    
Cr1   O1    S    
C43   C48   S    
C39   H24   S    
Cr1   O25   S    
C3    C60   S    
C15   C23   S    
C49   H32   S    
C61   H42   S    
C31   H20   S    
C13   C14   S    
C37   C41   A    
C36   C41   A    
C2    C6    S    
C42   C57   S    
C21   C61   S    
C55   O16   A    
C25   C29   A    
C28   H15   S    
C5    H35   S    
C34   C50   S    
Cr6   O11   S    
C27   C31   S    
C28   C32   A    
C4    C6    S    
C39   C40   S    
C8    C9    A    
Cr4   O7    S    
C62   H40   S    
C12   O21   A    
C25   C26   A    
C17   C21   S    
C31   H18   S    
C38   H22   S    
C30   H16   S    
C35   C39   S    
C43   C44   A    
C59   H19   S    
C41   C56   S    
C37   C38   A    
C49   H33   S    
Cr4   O6    S    
C36   C40   S    
C16   C20   A    
Cr1   O12   S    
C17   C18   A    
Cr5   O15   S    
Cr6   O17   S    
C40   H26   S    
C48   C49   S    
C13   H7    S    
C26   C30   S    
C54   O15   A    
C54   O14   A    
C61   C62   S    
C42   C43   A    
Cr3   O3    S    
C45   O2    A    
C57   O13   A    
C44   C50   A    
C33   C54   S    
C29   F3    S    
C46   C47   A    
C51   O7    A    
Cr6   O10   S    
C5    C60   S    
C27   C32   A    
C18   C22   S    
Cr5   O9    S    
C37   H21   S    
C25   C55   S    
C4    C5    S    
C60   H34   S    
C5    H4    S    
Cr2   O21   S    
C3    C52   S    
C61   H43   S    
C62   H39   S    
Cr2   O2    S    
C13   H6    S    
C52   O10   A    
Cr4   O19   S    
C46   C50   A    
C33   C38   A    
C19   H9    S    
C19   C24   A    
C58   C59   S    
C1    O20   A    
C7    C51   S    
C46   H27   S    
C60   H3    S    
C4    C59   S    
C6    H2    S    
C33   C35   A    
C47   H28   S    
C2    C3    S    
Cr1   O24   S    
C42   C47   A    
Cr5   O19   S    
C40   H25   S    
C9    C15   A    
C2    H37   S    
Cr3   O22   S    
C10   C11   A    
Cr4   O13   S    
C22   H14   S    
C3    C58   S    
C53   O11   A    
C58   H1    S    
C34   O26   A    
C1    C24   S    
C59   H30   S    
Cr6   O19   S    
Cr3   O4    S    
C21   C22   S    
C39   H23   S    
Cr3   O23   S    
C45   O3    A    
