data_mof_unit_21225.cif
_audit_creation_date              2012-12-10T17:36:18-0500
_audit_creation_method            fapswitch 2.2
_symmetry_space_group_name_H-M    P1
_symmetry_Int_Tables_number       1
_space_group_crystal_system       triclinic
_cell_length_a                    12.330906
_cell_length_b                    13.18617
_cell_length_c                    15.864275
_cell_angle_alpha                 77.79867
_cell_angle_beta                  101.312953
_cell_angle_gamma                 116.604864
_cell_volume                      2239.00396915

loop_
_atom_site_label
_atom_site_type_symbol
_atom_type_description
_atom_site_fract_x
_atom_site_fract_y
_atom_site_fract_z
_atom_type_partial_charge
C1    C     C_R   0.854835 0.286602 0.507362 0.771273
C2    C     C_3   0.055940 0.416963 0.071680 0.358613
C3    C     C_3   0.001158 0.498937 0.083487 0.240071
C4    C     C_3   0.072134 0.622453 0.038539 -0.396631
C5    C     C_3   0.075238 0.621910 0.941415 -0.383935
C6    C     C_1   0.000334 0.499302 0.175459 -0.041711
C7    C     C_1   0.000818 0.499580 0.825125 -0.082108
C8    C     C_1   0.999943 0.499886 0.749339 -0.181328
C9    C     C_R   0.274759 0.021353 0.385472 -0.188895
C10   C     C_R   0.227880 0.834457 0.469784 -0.046622
C11   C     C_R   0.815596 0.085368 0.563359 -0.187024
C12   C     C_R   0.999835 0.499879 0.659611 0.824370
C13   C     C_R   0.736920 0.970518 0.580238 -0.145067
C14   C     C_R   0.613438 0.932784 0.550123 -0.182984
C15   C     C_R   0.566373 0.009471 0.499046 0.079918
C16   C     C_R   0.649655 0.123847 0.473434 0.082748
C17   C     C_R   0.439622 0.976126 0.471683 0.073641
C18   C     C_R   0.399560 0.053319 0.412968 0.165598
C19   C     C_R   0.484562 0.160417 0.380596 -0.239795
C20   C     C_R   0.607810 0.194535 0.409187 -0.200821
C21   C     C_R   0.351052 0.868448 0.501463 -0.249657
C22   C     C_R   0.189219 0.911975 0.413284 -0.195643
C23   C     C_R   0.145075 0.713374 0.487470 0.794246
C24   C     C_R   0.772905 0.163640 0.512053 -0.101660
C25   C     C_R   0.343646 0.325636 0.637502 -0.102969
C26   C     C_R   0.759090 0.645077 0.383447 0.077673
C27   C     C_R   0.661908 0.675648 0.357569 -0.259367
C28   C     C_R   0.558449 0.620338 0.401356 -0.194749
C29   C     C_R   0.550847 0.533148 0.472178 0.004660
C30   C     C_R   0.652831 0.504660 0.496086 0.288881
C31   C     C_R   0.446490 0.473431 0.520017 -0.048980
C32   C     C_R   0.445584 0.385610 0.590012 0.116937
C33   C     C_R   0.546543 0.359670 0.611598 -0.270694
C34   C     C_R   0.000198 0.500104 0.340445 0.814712
C35   C     C_R   0.647307 0.418099 0.566310 -0.180336
C36   C     C_R   0.342360 0.497238 0.501654 0.021184
C37   C     C_R   0.244955 0.354166 0.615548 0.027255
C38   C     C_3   0.061970 0.421426 0.973203 -0.472719
C39   C     C_3   0.869105 0.452770 0.939621 -0.382560
C40   C     C_3   0.868649 0.455038 0.036917 -0.480721
C41   C     C_1   0.000253 0.499684 0.250918 -0.169915
C42   C     C_3   0.001795 0.498823 0.917612 0.277465
Cu1   Cu    Cu3+1 0.098280 0.475420 0.519630 0.940206
Cu2   Cu    Cu3+1 0.901720 0.524580 0.480370 0.922339
H1    H     H_    0.986727 0.328796 0.091539 0.100981
H2    H     H_    0.155888 0.452173 0.956624 0.154674
H3    H     H_    0.026105 0.676660 0.043123 0.168878
H4    H     H_    0.093945 0.886623 0.387950 0.148095
H5    H     H_    0.455716 0.218226 0.332788 0.148200
H6    H     H_    0.243753 0.079864 0.340513 0.140410
H7    H     H_    0.375254 0.808146 0.548884 0.148106
H8    H     H_    0.909720 0.113355 0.592363 0.154394
H9    H     H_    0.558106 0.842549 0.566371 0.129571
H10   H     H_    0.771178 0.910740 0.619271 0.143750
H11   H     H_    0.011544 0.333167 0.955579 0.146117
H12   H     H_    0.669599 0.275922 0.378179 0.175970
H13   H     H_    0.166041 0.309273 0.651081 0.128968
H14   H     H_    0.549165 0.293685 0.664736 0.165528
H15   H     H_    0.335358 0.562392 0.449978 0.127839
H16   H     H_    0.839005 0.688457 0.349071 0.123088
H17   H     H_    0.486076 0.647476 0.378208 0.138232
H18   H     H_    0.666702 0.742378 0.303305 0.143309
H19   H     H_    0.719287 0.392130 0.589332 0.206596
H20   H     H_    0.823695 0.505834 0.898838 0.178592
H21   H     H_    0.815244 0.363496 0.924682 0.168491
H22   H     H_    0.811482 0.367524 0.068020 0.164670
H23   H     H_    0.825828 0.511453 0.042644 0.187530
H24   H     H_    0.171480 0.656227 0.927853 0.158787
H25   H     H_    0.035869 0.679842 0.900513 0.175023
H26   H     H_    0.165733 0.663542 0.072140 0.167865
N1    N     N_R   0.246300 0.438200 0.549400 -0.186895
N2    N     N_R   0.754300 0.561180 0.451130 -0.206381
O1    O     O_R   0.972520 0.318130 0.524690 -0.578682
O2    O     O_R   0.806530 0.359650 0.491530 -0.605089
O3    O     O_R   0.083030 0.479240 0.637150 -0.574880
O4    O     O_R   0.917040 0.520750 0.603990 -0.591838
O5    O     O_R   0.193470 0.640350 0.508470 -0.588024
O6    O     O_R   0.027480 0.681870 0.475310 -0.585989
O7    O     O_R   0.082960 0.479250 0.396010 -0.565399
O8    O     O_R   0.916970 0.520760 0.362850 -0.592436
O9    O     O_3   0.161908 0.425055 0.130993 -0.576960
C43   C     C_3   0.275145 0.504758 0.102053 0.088849
H27   H     H_    0.269898 0.575707 0.052453 0.131165
H28   H     H_    0.313553 0.458962 0.074234 0.149147
C44   C     C_3   0.362957 0.556547 0.179437 -0.797551
H29   H     H_    0.374597 0.488005 0.229383 0.258001
H30   H     H_    0.453390 0.617556 0.158221 0.194331
H31   H     H_    0.326761 0.603103 0.208484 0.241787
C45   C     C_1   0.337330 0.234933 0.708671 0.194984
N3    N     N_1   0.332186 0.162321 0.765617 -0.296707

loop_
_geom_bond_atom_site_label_1
_geom_bond_atom_site_label_2
_ccdc_geom_bond_type
Cu1   O1    S    
C22   H4    S    
C5    C42   S    
C33   H14   S    
C26   N2    A    
C19   C20   A    
C20   H12   S    
C3    C6    S    
C4    H26   S    
O9    C43   S    
C7    C8    T    
C44   H29   S    
C10   C22   A    
C39   H20   S    
C26   C27   A    
C30   C35   A    
C1    O2    A    
C28   C29   A    
C38   C42   S    
C9    C22   A    
Cu1   O7    S    
C15   C16   A    
C11   C24   A    
C18   C19   A    
C7    C42   S    
Cu2   O4    S    
C2    C38   S    
C5    H25   S    
C11   H8    S    
C34   O8    A    
C38   H11   S    
C6    C41   T    
C36   N1    A    
C8    C12   S    
C25   C37   A    
C28   H17   S    
C36   H15   S    
C25   C32   A    
C16   C24   A    
C40   H22   S    
C13   C14   A    
C39   H21   S    
C34   C41   S    
C5    H24   S    
C39   C42   S    
C44   H30   S    
C10   C21   A    
Cu1   O3    S    
Cu2   O8    S    
C39   C40   S    
C40   H23   S    
C17   C21   A    
Cu1   Cu2   S    
C29   C30   A    
C27   H18   S    
C34   O7    A    
C19   H5    S    
C31   C32   A    
C16   C20   A    
C17   C18   A    
C23   O5    A    
Cu2   O2    S    
C3    C40   S    
C43   H28   S    
C37   N1    A    
C3    C4    S    
C21   H7    S    
C13   H10   S    
C44   H31   S    
C15   C17   A    
Cu1   N1    S    
C31   C36   A    
C9    H6    S    
C4    C5    S    
C30   N2    A    
C10   C23   S    
Cu1   O5    S    
C43   C44   S    
C25   C45   S    
C1    O1    A    
C32   C33   A    
C12   O4    A    
C2    C3    S    
C29   C31   A    
C11   C13   A    
Cu2   O6    S    
C33   C35   A    
Cu2   N2    S    
C23   O6    A    
C38   H2    S    
C2    H1    S    
C9    C18   A    
C14   H9    S    
C1    C24   S    
C43   H27   S    
C12   O3    A    
C27   C28   A    
C14   C15   A    
C2    O9    S    
C35   H19   S    
C45   N3    T    
C26   H16   S    
C37   H13   S    
C4    H3    S    
