data_mof_unit_57752.cif
_audit_creation_date              2012-12-10T17:19:25-0500
_audit_creation_method            fapswitch 2.2
_symmetry_space_group_name_H-M    P1
_symmetry_Int_Tables_number       1
_space_group_crystal_system       triclinic
_cell_length_a                    15.014023
_cell_length_b                    10.816161
_cell_length_c                    9.571425
_cell_angle_alpha                 90.546635
_cell_angle_beta                  90.018578
_cell_angle_gamma                 92.467588
_cell_volume                      1552.83047422

loop_
_atom_site_label
_atom_site_type_symbol
_atom_type_description
_atom_site_fract_x
_atom_site_fract_y
_atom_site_fract_z
_atom_type_partial_charge
C1    C     C_R   0.506198 0.262642 0.500046 0.771628
C2    C     C_R   0.909216 0.566118 0.399981 0.111951
C3    C     C_R   0.947835 0.354291 0.696914 -0.236734
C4    C     C_R   0.040442 0.349093 0.693755 -0.192984
C5    C     C_R   0.090662 0.417317 0.594773 0.018840
C6    C     C_R   0.046579 0.491947 0.498254 -0.006342
C7    C     C_R   0.095589 0.563441 0.399879 0.110978
C8    C     C_R   0.051369 0.634634 0.302223 -0.196029
C9    C     C_R   0.958600 0.635235 0.301608 -0.211370
C10   C     C_R   0.183890 0.411911 0.589371 0.385027
C11   C     C_R   0.232166 0.491764 0.498081 -0.182723
C12   C     C_R   0.328922 0.498759 0.499800 0.832426
C13   C     C_R   0.188139 0.564042 0.401915 -0.325014
C14   C     C_R   0.559556 0.119083 0.750746 -0.305786
C15   C     C_R   0.550759 0.061810 0.882546 0.424201
C16   C     C_R   0.500019 0.951221 0.890043 -0.245134
C17   C     C_R   0.467607 0.890860 0.769422 0.392366
C18   C     C_R   0.489855 0.939400 0.635323 -0.039696
C19   C     C_R   0.520862 0.063569 0.629347 -0.004254
C20   C     C_R   0.511184 0.127955 0.501976 -0.080184
C21   C     C_R   0.492928 0.061934 0.378177 -0.204100
C22   C     C_R   0.483695 0.934432 0.379960 -0.212611
C23   C     C_R   0.492176 0.737043 0.501660 0.801533
C24   C     C_R   0.483570 0.871306 0.507111 -0.098177
C25   C     C_R   0.617672 0.665816 0.145833 -0.163759
C26   C     C_R   0.674581 0.747426 0.074276 -0.214263
C27   C     C_R   0.674524 0.747346 0.930390 -0.207410
C28   C     C_R   0.617516 0.665711 0.857279 -0.122038
C29   C     C_R   0.557662 0.581678 0.925929 0.221184
C30   C     C_R   0.557687 0.581661 0.075658 0.200359
C31   C     C_R   0.445696 0.421543 0.073105 -0.053293
C32   C     C_R   0.445835 0.421411 0.925020 -0.079818
C33   C     C_R   0.671150 0.500216 0.500119 0.788421
C34   C     C_R   0.816464 0.566907 0.400526 -0.274466
C35   C     C_R   0.767729 0.499408 0.500740 -0.059704
C36   C     C_R   0.811146 0.430441 0.601159 -0.251177
C37   C     C_R   0.903834 0.426274 0.600011 0.117235
C38   C     C_R   0.953218 0.494809 0.499503 0.084308
Cu1   Cu    Cu3+1 0.499990 0.499990 0.640660 0.949158
Cu2   Cu    Cu3+1 0.500010 0.500010 0.359340 0.918692
H1    H     H_    0.782176 0.620752 0.323953 0.144291
H2    H     H_    0.597900 0.205127 0.741402 0.158088
H3    H     H_    0.484974 0.911440 0.991257 0.169948
H4    H     H_    0.476236 0.885318 0.281170 0.172504
H5    H     H_    0.401192 0.357356 0.127831 0.142251
H6    H     H_    0.624239 0.672851 0.255884 0.200938
H7    H     H_    0.719369 0.810874 0.131224 0.150324
H8    H     H_    0.719065 0.810977 0.874667 0.149374
H9    H     H_    0.623435 0.673048 0.747291 0.193570
H10   H     H_    0.772572 0.377948 0.677932 0.138975
H11   H     H_    0.401367 0.357202 0.868809 0.163000
H12   H     H_    0.910545 0.301266 0.774518 0.139250
H13   H     H_    0.072530 0.291990 0.769485 0.182492
H14   H     H_    0.226292 0.622198 0.329781 0.168321
H15   H     H_    0.088561 0.689562 0.226146 0.139927
H16   H     H_    0.925491 0.690286 0.224873 0.142810
H17   H     H_    0.486695 0.108592 0.279222 0.191119
N1    N     N_R   0.500860 0.501210 0.147910 -0.199453
N2    N     N_R   0.500890 0.501290 0.852040 -0.198863
O1    O     O_R   0.499990 0.319640 0.618810 -0.591842
O2    O     O_R   0.500000 0.319660 0.381240 -0.591468
O3    O     O_R   0.370250 0.499960 0.618800 -0.538449
O4    O     O_R   0.370260 0.499980 0.381230 -0.588586
O5    O     O_R   0.500000 0.680340 0.618760 -0.550582
O6    O     O_R   0.500010 0.680360 0.381190 -0.611389
O7    O     O_R   0.629740 0.500020 0.618770 -0.613282
O8    O     O_R   0.629750 0.500040 0.381200 -0.597418
O9    O     O_3   0.581947 0.112746 0.008918 -0.616303
C39   C     C_3   0.649318 0.206818 0.993541 0.045184
H18   H     H_    0.619847 0.292607 0.954496 0.156782
H19   H     H_    0.702723 0.176329 0.921686 0.130319
C40   C     C_3   0.691319 0.235574 0.136146 -0.320649
H20   H     H_    0.639110 0.264643 0.210286 0.248683
H21   H     H_    0.720903 0.150760 0.177313 0.215432
C41   C     C_3   0.763807 0.338430 0.126521 -0.898343
H22   H     H_    0.734494 0.426490 0.094801 0.263908
H23   H     H_    0.815558 0.313289 0.049622 0.244297
H24   H     H_    0.796075 0.352112 0.230094 0.268701
O10   O     O_3   0.407094 0.792153 0.786916 -0.559163
C42   C     C_3   0.319079 0.832334 0.771450 0.082522
H25   H     H_    0.292194 0.798660 0.669091 0.151612
H26   H     H_    0.313965 0.935169 0.774807 0.090754
C43   C     C_3   0.260367 0.780186 0.889464 -0.394649
H27   H     H_    0.290757 0.807110 0.991851 0.212742
H28   H     H_    0.193777 0.820973 0.883479 0.171146
C44   C     C_3   0.248055 0.639611 0.880627 -0.686718
H29   H     H_    0.214483 0.611927 0.781222 0.240170
H30   H     H_    0.205970 0.605858 0.968922 0.211651
H31   H     H_    0.313437 0.596062 0.886723 0.287481
O11   O     O_3   0.227285 0.332803 0.677624 -0.626215
C45   C     C_3   0.262673 0.233870 0.599735 0.078313
H32   H     H_    0.323422 0.204832 0.654671 0.162923
H33   H     H_    0.284296 0.259786 0.492125 0.122866
C46   C     C_3   0.196027 0.122783 0.592137 -0.381012
H34   H     H_    0.184798 0.085496 0.698796 0.209540
H35   H     H_    0.131310 0.152037 0.550281 0.227410
C47   C     C_3   0.230350 0.021245 0.496848 -0.938733
H36   H     H_    0.233024 0.053400 0.386995 0.261557
H37   H     H_    0.184893 0.937693 0.502397 0.255421
H38   H     H_    0.298219 0.996211 0.528958 0.255281

loop_
_geom_bond_atom_site_label_1
_geom_bond_atom_site_label_2
_ccdc_geom_bond_type
C27   H8    S    
C8    C9    A    
C4    H13   S    
C35   C36   A    
C47   H36   S    
C7    C8    A    
Cu1   O5    S    
C26   C27   A    
C29   C30   A    
Cu2   O4    S    
C18   C24   A    
C31   N1    A    
C28   C29   A    
C34   C35   A    
C40   C41   S    
C5    C6    A    
C42   H25   S    
C44   H30   S    
Cu1   O1    S    
C15   C16   A    
C17   O10   S    
C18   C19   A    
C39   H19   S    
C22   H4    S    
C29   N2    A    
O9    C39   S    
Cu2   O8    S    
C23   C24   S    
C6    C38   A    
C14   H2    S    
C2    C34   A    
C21   C22   A    
C46   H34   S    
C34   H1    S    
C42   C43   S    
C8    H15   S    
C47   H37   S    
C33   O7    A    
Cu2   N1    S    
C42   H26   S    
C1    O1    A    
C45   H32   S    
C12   O4    A    
C44   H29   S    
C4    C5    A    
C46   C47   S    
C25   C26   A    
Cu2   O2    S    
C39   C40   S    
C41   H22   S    
C32   H11   S    
C21   H17   S    
C37   C38   A    
C45   H33   S    
C12   O3    A    
C28   H9    S    
C2    C38   A    
C43   H27   S    
C3    H12   S    
Cu1   N2    S    
C17   C18   A    
C9    H16   S    
C46   H35   S    
C41   H23   S    
C16   H3    S    
C3    C37   A    
C26   H7    S    
C40   H21   S    
C23   O5    A    
C43   H28   S    
Cu2   O6    S    
Cu1   O7    S    
C22   C24   A    
C3    C4    A    
Cu1   Cu2   S    
C47   H38   S    
C36   H10   S    
C33   O8    A    
C13   H14   S    
C25   C30   A    
Cu1   O3    S    
C36   C37   A    
C1    C20   S    
C14   C19   A    
C31   C32   A    
C40   H20   S    
C44   H31   S    
C1    O2    A    
C11   C12   S    
C6    C7    A    
C23   O6    A    
C19   C20   A    
C5    C10   A    
C45   C46   S    
C11   C13   A    
O11   C45   S    
C16   C17   A    
C15   O9    S    
C30   N1    A    
C33   C35   S    
C39   H18   S    
C41   H24   S    
C10   C11   A    
O10   C42   S    
C7    C13   A    
C43   C44   S    
C20   C21   A    
C10   O11   S    
C31   H5    S    
C27   C28   A    
C14   C15   A    
C32   N2    A    
C2    C9    A    
C25   H6    S    
