data_mof_unit_30259.cif
_audit_creation_date              2012-12-10T21:42:29-0500
_audit_creation_method            fapswitch 2.2
_symmetry_space_group_name_H-M    P1
_symmetry_Int_Tables_number       1
_space_group_crystal_system       triclinic
_cell_length_a                    10.774463
_cell_length_b                    16.276288
_cell_length_c                    16.892933
_cell_angle_alpha                 83.458679
_cell_angle_beta                  95.669051
_cell_angle_gamma                 92.030146
_cell_volume                      2927.92788856

loop_
_atom_site_label
_atom_site_type_symbol
_atom_type_description
_atom_site_fract_x
_atom_site_fract_y
_atom_site_fract_z
_atom_type_partial_charge
C1    C     C_R   0.490932 0.486011 0.652659 0.931778
C2    C     C_R   0.509068 0.513989 0.347340 0.931778
C3    C     C_R   0.128304 0.496023 0.509125 -0.089283
C4    C     C_R   0.871696 0.503977 0.490875 -0.089287
C5    C     C_R   0.055966 0.422068 0.505544 -0.000259
C6    C     C_R   0.944033 0.577933 0.494456 -0.000264
C7    C     C_R   0.466936 0.472403 0.738024 -0.191001
C8    C     C_R   0.533064 0.527596 0.261976 -0.191001
C9    C     C_R   0.410764 0.535693 0.772787 -0.036734
C10   C     C_R   0.589235 0.464307 0.227213 -0.036735
C11   C     C_R   0.420503 0.533804 0.855831 -0.169958
C12   C     C_R   0.579496 0.466195 0.144169 -0.169961
C13   C     C_R   0.477794 0.467601 0.904603 0.290106
C14   C     C_R   0.522205 0.532399 0.095397 0.290105
C15   C     C_R   0.514631 0.400072 0.871024 -0.219462
C16   C     C_R   0.485369 0.599928 0.128975 -0.219458
C17   C     C_R   0.507591 0.400234 0.788347 -0.101973
C18   C     C_R   0.492409 0.599766 0.211653 -0.101973
C19   C     C_R   0.437588 0.770151 0.457849 0.450841
C20   C     C_R   0.562412 0.229849 0.542151 0.450839
C21   C     C_R   0.448981 0.856476 0.458630 -0.304347
C22   C     C_R   0.551019 0.143524 0.541371 -0.304347
C23   C     C_R   0.739160 0.501309 0.495456 0.926833
C24   C     C_R   0.260840 0.498691 0.504544 0.926846
C25   C     C_R   0.533740 0.891831 0.513062 0.185530
C26   C     C_R   0.466258 0.108169 0.486938 0.185534
C27   C     C_R   0.608747 0.839103 0.565624 -0.315351
C28   C     C_R   0.391252 0.160897 0.434376 -0.315359
C29   C     C_R   0.598942 0.752491 0.565506 0.458563
C30   C     C_R   0.401058 0.247509 0.434495 0.458570
C31   C     C_R   0.802783 0.770362 0.378850 -0.116507
C32   C     C_R   0.197217 0.229638 0.621151 -0.116502
C33   C     C_R   0.831226 0.687396 0.401311 -0.060820
C34   C     C_R   0.168774 0.312604 0.598689 -0.060828
C35   C     C_R   0.895566 0.663173 0.476208 0.112586
C36   C     C_R   0.104434 0.336827 0.523792 0.112572
C37   C     C_R   0.931397 0.723603 0.527944 -0.070922
C38   C     C_R   0.068603 0.276396 0.472056 -0.070892
C39   C     C_R   0.902632 0.807152 0.505682 0.007814
C40   C     C_R   0.097369 0.192848 0.494319 0.007810
C41   C     C_R   0.836979 0.829802 0.430798 -0.190842
C42   C     C_R   0.163021 0.170198 0.569202 -0.190845
C43   C     C_R   0.071485 0.571563 0.507574 -0.166989
C44   C     C_R   0.928515 0.428437 0.492425 -0.167013
H1    H     H_    0.814395 0.893747 0.411641 0.189404
H2    H     H_    0.185605 0.106254 0.588360 0.189405
H3    H     H_    0.613584 0.103624 0.581238 0.233675
H4    H     H_    0.386415 0.896375 0.418762 0.233675
H5    H     H_    0.671156 0.866478 0.610114 0.238412
H6    H     H_    0.328843 0.133522 0.389886 0.238405
H7    H     H_    0.757136 0.789317 0.320060 0.184822
H8    H     H_    0.242864 0.210684 0.679940 0.184823
H9    H     H_    0.807003 0.642516 0.359285 0.144133
H10   H     H_    0.192997 0.357485 0.640715 0.144132
H11   H     H_    0.983774 0.705323 0.584965 0.194288
H12   H     H_    0.016227 0.294676 0.415036 0.194306
H13   H     H_    0.127285 0.626978 0.513529 0.237982
H14   H     H_    0.872715 0.373022 0.486470 0.237981
H15   H     H_    0.619152 0.417101 0.117181 0.190821
H16   H     H_    0.380847 0.582898 0.882819 0.190820
H17   H     H_    0.549475 0.346730 0.910302 0.181973
H18   H     H_    0.450524 0.653270 0.089697 0.181975
N1    N     N_2   0.495358 0.465051 0.988401 -0.164543
N2    N     N_2   0.504641 0.534949 0.011599 -0.164540
N3    N     N_R   0.515300 0.716920 0.509720 -0.201213
N4    N     N_R   0.484700 0.283080 0.490280 -0.201213
N5    N     N_2   0.541847 0.978891 0.520294 -0.111992
N6    N     N_2   0.458151 0.021109 0.479706 -0.111992
O1    O     O_R   0.494530 0.422540 0.612660 -0.566934
O2    O     O_R   0.505470 0.577460 0.387340 -0.566933
O3    O     O_R   0.504350 0.561840 0.618900 -0.541478
O4    O     O_R   0.495650 0.438160 0.381100 -0.541477
O5    O     O_R   0.678330 0.430350 0.496870 -0.551779
O6    O     O_R   0.321670 0.569650 0.503130 -0.551769
O7    O     O_R   0.688150 0.569660 0.503110 -0.600265
O8    O     O_R   0.311850 0.430340 0.496890 -0.600271
Zn1   Zn    Zn3+2 0.493440 0.406980 0.495830 1.108831
Zn2   Zn    Zn3+2 0.506560 0.593020 0.504170 1.108832
C45   C     C_2   0.536260 0.321474 0.759726 1.042376
O9    O     O_2   0.627598 0.283226 0.790582 -0.553965
O10   O     O_R   0.452034 0.286380 0.704250 -0.813612
H19   H     H_    0.474797 0.228315 0.695990 0.344469
C46   C     C_2   0.463742 0.678526 0.240274 1.042361
O11   O     O_2   0.372404 0.716775 0.209417 -0.553979
O12   O     O_R   0.547967 0.713619 0.295750 -0.813609
H20   H     H_    0.525204 0.771684 0.304011 0.344469
S1    S     S_3+6 0.698845 0.258350 0.602534 0.048278
O13   O     O_2   0.713208 0.197089 0.676302 -0.266923
O14   O     O_2   0.807868 0.248221 0.556016 -0.340788
O15   O     O_3   0.705715 0.352926 0.632868 -0.526403
H21   H     H_    0.792435 0.360023 0.657096 0.375330
S2    S     S_3+6 0.301156 0.741650 0.397466 0.048275
O16   O     O_2   0.192131 0.751780 0.443983 -0.340774
O17   O     O_2   0.286794 0.802911 0.323697 -0.266939
O18   O     O_3   0.294285 0.647073 0.367132 -0.526416
H22   H     H_    0.207578 0.639988 0.342879 0.375342
S3    S     S_3+6 0.681748 0.697868 0.651282 0.036377
O19   O     O_2   0.593871 0.679346 0.714968 -0.271869
O20   O     O_2   0.737963 0.619088 0.636015 -0.300575
O21   O     O_3   0.798330 0.758536 0.687742 -0.577255
H23   H     H_    0.836659 0.725707 0.736438 0.401482
S4    S     S_3+6 0.318252 0.302132 0.348718 0.036372
O22   O     O_2   0.262037 0.380912 0.363984 -0.300535
O23   O     O_2   0.406130 0.320652 0.285033 -0.271913
O24   O     O_3   0.201669 0.241465 0.312259 -0.577263
H24   H     H_    0.163398 0.274270 0.263529 0.401485
C47   C     C_2   0.944193 0.870665 0.559580 1.001537
O25   O     O_2   0.907973 0.941604 0.544188 -0.601253
O26   O     O_R   0.025295 0.849645 0.628236 -0.776168
H25   H     H_    0.046861 0.898257 0.660046 0.361154
C48   C     C_2   0.055808 0.129334 0.440421 1.001541
O27   O     O_2   0.092027 0.058395 0.455814 -0.601257
O28   O     O_R   0.974706 0.150354 0.371764 -0.776152
H26   H     H_    0.953141 0.101742 0.339955 0.361150
C49   C     C_2   0.666028 0.398561 0.274730 0.982549
O29   O     O_2   0.728560 0.413071 0.336118 -0.670610
O30   O     O_R   0.671717 0.321079 0.247133 -0.754877
H27   H     H_    0.728075 0.281978 0.284263 0.365029
C50   C     C_2   0.333972 0.601438 0.725270 0.982540
O31   O     O_2   0.271439 0.586928 0.663881 -0.670616
O32   O     O_R   0.328283 0.678921 0.752867 -0.754876
H28   H     H_    0.271925 0.718022 0.715736 0.365027

loop_
_geom_bond_atom_site_label_1
_geom_bond_atom_site_label_2
_ccdc_geom_bond_type
S1    O13   D    
C20   S1    S    
C27   C29   A    
O1    Zn1   S    
C48   O27   D    
C25   N5    S    
O10   H19   S    
C39   C41   A    
O12   H20   S    
C39   C47   S    
C3    C43   A    
C1    O3    A    
C20   N4    A    
C35   C37   A    
O2    Zn2   S    
C49   O29   D    
C5    C36   S    
C17   C45   S    
C6    C35   S    
S4    O24   S    
C15   C17   A    
C42   H2    S    
C32   H8    S    
C19   S2    S    
C12   H15   S    
C28   H6    S    
O18   H22   S    
C44   H14   S    
C49   O30   S    
C47   O25   D    
C31   C33   A    
C21   H4    S    
C40   C42   A    
C22   H3    S    
C47   O26   S    
C3    C24   S    
C16   H18   S    
C23   O5    A    
C2    O4    A    
S3    O20   D    
S3    O19   D    
C40   C48   S    
C50   O32   S    
C33   H9    S    
N5    N6    D    
O8    Zn1   S    
C4    C6    A    
C31   H7    S    
C45   O10   S    
C4    C23   S    
C24   O8    A    
C4    C44   A    
C7    C17   A    
S2    O18   S    
C1    O1    A    
N1    N2    D    
C32   C34   A    
O4    Zn1   S    
C46   O11   D    
C13   N1    S    
C14   N2    S    
C30   S4    S    
S2    O17   D    
C18   C46   S    
C15   H17   S    
C48   O28   S    
S4    O23   D    
S2    O16   D    
C9    C11   A    
O32   H28   S    
C30   N4    A    
C10   C12   A    
C29   N3    A    
C16   C18   A    
C46   O12   S    
C5    C44   A    
C12   C14   A    
C34   H10   S    
C6    C43   A    
C13   C15   A    
O6    Zn2   S    
C9    C50   S    
C14   C16   A    
C11   H16   S    
S3    O21   S    
C23   O7    A    
O28   H26   S    
C7    C9    A    
N4    Zn1   S    
C21   C25   A    
C41   H1    S    
N3    Zn2   S    
C31   C41   A    
C19   C21   A    
C1    C7    S    
C2    C8    S    
C20   C22   A    
C3    C5    A    
C50   O31   D    
C25   C27   A    
O24   H24   S    
C26   C28   A    
C29   S3    S    
C26   N6    S    
C36   C38   A    
C37   C39   A    
C2    O2    A    
O30   H27   S    
C38   C40   A    
C11   C13   A    
C24   O6    A    
O15   H21   S    
C32   C42   A    
C28   C30   A    
O21   H23   S    
C33   C35   A    
C19   N3    A    
C34   C36   A    
S4    O22   D    
O7    Zn2   S    
C8    C18   A    
C43   H13   S    
C45   O9    D    
C37   H11   S    
C38   H12   S    
C8    C10   A    
C22   C26   A    
S1    O15   S    
S1    O14   D    
O5    Zn1   S    
O26   H25   S    
O3    Zn2   S    
C10   C49   S    
C27   H5    S    
