data_mof_unit_50828.cif
_audit_creation_date              2012-12-10T18:18:28-0500
_audit_creation_method            fapswitch 2.2
_symmetry_space_group_name_H-M    P1
_symmetry_Int_Tables_number       1
_space_group_crystal_system       triclinic
_cell_length_a                    14.009511
_cell_length_b                    14.989033
_cell_length_c                    15.491255
_cell_angle_alpha                 89.839706
_cell_angle_beta                  68.128655
_cell_angle_gamma                 89.557397
_cell_volume                      3018.76165349

loop_
_atom_site_label
_atom_site_type_symbol
_atom_type_description
_atom_site_fract_x
_atom_site_fract_y
_atom_site_fract_z
_atom_type_partial_charge
C1    C     C_R   0.499854 0.673445 0.499493 0.893806
C2    C     C_R   0.499724 0.769175 0.498505 -0.081790
C3    C     C_R   0.406698 0.186013 0.529938 -0.237969
C4    C     C_R   0.593321 0.814014 0.470008 -0.238526
C5    C     C_R   0.405254 0.093549 0.528814 -0.003339
C6    C     C_R   0.594768 0.906484 0.471040 -0.003073
C7    C     C_R   0.499837 0.046438 0.500300 0.002495
C8    C     C_R   0.500186 0.953596 0.499519 0.002629
C9    C     C_R   0.594175 0.092292 0.472402 0.064658
C10   C     C_R   0.405848 0.907742 0.527407 0.064722
C11   C     C_R   0.311406 0.047315 0.555368 0.499042
C12   C     C_R   0.500150 0.326561 0.500497 0.892094
C13   C     C_R   0.688616 0.952724 0.444443 0.498699
C14   C     C_R   0.312443 0.954467 0.556035 -0.297148
C15   C     C_R   0.687580 0.045572 0.443744 -0.297122
C16   C     C_R   0.436209 0.497886 0.676174 0.878254
C17   C     C_R   0.563839 0.498304 0.323777 0.876593
C18   C     C_R   0.181414 0.437475 0.550894 -0.075162
C19   C     C_R   0.818570 0.562548 0.449174 -0.073018
C20   C     C_R   0.222309 0.562370 0.449042 -0.066201
C21   C     C_R   0.777572 0.437756 0.551176 -0.066924
C22   C     C_R   0.122099 0.563975 0.447941 0.011289
C23   C     C_R   0.376347 0.431394 0.103550 -0.229987
C24   C     C_R   0.877741 0.436192 0.552386 0.014580
C25   C     C_R   0.050570 0.500005 0.500079 0.087414
C26   C     C_R   0.949310 0.500104 0.500180 0.088446
C27   C     C_R   0.080245 0.435963 0.552136 0.014662
C28   C     C_R   0.919656 0.564141 0.448099 0.012591
C29   C     C_R   0.091816 0.627761 0.396298 -0.206046
C30   C     C_R   0.907938 0.372545 0.604228 -0.212215
C31   C     C_R   0.991461 0.627871 0.396409 -0.216854
C32   C     C_R   0.008347 0.372368 0.604021 -0.217923
C33   C     C_R   0.397951 0.482865 0.776549 -0.063850
C34   C     C_R   0.621839 0.423314 0.898315 -0.227814
C35   C     C_R   0.602177 0.483422 0.223350 -0.064116
C36   C     C_R   0.261623 0.456703 0.925462 -0.198211
C37   C     C_R   0.737418 0.449119 0.075649 -0.199032
C38   C     C_R   0.293012 0.474861 0.830522 -0.195991
C39   C     C_R   0.706653 0.469801 0.170023 -0.195539
C40   C     C_R   0.470635 0.470082 0.817260 -0.261930
C41   C     C_R   0.529422 0.474927 0.182312 -0.258776
C42   C     C_R   0.441460 0.448193 0.910911 0.092283
C43   C     C_R   0.557599 0.449246 0.089811 0.092207
C44   C     C_R   0.335096 0.445159 0.966369 0.176194
C45   C     C_R   0.303835 0.432820 0.062040 -0.234301
C46   C     C_R   0.663651 0.440000 0.034877 0.175448
C47   C     C_R   0.515791 0.436182 0.951736 0.069435
C48   C     C_R   0.482817 0.438617 0.049534 0.068002
C49   C     C_3   0.191936 0.118383 0.510453 0.089895
C50   C     C_3   0.116316 0.052794 0.496654 -0.864401
C51   C     C_3   0.808202 0.881867 0.489358 0.090903
C52   C     C_3   0.883874 0.947553 0.502920 -0.864517
C53   C     C_R   0.694330 0.423467 0.939903 -0.233172
C54   C     C_R   0.593662 0.184560 0.473116 -0.219462
C55   C     C_R   0.406359 0.815472 0.526732 -0.220102
C56   C     C_R   0.500293 0.230846 0.501432 -0.079587
H1    H     H_    0.222918 0.428131 0.105427 0.148735
H2    H     H_    0.029734 0.322540 0.644455 0.148404
H3    H     H_    0.450284 0.491012 0.223155 0.160921
H4    H     H_    0.550570 0.480695 0.775410 0.162454
H5    H     H_    0.764047 0.475101 0.201040 0.157381
H6    H     H_    0.235680 0.483222 0.799692 0.156893
H7    H     H_    0.180143 0.452924 0.967083 0.135416
H8    H     H_    0.818619 0.440659 0.034518 0.135650
H9    H     H_    0.347291 0.422556 0.178066 0.151631
H10   H     H_    0.650486 0.410846 0.824364 0.144528
H11   H     H_    0.665877 0.220323 0.450815 0.155426
H12   H     H_    0.774917 0.414122 0.896980 0.148669
H13   H     H_    0.334143 0.779714 0.549013 0.155776
H14   H     H_    0.335148 0.223538 0.553038 0.179129
H15   H     H_    0.664870 0.776490 0.446980 0.179218
H16   H     H_    0.240112 0.918989 0.578674 0.168712
H17   H     H_    0.759910 0.081054 0.421076 0.168376
H18   H     H_    0.259439 0.126479 0.443831 0.127396
H19   H     H_    0.153587 0.184756 0.526812 0.164815
H20   H     H_    0.048484 0.045294 0.562417 0.269574
H21   H     H_    0.090014 0.077962 0.441697 0.219818
H22   H     H_    0.153762 0.986694 0.474971 0.245177
H23   H     H_    0.205705 0.388948 0.590577 0.131339
H24   H     H_    0.846550 0.815488 0.473113 0.165173
H25   H     H_    0.740758 0.873870 0.556041 0.127744
H26   H     H_    0.846422 0.013658 0.524547 0.244937
H27   H     H_    0.910308 0.922508 0.557839 0.220344
H28   H     H_    0.951621 0.954998 0.437081 0.269523
H29   H     H_    0.794308 0.611065 0.409464 0.131641
H30   H     H_    0.278475 0.610896 0.409349 0.135967
H31   H     H_    0.721340 0.389318 0.590975 0.132716
H32   H     H_    0.145708 0.677565 0.355851 0.145195
H33   H     H_    0.853954 0.322891 0.644875 0.142280
H34   H     H_    0.970037 0.677767 0.356065 0.149769
N1    N     N_R   0.249980 0.499930 0.499960 -0.099666
N2    N     N_R   0.750020 0.500070 0.500040 -0.098977
O1    O     O_R   0.419720 0.632140 0.499980 -0.624268
O2    O     O_3   0.782136 0.907979 0.412922 -0.621971
O3    O     O_R   0.580280 0.367860 0.500020 -0.625795
O4    O     O_R   0.580270 0.632160 0.499970 -0.625713
O5    O     O_R   0.419730 0.367840 0.500030 -0.627475
O6    O     O_R   0.373870 0.499980 0.632250 -0.615693
O7    O     O_R   0.626130 0.500020 0.367750 -0.616036
O8    O     O_R   0.534420 0.500000 0.632240 -0.618387
O9    O     O_R   0.465580 0.500000 0.367760 -0.619104
O10   O     O_3   0.217884 0.092058 0.586894 -0.621812
Zn1   Zn    Zn3+2 0.392800 0.499980 0.500010 0.940636
Zn2   Zn    Zn3+2 0.607200 0.500020 0.499990 0.941285

loop_
_geom_bond_atom_site_label_1
_geom_bond_atom_site_label_2
_ccdc_geom_bond_type
C21   H31   S    
C40   H4    S    
C22   C29   A    
C2    C4    A    
C32   H2    S    
C34   H10   S    
C7    C8    A    
C44   C45   A    
C45   H1    S    
C23   C45   A    
C18   N1    A    
C24   C26   A    
C5    C11   A    
C2    C55   A    
C11   C14   A    
O6    Zn1   S    
O8    Zn2   S    
C1    C2    S    
C52   H28   S    
C53   H12   S    
C17   O9    A    
C51   H24   S    
C29   H32   S    
C19   N2    A    
C18   H23   S    
C22   C25   A    
C20   H30   S    
C49   H19   S    
C12   O3    A    
C36   H7    S    
C43   C48   A    
C51   H25   S    
C40   C42   A    
O7    Zn2   S    
O9    Zn1   S    
C41   C43   A    
O1    Zn1   S    
C42   C44   A    
C30   H33   S    
C50   H22   S    
C39   H5    S    
C20   N1    A    
C54   C56   A    
C33   C40   A    
C51   C52   S    
C3    H14   S    
C41   H3    S    
C4    C6    A    
C10   C14   A    
C49   O10   S    
C5    C7    A    
C16   O8    A    
C6    C8    A    
C54   H11   S    
C3    C5    A    
C25   C26   A    
C52   H27   S    
C35   C39   A    
C19   C28   A    
C50   H20   S    
C16   C33   S    
C3    C56   A    
C47   C48   A    
C31   H34   S    
C55   H13   S    
C52   H26   S    
C10   C55   A    
C17   O7    A    
C12   O5    A    
O5    Zn1   S    
C1    O1    A    
C15   H17   S    
C20   C22   A    
C13   C15   A    
C36   C44   A    
C50   H21   S    
C37   H8    S    
O3    Zn2   S    
C7    C9    A    
C23   C48   A    
C27   C32   A    
C14   H16   S    
C28   C31   A    
C18   C27   A    
N1    Zn1   S    
C19   H29   S    
C9    C54   A    
C25   C27   A    
C26   C28   A    
C33   C38   A    
C13   O2    S    
C23   H9    S    
O4    Zn2   S    
C9    C15   A    
C29   C31   A    
C6    C13   A    
C30   C32   A    
C16   O6    A    
C1    O4    A    
C46   C53   A    
C36   C38   A    
C12   C56   S    
C11   O10   S    
C42   C47   A    
C35   C41   A    
C43   C46   A    
C24   C30   A    
N2    Zn2   S    
C51   O2    S    
C37   C39   A    
C34   C53   A    
C8    C10   A    
C49   C50   S    
C21   C24   A    
C49   H18   S    
C34   C47   A    
C17   C35   S    
C37   C46   A    
C4    H15   S    
C38   H6    S    
C21   N2    A    
