data_mof_unit_27298.cif
_audit_creation_date              2013-03-05T16:25:18-0500
_audit_creation_method            fapswitch 2.2
_symmetry_space_group_name_H-M    P1
_symmetry_Int_Tables_number       1
_space_group_crystal_system       triclinic
_cell_length_a                    15.157102
_cell_length_b                    13.919133
_cell_length_c                    17.715323
_cell_angle_alpha                 89.826071
_cell_angle_beta                  91.570623
_cell_angle_gamma                 89.962049
_cell_volume                      3736.04514948

loop_
_atom_site_label
_atom_site_type_symbol
_atom_site_description
_atom_site_fract_x
_atom_site_fract_y
_atom_site_fract_z
_atom_type_partial_charge
O1    O     O_R   0.371460 0.581430 0.500010 -0.536493
O2    O     O_R   0.628540 0.418570 0.499990 -0.589250
O3    O     O_R   0.628540 0.581430 0.499990 -0.503087
O4    O     O_R   0.371460 0.418570 0.500010 -0.521989
C1    C     C_R   0.329638 0.499808 0.503826 0.871570
C2    C     C_R   0.669500 0.499762 0.499764 0.904622
O5    O     O_R   0.500000 0.581470 0.391250 -0.606691
O6    O     O_R   0.500000 0.418530 0.608750 -0.528669
O7    O     O_R   0.500000 0.581470 0.608750 -0.596719
O8    O     O_R   0.500000 0.418530 0.391250 -0.534174
C3    C     C_R   0.500895 0.500091 0.355494 0.741312
C4    C     C_R   0.500103 0.499896 0.644501 0.775617
Cu1   Cu    Cu3+1 0.500000 0.596430 0.500000 0.982448
Cu2   Cu    Cu3+1 0.500000 0.403570 0.500000 1.011028
C5    C     C_R   0.496523 0.586887 0.845974 -0.153860
C6    C     C_R   0.497596 0.413557 0.153608 -0.175109
C7    C     C_R   0.513053 0.586850 0.153796 -0.153452
C8    C     C_R   0.508754 0.413212 0.846707 -0.176215
H1    H     H_    0.492106 0.654448 0.875882 0.127163
H2    H     H_    0.492077 0.346167 0.123374 0.129620
H3    H     H_    0.519692 0.654256 0.123713 0.128249
H4    H     H_    0.513916 0.345735 0.877193 0.127939
C9    C     C_R   0.494760 0.586811 0.767298 -0.212661
C10   C     C_R   0.496852 0.413378 0.232237 -0.192280
C11   C     C_R   0.512417 0.586802 0.232445 -0.209861
C12   C     C_R   0.507069 0.412927 0.768019 -0.202500
H5    H     H_    0.488444 0.654776 0.737770 0.130693
H6    H     H_    0.491345 0.345332 0.261263 0.189224
H7    H     H_    0.519921 0.654427 0.261674 0.138947
H8    H     H_    0.510861 0.344765 0.739121 0.188129
C13   C     C_R   0.500581 0.499820 0.727556 -0.028234
C14   C     C_R   0.503184 0.500156 0.272448 -0.029947
C15   C     C_R   0.503620 0.500153 0.885570 0.159025
C16   C     C_R   0.505311 0.500286 0.114478 0.157341
C17   C     C_1   0.504692 0.500306 0.966190 -0.069079
C18   C     C_1   0.505197 0.500381 0.033875 -0.067930
C19   C     C_R   0.092522 0.585713 0.511962 0.427458
C20   C     C_R   0.904154 0.451558 0.446786 0.463368
C21   C     C_R   0.902871 0.538847 0.566950 0.321915
C22   C     C_R   0.093103 0.410029 0.513104 0.329372
C23   C     C_R   0.184361 0.585438 0.518607 0.242833
C24   C     C_R   0.812074 0.452497 0.443344 0.208634
C25   C     C_R   0.810171 0.539250 0.563474 0.284246
C26   C     C_R   0.185884 0.410058 0.510334 0.238203
C27   C     C_R   0.232237 0.498541 0.511325 -0.326421
C28   C     C_R   0.765437 0.498686 0.501014 -0.308981
C29   C     C_R   0.046689 0.497461 0.510421 -0.167518
C30   C     C_R   0.949758 0.495608 0.508261 -0.160039
C31   C     C_R   0.528542 0.108072 0.565601 0.235982
C32   C     C_R   0.423307 0.893196 0.479068 0.277970
C33   C     C_R   0.471863 0.106060 0.437494 0.230965
C34   C     C_R   0.573139 0.892853 0.528401 0.245350
C35   C     C_R   0.536323 0.209250 0.560421 0.414934
C36   C     C_R   0.429242 0.792353 0.470192 0.426738
C37   C     C_R   0.465250 0.207773 0.439727 0.422542
C38   C     C_R   0.569114 0.791128 0.533123 0.387546
N1    N     N_R   0.500000 0.258690 0.500000 -0.269633
N2    N     N_R   0.500000 0.741310 0.500000 -0.299872
C39   C     C_R   0.499921 0.054483 0.502290 -0.099863
C40   C     C_R   0.498415 0.945704 0.503878 -0.101416
O9    O     O_3   0.049284 0.672914 0.520298 -0.528197
C41   C     C_3   0.008721 0.703889 0.451521 0.095739
H9    H     H_    0.964555 0.764657 0.465349 0.170089
H10   H     H_    0.965376 0.648500 0.425290 0.095628
C42   C     C_3   0.076407 0.739677 0.395117 -0.358839
H11   H     H_    0.122330 0.790835 0.423575 0.251922
H12   H     H_    0.115226 0.677998 0.374113 0.203856
C43   C     C_3   0.031133 0.790292 0.328039 -0.946614
H13   H     H_    0.981114 0.742536 0.300799 0.259716
H14   H     H_    0.080910 0.809874 0.285828 0.264573
H15   H     H_    0.998175 0.856965 0.346966 0.262472
O10   O     O_3   0.947985 0.397621 0.393636 -0.523764
C44   C     C_3   0.987004 0.457091 0.338859 0.078484
H16   H     H_    0.037861 0.413181 0.310944 0.166958
H17   H     H_    0.022678 0.519472 0.363662 0.091657
C45   C     C_3   0.919128 0.490705 0.278655 -0.324223
H18   H     H_    0.879508 0.428353 0.258246 0.263580
H19   H     H_    0.873989 0.544133 0.303640 0.207140
C46   C     C_3   0.964198 0.536761 0.211601 -0.945357
H20   H     H_    0.007048 0.597103 0.230675 0.260414
H21   H     H_    0.913460 0.564800 0.170833 0.263780
H22   H     H_    0.005075 0.482776 0.182477 0.260296
O11   O     O_3   0.946686 0.588845 0.624188 -0.564043
C47   C     C_3   0.976056 0.524404 0.681155 0.045762
H23   H     H_    0.037147 0.487648 0.663470 0.139638
H24   H     H_    0.924827 0.470029 0.694304 0.125787
C48   C     C_3   0.997523 0.581145 0.752942 -0.309901
H25   H     H_    0.049102 0.635516 0.741164 0.235025
H26   H     H_    0.937280 0.619327 0.771123 0.216005
C49   C     C_3   0.030599 0.515226 0.816641 -0.936860
H27   H     H_    0.979364 0.461296 0.830228 0.256019
H28   H     H_    0.045642 0.558511 0.867934 0.260742
H29   H     H_    0.091679 0.477488 0.800076 0.256271
O12   O     O_3   0.046989 0.324062 0.513536 -0.567820
C50   C     C_3   0.045941 0.287639 0.588017 0.041361
H30   H     H_    0.001493 0.331827 0.622622 0.127360
H31   H     H_    0.113178 0.286889 0.615227 0.154754
C51   C     C_3   0.010697 0.184855 0.585857 -0.311822
H32   H     H_    0.940530 0.185645 0.565840 0.229093
H33   H     H_    0.049307 0.141768 0.545586 0.217237
C52   C     C_3   0.017397 0.137409 0.663585 -0.954656
H34   H     H_    0.087680 0.130197 0.682182 0.261347
H35   H     H_    0.987408 0.064692 0.660763 0.262876
H36   H     H_    0.982170 0.180728 0.705781 0.262219
O13   O     O_3   0.225045 0.671846 0.533590 -0.671862
H37   H     H_    0.268417 0.660606 0.575596 0.328834
O14   O     O_3   0.770771 0.407453 0.382490 -0.701763
H38   H     H_    0.708708 0.428871 0.377240 0.315918
O15   O     O_3   0.760988 0.575345 0.621515 -0.731819
H39   H     H_    0.800112 0.591363 0.665262 0.344335
O16   O     O_3   0.232339 0.324523 0.509330 -0.743433
H40   H     H_    0.192237 0.270505 0.496596 0.339177
O17   O     O_3   0.551801 0.062764 0.632775 -0.535320
C53   C     C_3   0.477397 0.058258 0.679142 0.117310
H41   H     H_    0.440659 0.990553 0.667438 0.120537
H42   H     H_    0.430898 0.119904 0.670333 0.082173
C54   C     C_3   0.507656 0.059868 0.762146 -0.336152
H43   H     H_    0.545612 0.126827 0.773665 0.217151
H44   H     H_    0.448691 0.060108 0.798091 0.160844
C55   C     C_3   0.564804 0.973015 0.783141 -0.782854
H45   H     H_    0.527874 0.905393 0.772046 0.223959
H46   H     H_    0.583523 0.975858 0.844120 0.221913
H47   H     H_    0.626040 0.973321 0.750189 0.285719
O18   O     O_3   0.345719 0.938839 0.455970 -0.557590
C56   C     C_3   0.301581 0.977472 0.518453 0.054256
H48   H     H_    0.253167 0.031050 0.495975 0.161170
H49   H     H_    0.346077 0.017120 0.558138 0.106351
C57   C     C_3   0.251513 0.899489 0.560829 -0.303553
H50   H     H_    0.207932 0.860142 0.520331 0.273610
H51   H     H_    0.299172 0.847996 0.587319 0.211084
C58   C     C_3   0.195275 0.942668 0.622239 -0.932127
H52   H     H_    0.237408 0.982894 0.663556 0.241979
H53   H     H_    0.160786 0.884310 0.652460 0.278623
H54   H     H_    0.144998 0.991892 0.596739 0.262263
O19   O     O_3   0.446605 0.056996 0.372730 -0.565377
C59   C     C_3   0.516859 0.058462 0.322064 0.074276
H55   H     H_    0.581012 0.039894 0.350823 0.118250
H56   H     H_    0.522017 0.130895 0.295747 0.167229
C60   C     C_3   0.498532 0.984310 0.260267 -0.347014
H57   H     H_    0.494786 0.911779 0.286321 0.213784
H58   H     H_    0.434121 0.000319 0.231410 0.224849
C61   C     C_3   0.570879 0.984223 0.202096 -0.937906
H59   H     H_    0.574922 0.055654 0.174270 0.258536
H60   H     H_    0.555632 0.929286 0.158336 0.255353
H61   H     H_    0.635655 0.966621 0.229608 0.256642
O20   O     O_3   0.648906 0.940510 0.552049 -0.563230
C62   C     C_3   0.710409 0.938020 0.493740 0.068063
H62   H     H_    0.682130 0.971858 0.441397 0.120458
H63   H     H_    0.730137 0.862644 0.481420 0.165069
C63   C     C_3   0.792652 0.994211 0.518856 -0.331391
H64   H     H_    0.773951 0.069497 0.531940 0.213477
H65   H     H_    0.821932 0.960946 0.570910 0.218315
C64   C     C_3   0.861503 0.994897 0.457606 -0.912329
H66   H     H_    0.880895 0.920291 0.443385 0.245663
H67   H     H_    0.921138 0.034213 0.478123 0.259869
H68   H     H_    0.834778 0.031302 0.405952 0.262473
O21   O     O_3   0.575151 0.258799 0.619761 -0.578511
C65   C     C_3   0.667479 0.245794 0.618922 0.080165
H69   H     H_    0.694241 0.266079 0.563079 0.154651
H70   H     H_    0.685373 0.169740 0.631529 0.176059
C66   C     C_3   0.710108 0.309233 0.679811 -0.313715
H71   H     H_    0.693547 0.385822 0.668226 0.243496
H72   H     H_    0.683743 0.289270 0.735692 0.215120
C67   C     C_3   0.810001 0.297082 0.682484 -0.965496
H73   H     H_    0.827541 0.220179 0.690449 0.263826
H74   H     H_    0.838559 0.338317 0.730751 0.253378
H75   H     H_    0.838269 0.323918 0.629196 0.257335
O22   O     O_3   0.359634 0.745428 0.434557 -0.532314
C68   C     C_3   0.374146 0.739397 0.356050 0.156288
H76   H     H_    0.359024 0.664542 0.338430 0.163639
H77   H     H_    0.443516 0.754630 0.340108 0.085129
C69   C     C_3   0.311755 0.806733 0.311796 -0.363656
H78   H     H_    0.243209 0.795798 0.330363 0.239072
H79   H     H_    0.330596 0.882529 0.322523 0.269214
C70   C     C_3   0.315294 0.788248 0.227052 -0.966914
H80   H     H_    0.383459 0.798910 0.207093 0.257396
H81   H     H_    0.270559 0.839131 0.196415 0.266006
H82   H     H_    0.293713 0.713741 0.213945 0.265518
O23   O     O_3   0.431062 0.255673 0.377153 -0.600251
C71   C     C_3   0.338224 0.245291 0.371757 0.150992
H83   H     H_    0.308376 0.315654 0.385388 0.193705
H84   H     H_    0.310778 0.189978 0.410522 0.139967
C72   C     C_3   0.310472 0.220466 0.290546 -0.387292
H85   H     H_    0.334383 0.277049 0.251735 0.213451
H86   H     H_    0.340436 0.150946 0.274428 0.249029
C73   C     C_3   0.210267 0.212921 0.281622 -0.896549
H87   H     H_    0.185011 0.155208 0.318708 0.265484
H88   H     H_    0.192051 0.195382 0.222119 0.256074
H89   H     H_    0.178751 0.282207 0.296418 0.253371
O24   O     O_3   0.638537 0.742118 0.567592 -0.547747
C74   C     C_3   0.636022 0.751715 0.647209 0.200784
H90   H     H_    0.628506 0.678612 0.671213 0.189820
H91   H     H_    0.579757 0.795375 0.667946 0.071954
C75   C     C_3   0.723006 0.794584 0.677819 -0.327328
H92   H     H_    0.779491 0.764555 0.646919 0.256877
H93   H     H_    0.722799 0.873488 0.669123 0.239487
C76   C     C_3   0.736752 0.773929 0.762023 -0.966410
H94   H     H_    0.680610 0.802251 0.794213 0.260578
H95   H     H_    0.798456 0.809015 0.782902 0.263657
H96   H     H_    0.742564 0.695363 0.772159 0.264130

loop_
_geom_bond_atom_site_label_1
_geom_bond_atom_site_label_2
_geom_bond_distance
_ccdc_geom_bond_type
C22   C29   1.405312 A    
C31   O17   1.382116 S    
C48   H25   1.111867 S    
O24   C74   1.418702 S    
C44   H17   1.108719 S    
C44   H16   1.111039 S    
C21   C30   1.411372 A    
C75   H93   1.108560 S    
C50   H30   1.110122 S    
C8    C12   1.393549 A    
C47   C48   1.526668 S    
C62   H62   1.113848 S    
C58   H54   1.110312 S    
C57   H50   1.108102 S    
C10   C14   1.406136 A    
C53   H41   1.112074 S    
C50   C51   1.527705 S    
O19   C59   1.411474 S    
C70   H81   1.110310 S    
C55   H45   1.110715 S    
C5    H1    1.083706 S    
C25   C28   1.402150 A    
C32   C36   1.415977 A    
C23   O13   1.375216 S    
O11   C47   1.410855 S    
O1    C1    1.303838 A    
C67   H73   1.110423 S    
C62   H63   1.114610 S    
C45   H19   1.111294 S    
C20   C24   1.395373 A    
C54   H44   1.111519 S    
C60   C61   1.525249 S    
C36   O22   1.380287 S    
C75   C76   1.526921 S    
C24   C28   1.414130 A    
C76   H95   1.110294 S    
O7    Cu1   1.937133 S    
C41   H10   1.108184 S    
C34   C40   1.408066 A    
C65   C66   1.526125 S    
C6    C16   1.396792 A    
C33   O19   1.382147 S    
O21   C65   1.411458 S    
O16   H40   0.989840 S    
C71   H84   1.118172 S    
C43   H13   1.109988 S    
C42   H12   1.111294 S    
C63   C64   1.525955 S    
C56   C57   1.531361 S    
C34   O20   1.382280 S    
O14   H38   0.988485 S    
C45   C46   1.526145 S    
C9    H5    1.082527 S    
C19   C29   1.411592 A    
C24   O14   1.383767 S    
C22   C26   1.408497 A    
C20   C30   1.415311 A    
O3    Cu1   1.959315 S    
C71   C72   1.528455 S    
C6    H2    1.083720 S    
O3    C2    1.294949 A    
C11   C14   1.405982 A    
C5    C9    1.393310 A    
C75   H92   1.110846 S    
C12   C13   1.406063 A    
C6    C10   1.393300 A    
C19   C23   1.393758 A    
Cu1   Cu2   2.684445 S    
C65   H70   1.113077 S    
C68   H77   1.116447 S    
C61   H61   1.110964 S    
O2    C2    1.289833 A    
C59   C60   1.526938 S    
C66   H72   1.112234 S    
C69   H79   1.108774 S    
C66   H71   1.112244 S    
C70   H82   1.110942 S    
C38   O24   1.380855 S    
C33   C39   1.407726 A    
C11   H7    1.080250 S    
C20   O10   1.389056 S    
O20   C62   1.410747 S    
C55   H47   1.109943 S    
C74   H90   1.108766 S    
C52   H34   1.110793 S    
C62   C63   1.528607 S    
C32   O18   1.387478 S    
C45   H18   1.111422 S    
C59   H56   1.113204 S    
O8    Cu2   1.937133 S    
C72   C73   1.526417 S    
C22   O12   1.386273 S    
C46   H21   1.110322 S    
C35   N1    1.372992 A    
O10   C44   1.415590 S    
C21   C25   1.404724 A    
Cu1   N2    2.016603 S    
C58   H53   1.110411 S    
C1    C27   1.486014 S    
C7    H3    1.083723 S    
O23   C71   1.415309 S    
C17   C18   1.198876 T    
C9    C13   1.406435 A    
C76   H96   1.110730 S    
O5    C3    1.299725 A    
C72   H85   1.111358 S    
C74   H91   1.117763 S    
C41   H9    1.110445 S    
O7    C4    1.298425 A    
C49   H28   1.110326 S    
C76   H94   1.110067 S    
O5    Cu1   1.938390 S    
O6    C4    1.299260 A    
C42   C43   1.526082 S    
C50   H31   1.115380 S    
O12   C50   1.412570 S    
C68   H76   1.110832 S    
C47   H23   1.110659 S    
C64   H68   1.111209 S    
C43   H14   1.110250 S    
O22   C68   1.416734 S    
C3    C14   1.472547 S    
C12   H8    1.081660 S    
C52   H36   1.109790 S    
C51   H33   1.111815 S    
C37   N1    1.376249 A    
C4    C13   1.471166 S    
C65   H69   1.115061 S    
C68   C69   1.530059 S    
C63   H65   1.111951 S    
C54   C55   1.525891 S    
C64   H67   1.110152 S    
C7    C16   1.396955 A    
C73   H88   1.110272 S    
C58   H52   1.111038 S    
C57   C58   1.524939 S    
C66   C67   1.522831 S    
C69   H78   1.108793 S    
C55   H46   1.110184 S    
C49   H29   1.110995 S    
O17   C53   1.414579 S    
C36   N2    1.378226 A    
Cu2   N1    2.016603 S    
O6    Cu2   1.938390 S    
C19   O9    1.389193 S    
C2    C28   1.453753 S    
C41   C42   1.533918 S    
C59   H55   1.115155 S    
C8    H4    1.083712 S    
C37   O23   1.380369 S    
C67   H75   1.111078 S    
C26   C27   1.418219 A    
C10   H6    1.080717 S    
C47   H24   1.113402 S    
O4    C1    1.298802 A    
C29   C30   1.468893 S    
C57   H51   1.111062 S    
C46   H22   1.110843 S    
C53   H42   1.117895 S    
C60   H57   1.110930 S    
C69   C70   1.526308 S    
C51   C52   1.526185 S    
O13   H37   0.991329 S    
C35   O21   1.377715 S    
C31   C39   1.407600 A    
C7    C11   1.393588 A    
C73   H89   1.111192 S    
C72   H86   1.110124 S    
C64   H66   1.110625 S    
C74   C75   1.533677 S    
C32   C40   1.413854 A    
C70   H80   1.111049 S    
C54   H43   1.112068 S    
C60   H58   1.111652 S    
C49   H27   1.111035 S    
C56   H48   1.111152 S    
C43   H15   1.110707 S    
C31   C35   1.416236 A    
C67   H74   1.109490 S    
C15   C17   1.427871 S    
C16   C18   1.427867 S    
C38   N2    1.375602 A    
C33   C37   1.419982 A    
C42   H11   1.108750 S    
O4    Cu2   1.959318 S    
O9    C41   1.415561 S    
O2    Cu2   1.959590 S    
C8    C15   1.397261 A    
C53   C54   1.528496 S    
O8    C3    1.298604 A    
C21   O11   1.386191 S    
C46   H20   1.109900 S    
C26   O16   1.383209 S    
C39   C40   1.514487 S    
O1    Cu1   1.959593 S    
C44   C45   1.533306 S    
C52   H35   1.110526 S    
C51   H32   1.111863 S    
C48   C49   1.526003 S    
C56   H49   1.109284 S    
C48   H26   1.111967 S    
C23   C27   1.418136 A    
C61   H59   1.110886 S    
O18   C56   1.416231 S    
C25   O15   1.382045 S    
C73   H87   1.111069 S    
O15   H39   0.988930 S    
C5    C15   1.397009 A    
C61   H60   1.110459 S    
C71   H83   1.108625 S    
C34   C38   1.419587 A    
C63   H64   1.112151 S    
