data_mof_unit_18329.cif
_audit_creation_date              2012-12-10T20:49:08-0500
_audit_creation_method            fapswitch 2.2
_symmetry_space_group_name_H-M    P1
_symmetry_Int_Tables_number       1
_space_group_crystal_system       triclinic
_cell_length_a                    8.946386
_cell_length_b                    8.127967
_cell_length_c                    10.570735
_cell_angle_alpha                 90.365175
_cell_angle_beta                  89.92661
_cell_angle_gamma                 90.143693
_cell_volume                      768.642183931

loop_
_atom_site_label
_atom_site_type_symbol
_atom_type_description
_atom_site_fract_x
_atom_site_fract_y
_atom_site_fract_z
_atom_type_partial_charge
C1    C     C_R   0.218055 0.499869 0.500022 0.934530
C2    C     C_3   0.633472 0.552666 0.042130 0.334581
C3    C     C_3   0.500475 0.502115 0.876530 -0.285849
C4    C     C_3   0.499525 0.497885 0.123470 -0.285851
C5    C     C_1   0.065181 0.499813 0.500008 -0.142826
C6    C     C_1   0.934819 0.500187 0.499992 -0.142825
C7    C     C_3   0.134548 0.335193 0.996711 -0.217007
C8    C     C_3   0.865465 0.664775 0.003286 -0.217035
C9    C     C_R   0.781945 0.500131 0.499978 0.934532
C10   C     C_R   0.499139 0.499340 0.257188 1.025985
C11   C     C_R   0.500861 0.500660 0.742812 1.025985
C12   C     C_3   0.391934 0.599653 0.041917 0.245362
C13   C     C_3   0.608066 0.400347 0.958083 0.245341
C14   C     C_3   0.525178 0.654266 0.961606 0.251808
C15   C     C_3   0.474822 0.345734 0.038394 0.251805
C16   C     C_3   0.366528 0.447334 0.957870 0.334589
H1    H     H_    0.124864 0.419328 0.079733 0.187211
H2    H     H_    0.427912 0.119861 0.006685 0.362614
H3    H     H_    0.171354 0.211446 0.027276 0.191311
H4    H     H_    0.021506 0.320638 0.955619 0.202286
H5    H     H_    0.828648 0.788498 0.972669 0.191313
H6    H     H_    0.875180 0.580590 0.920295 0.187226
H7    H     H_    0.978496 0.679370 0.044395 0.202314
H8    H     H_    0.242916 0.764910 0.017479 0.350705
H9    H     H_    0.757088 0.235093 0.982523 0.350703
H10   H     H_    0.572106 0.880135 0.993313 0.362615
N1    N     N_1   0.500000 0.073640 0.500000 -0.003096
N2    N     N_1   0.500000 0.926360 0.500000 -0.003096
O1    O     O_R   0.285350 0.636850 0.500000 -0.618241
O2    O     O_3   0.769841 0.602267 0.097467 -0.605358
O3    O     O_3   0.281636 0.703447 0.091124 -0.741757
O4    O     O_3   0.718362 0.296550 0.908876 -0.741762
O5    O     O_3   0.548474 0.813735 0.917013 -0.726584
O6    O     O_3   0.451525 0.186265 0.082988 -0.726578
O7    O     O_R   0.714650 0.363150 0.500000 -0.618242
O8    O     O_R   0.714650 0.636850 0.500000 -0.620347
O9    O     O_R   0.285350 0.363150 0.500000 -0.620348
O10   O     O_R   0.499970 0.636850 0.313950 -0.590950
O11   O     O_R   0.500030 0.363150 0.686050 -0.590951
O12   O     O_R   0.500030 0.636850 0.686050 -0.596345
O13   O     O_R   0.499970 0.363150 0.313950 -0.596344
O14   O     O_3   0.230157 0.397738 0.902535 -0.605364
Zn1   Zn    Zn3+2 0.500000 0.682780 0.500000 1.061970
Zn2   Zn    Zn3+2 0.500000 0.317220 0.500000 1.061969

loop_
_geom_bond_atom_site_label_1
_geom_bond_atom_site_label_2
_ccdc_geom_bond_type
C10   O10   A    
C9    O8    A    
C2    C4    S    
O11   Zn2   S    
C4    C12   S    
N2    Zn1   S    
C8    H6    S    
C3    C13   S    
C1    O9    A    
C2    O2    S    
C8    O2    S    
C14   O5    S    
C1    O1    A    
C8    H5    S    
H8    O3    S    
O10   Zn1   S    
O1    Zn1   S    
C10   O13   A    
C11   O11   A    
O7    Zn2   S    
H2    O6    S    
C5    C6    T    
C3    C14   S    
O9    Zn2   S    
C1    C5    S    
C4    C15   S    
C12   C14   S    
C7    H3    S    
C13   C15   S    
C12   O3    S    
C11   O12   A    
C2    C14   S    
O13   Zn2   S    
C3    C11   S    
C4    C10   S    
C15   C16   S    
C16   O14   S    
C6    C9    S    
C8    H7    S    
C7    H4    S    
C7    O14   S    
N1    N2    T    
C9    O7    A    
C2    C13   S    
O8    Zn1   S    
C15   O6    S    
C13   O4    S    
N1    Zn2   S    
O12   Zn1   S    
C3    C16   S    
C12   C16   S    
H10   O5    S    
C7    H1    S    
H9    O4    S    
