data_mof_unit_13488.cif
_audit_creation_date              2012-12-10T18:06:01-0500
_audit_creation_method            fapswitch 2.2
_symmetry_space_group_name_H-M    P1
_symmetry_Int_Tables_number       1
_space_group_crystal_system       triclinic
_cell_length_a                    12.663172
_cell_length_b                    13.147402
_cell_length_c                    14.916523
_cell_angle_alpha                 91.245635
_cell_angle_beta                  102.900357
_cell_angle_gamma                 82.427376
_cell_volume                      2399.54927789

loop_
_atom_site_label
_atom_site_type_symbol
_atom_type_description
_atom_site_fract_x
_atom_site_fract_y
_atom_site_fract_z
_atom_type_partial_charge
C1    C     C_R   0.439147 0.691148 0.492865 0.847887
C2    C     C_R   0.525220 0.585796 0.820983 -0.264394
C3    C     C_R   0.503225 0.499014 0.768546 -0.047515
C4    C     C_R   0.500997 0.500512 0.672717 0.862681
C5    C     C_R   0.476387 0.412326 0.805790 -0.235541
C6    C     C_R   0.702067 0.068790 0.637389 -0.194275
C7    C     C_R   0.596453 0.201099 0.532716 -0.016575
C8    C     C_R   0.300790 0.836011 0.428375 -0.202088
C9    C     C_R   0.272311 0.940044 0.409048 -0.116163
C10   C     C_R   0.345760 0.008440 0.444562 -0.165379
C11   C     C_R   0.447678 0.973755 0.504012 0.071993
C12   C     C_R   0.475244 0.405368 0.085775 0.048954
C13   C     C_R   0.468091 0.871053 0.534591 0.101319
C14   C     C_R   0.529938 0.037516 0.534384 0.060732
C15   C     C_R   0.622401 0.003777 0.605286 0.179976
C16   C     C_R   0.560822 0.309051 0.512334 0.937551
C17   C     C_R   0.632635 0.906639 0.644197 -0.250918
C18   C     C_R   0.556224 0.841003 0.609411 -0.208272
C19   C     C_R   0.523425 0.133598 0.494916 -0.217275
C20   C     C_R   0.688062 0.168279 0.602262 -0.192662
C21   C     C_R   0.400184 0.800687 0.488687 -0.115359
C22   C     C_R   0.085605 0.344139 0.375212 -0.198230
C23   C     C_R   0.528870 0.674967 0.057284 -0.195797
C24   C     C_R   0.800440 0.630144 0.609262 0.038285
C25   C     C_R   0.904470 0.659726 0.631088 -0.238179
C26   C     C_R   0.985099 0.611180 0.589091 -0.179531
C27   C     C_R   0.961865 0.531781 0.525217 0.028456
C28   C     C_R   0.499820 0.497500 0.327361 0.945160
C29   C     C_R   0.854306 0.504565 0.505934 0.205217
C30   C     C_R   0.040407 0.478243 0.480249 -0.012035
C31   C     C_R   0.008428 0.399461 0.416824 0.043702
C32   C     C_R   0.900657 0.375013 0.398117 -0.081295
C33   C     C_R   0.826708 0.426443 0.444279 -0.245716
C34   C     C_R   0.535491 0.674802 0.965529 -0.211983
C35   C     C_R   0.150094 0.498878 0.496194 -0.044923
C36   C     C_R   0.191727 0.367968 0.391840 0.076553
C37   C     C_R   0.496235 0.400404 0.182514 -0.077700
C38   C     C_R   0.498774 0.493601 0.231247 -0.151584
C39   C     C_R   0.505331 0.585246 0.189189 -0.252612
C40   C     C_R   0.508895 0.586095 0.097335 0.137950
C41   C     C_R   0.491942 0.496664 0.044873 0.020131
C42   C     C_2   0.540903 0.300429 0.231258 0.974654
C43   C     C_2   0.267841 0.308579 0.341629 0.410324
C44   C     C_2   0.860380 0.297449 0.329491 0.901648
C45   C     C_R   0.518833 0.586763 0.912711 0.131603
C46   C     C_2   0.390796 0.237218 0.058299 0.454446
C47   C     C_R   0.494257 0.498129 0.951846 0.069195
C48   C     C_R   0.473114 0.410765 0.897920 0.126185
C49   C     C_R   0.445025 0.324743 0.935590 -0.304765
C50   C     C_R   0.441570 0.322283 0.028303 0.011891
H1    H     H_    0.700572 0.880747 0.700547 0.140881
H2    H     H_    0.180590 0.557073 0.543128 0.133027
H3    H     H_    0.737885 0.667338 0.641992 0.126700
H4    H     H_    0.064232 0.637194 0.608072 0.138870
H5    H     H_    0.922518 0.720222 0.680337 0.149693
H6    H     H_    0.746384 0.405007 0.429372 0.233012
H7    H     H_    0.541508 0.743797 0.097420 0.154288
H8    H     H_    0.553056 0.743426 0.935788 0.149394
H9    H     H_    0.543809 0.652991 0.789541 0.129968
H10   H     H_    0.458470 0.346303 0.762802 0.145362
H11   H     H_    0.422114 0.260631 0.891756 0.140256
H12   H     H_    0.772402 0.044195 0.692071 0.143122
H13   H     H_    0.745058 0.220763 0.632537 0.162698
H14   H     H_    0.626992 0.160136 0.228320 0.366249
H15   H     H_    0.347781 0.327294 0.345416 0.183542
H16   H     H_    0.843671 0.245642 0.199451 0.364042
H17   H     H_    0.392693 0.164726 0.022053 0.057574
H18   H     H_    0.459142 0.159803 0.436513 0.174755
H19   H     H_    0.246687 0.782933 0.393930 0.167699
H20   H     H_    0.319489 0.088122 0.426492 0.166034
H21   H     H_    0.195000 0.967345 0.363330 0.166814
H22   H     H_    0.565726 0.766921 0.642443 0.146725
H23   H     H_    0.064219 0.281151 0.330009 0.215814
H24   H     H_    0.512436 0.654892 0.229364 0.150500
N1    N     N_R   0.222190 0.444670 0.452360 -0.146950
N2    N     N_R   0.776970 0.554790 0.547140 -0.128686
O1    O     O_R   0.366740 0.627160 0.477250 -0.617521
O2    O     O_R   0.600793 0.224374 0.189012 -0.802262
O3    O     O_2   0.240767 0.236229 0.293024 -0.558663
O4    O     O_2   0.809440 0.232306 0.350530 -0.615766
O5    O     O_R   0.876488 0.301575 0.239972 -0.786485
O6    O     O_2   0.341277 0.248823 0.120016 -0.530109
O7    O     O_R   0.544830 0.662520 0.507680 -0.613196
O8    O     O_R   0.410940 0.482340 0.616930 -0.618063
O9    O     O_R   0.589030 0.517700 0.647360 -0.627431
O10   O     O_R   0.455170 0.337480 0.492320 -0.653048
O11   O     O_R   0.633260 0.372840 0.522750 -0.631913
O12   O     O_R   0.410970 0.482300 0.352640 -0.627286
O13   O     O_R   0.589060 0.517660 0.383070 -0.629211
O14   O     O_2   0.529109 0.285240 0.308573 -0.670374
Zn1   Zn    Zn3+2 0.381090 0.476390 0.479680 0.939601
Zn2   Zn    Zn3+2 0.618910 0.523610 0.520320 0.944617

loop_
_geom_bond_atom_site_label_1
_geom_bond_atom_site_label_2
_ccdc_geom_bond_type
C1    C21   S    
C27   C29   A    
C1    O1    A    
C17   H1    S    
C29   N2    A    
O7    Zn2   S    
C35   N1    A    
C26   C27   A    
C37   C38   A    
C13   C18   A    
O10   Zn1   S    
C30   C31   A    
C11   C14   A    
C43   O3    D    
C23   C40   A    
C29   C33   A    
C12   C37   A    
C23   H7    S    
C39   H24   S    
C37   C42   S    
C49   C50   A    
C6    C15   A    
C46   O6    D    
O1    Zn1   S    
C47   C48   A    
C8    C9    A    
C28   O12   A    
C16   O11   A    
C28   O13   A    
O8    Zn1   S    
C9    C10   A    
N1    Zn1   S    
C33   H6    S    
O11   Zn2   S    
C27   C30   A    
C16   O10   A    
C26   H4    S    
C41   C47   A    
O9    Zn2   S    
C8    C21   A    
C45   C47   A    
C2    C45   A    
C18   H22   S    
C5    C48   A    
C49   H11   S    
C22   C31   A    
C25   H5    S    
C44   O4    D    
C24   C25   A    
C44   O5    S    
C39   C40   A    
C8    H19   S    
C2    H9    S    
C24   N2    A    
C4    O9    A    
C24   H3    S    
C42   O14   D    
C12   C41   A    
C36   N1    A    
C31   C32   A    
C4    O8    A    
O12   Zn1   S    
C28   C38   S    
C43   H15   S    
C23   C34   A    
C17   C18   A    
C32   C44   S    
C13   C21   A    
C19   H18   S    
C34   C45   A    
O13   Zn2   S    
N2    Zn2   S    
C30   C35   A    
C7    C16   S    
C42   O2    S    
C7    C19   A    
C3    C4    S    
C10   H20   S    
C6    C20   A    
C15   C17   A    
C48   C49   A    
C5    H10   S    
H14   O2    S    
C14   C19   A    
C9    H21   S    
C3    C5    A    
C12   C50   A    
C1    O7    A    
C22   C36   A    
C46   C50   S    
C32   C33   A    
C6    H12   S    
C20   H13   S    
C2    C3    A    
C25   C26   A    
C46   H17   S    
H16   O5    S    
C11   C13   A    
C38   C39   A    
C10   C11   A    
C7    C20   A    
C35   H2    S    
C34   H8    S    
C14   C15   A    
C36   C43   S    
C40   C41   A    
C22   H23   S    
