data_mof_unit_51420.cif
_audit_creation_date              2012-12-10T18:05:47-0500
_audit_creation_method            fapswitch 2.2
_symmetry_space_group_name_H-M    P1
_symmetry_Int_Tables_number       1
_space_group_crystal_system       triclinic
_cell_length_a                    10.857485
_cell_length_b                    10.843998
_cell_length_c                    9.499651
_cell_angle_alpha                 89.922843
_cell_angle_beta                  90.533582
_cell_angle_gamma                 89.78471
_cell_volume                      1118.41762865

loop_
_atom_site_label
_atom_site_type_symbol
_atom_type_description
_atom_site_fract_x
_atom_site_fract_y
_atom_site_fract_z
_atom_type_partial_charge
C1    C     C_R   0.498735 0.262052 0.500334 0.858011
C2    C     C_R   0.501009 0.737960 0.499727 0.887825
C3    C     C_R   0.871640 0.497864 0.501548 -0.286354
C4    C     C_R   0.128335 0.502656 0.498258 -0.271767
C5    C     C_R   0.939209 0.444479 0.613863 -0.155585
C6    C     C_R   0.060717 0.555169 0.385269 -0.155950
C7    C     C_R   0.509861 0.064934 0.373898 -0.281097
C8    C     C_R   0.488912 0.935100 0.626436 -0.249595
C9    C     C_R   0.513097 0.937537 0.372292 0.724280
C10   C     C_R   0.486046 0.062525 0.628041 0.699826
C11   C     C_R   0.501485 0.871781 0.499016 -0.291154
C12   C     C_R   0.497699 0.128249 0.501266 -0.289195
C13   C     C_R   0.425244 0.421935 0.073787 -0.038813
C14   C     C_R   0.574667 0.578149 0.926210 -0.010528
C15   C     C_R   0.425285 0.421958 0.924837 0.060279
C16   C     C_R   0.574632 0.578120 0.075159 0.039948
C17   C     C_R   0.262190 0.501629 0.499298 0.894693
C18   C     C_R   0.737797 0.498559 0.500645 0.870491
C19   C     C_R   0.225891 0.789650 0.160579 0.603594
C20   C     C_R   0.777336 0.198199 0.823898 0.727203
C21   C     C_R   0.175400 0.730877 0.277707 -0.184321
C22   C     C_R   0.830125 0.261651 0.711549 -0.257773
C23   C     C_R   0.119669 0.615136 0.263281 0.147019
C24   C     C_R   0.879798 0.379385 0.731911 0.150434
C25   C     C_R   0.115816 0.558072 0.130982 -0.141026
C26   C     C_R   0.875549 0.433863 0.865480 -0.079874
C27   C     C_R   0.167141 0.616044 0.014161 -0.225321
C28   C     C_R   0.821454 0.371391 0.977622 -0.359326
C29   C     C_R   0.222291 0.732533 0.027732 -0.047884
C30   C     C_R   0.772099 0.253098 0.958217 -0.057749
C31   C     C_R   0.932874 0.552810 0.388337 0.562832
C32   C     C_R   0.067015 0.447491 0.611371 0.568338
Cu1   Cu    Cu3+1 0.500000 0.500020 0.640660 1.024534
Cu2   Cu    Cu3+1 0.500000 0.499980 0.359340 0.988987
H1    H     H_    0.365371 0.359577 0.868053 0.201588
H2    H     H_    0.634499 0.640548 0.131939 0.210935
H3    H     H_    0.178097 0.776172 0.379265 0.156555
H4    H     H_    0.833604 0.218562 0.608828 0.145410
H5    H     H_    0.072896 0.468695 0.118443 0.163671
H6    H     H_    0.913608 0.524871 0.882452 0.163751
H7    H     H_    0.163092 0.570080 0.913155 0.232642
H8    H     H_    0.818699 0.415262 0.079944 0.199524
H9    H     H_    0.517349 0.113949 0.275141 0.226848
H10   H     H_    0.481019 0.886228 0.725319 0.218763
H11   H     H_    0.365224 0.359628 0.129485 0.151795
H12   H     H_    0.634639 0.640500 0.870508 0.150662
N1    N     N_R   0.500030 0.500030 0.852070 -0.180032
N2    N     N_R   0.499970 0.499970 0.147930 -0.192539
O1    O     O_R   0.499990 0.319660 0.618740 -0.529589
O2    O     O_R   0.500010 0.680340 0.381260 -0.531370
O3    O     O_R   0.499990 0.319630 0.381170 -0.616729
O4    O     O_R   0.500010 0.680370 0.618830 -0.578652
O5    O     O_R   0.319650 0.500020 0.618780 -0.510654
O6    O     O_R   0.680350 0.499980 0.381220 -0.548549
O7    O     O_R   0.319640 0.500000 0.381210 -0.607916
O8    O     O_R   0.680360 0.500000 0.618790 -0.602295
C33   C     C_2   0.274595 0.795515 0.903891 0.412750
H13   H     H_    0.319097 0.884387 0.915809 0.157356
O9    O     O_2   0.268043 0.749404 0.786848 -0.558120
C34   C     C_2   0.716952 0.189133 0.079782 0.443507
H14   H     H_    0.711529 0.235521 0.180787 0.038051
O10   O     O_2   0.677528 0.084230 0.069384 -0.424551
F1    F     F_    0.275710 0.903413 0.176429 -0.651673
F2    F     F_    0.733185 0.082979 0.801213 -0.614322
F3    F     F_    0.868344 0.608630 0.282332 -0.663963
F4    F     F_    0.131400 0.390592 0.716707 -0.671301
F5    F     F_    0.528829 0.879720 0.246971 -0.596687
F6    F     F_    0.471071 0.120375 0.753482 -0.619843

loop_
_geom_bond_atom_site_label_1
_geom_bond_atom_site_label_2
_ccdc_geom_bond_type
C20   F2    S    
C13   N2    A    
C13   H11   S    
C9    F5    S    
C14   N1    A    
C14   C16   A    
C10   F6    S    
C27   C29   A    
C20   C22   A    
C1    O3    A    
C17   O7    A    
Cu2   N2    S    
C26   C28   A    
C16   H2    S    
C15   N1    A    
C5    C32   A    
C7    C9    A    
C16   N2    A    
Cu1   O8    S    
C28   C30   A    
C6    C31   A    
C33   H13   S    
C21   H3    S    
Cu2   O7    S    
C14   H12   S    
C20   C30   A    
C25   H5    S    
Cu1   O4    S    
C3    C31   A    
C18   O8    A    
C9    C11   A    
C24   C26   A    
C26   H6    S    
Cu2   O3    S    
C4    C32   A    
C1    C12   S    
C2    O4    A    
C8    C11   A    
C4    C17   S    
C10   C12   A    
C15   H1    S    
C19   C21   A    
C29   C33   S    
Cu2   O6    S    
C7    H9    S    
C13   C15   A    
C21   C23   A    
Cu1   O5    S    
C7    C12   A    
Cu1   N1    S    
C22   C24   A    
Cu2   O2    S    
C4    C6    A    
C33   O9    D    
C18   O6    A    
Cu1   O1    S    
C22   H4    S    
C17   O5    A    
C23   C25   A    
Cu1   Cu2   S    
C30   C34   S    
C3    C18   S    
C32   F4    S    
C28   H8    S    
C31   F3    S    
C27   H7    S    
C5    C24   S    
C2    C11   S    
C2    O2    A    
C6    C23   S    
C1    O1    A    
C8    C10   A    
C34   O10   D    
C8    H10   S    
C19   F1    S    
C34   H14   S    
C3    C5    A    
C25   C27   A    
C19   C29   A    
