data_mof_unit_55538.cif
_audit_creation_date              2012-12-11T14:24:58-0500
_audit_creation_method            fapswitch 2.2
_symmetry_space_group_name_H-M    P1
_symmetry_Int_Tables_number       1
_space_group_crystal_system       triclinic
_cell_length_a                    19.765226
_cell_length_b                    11.123004
_cell_length_c                    19.076268
_cell_angle_alpha                 89.556759
_cell_angle_beta                  89.531064
_cell_angle_gamma                 89.979451
_cell_volume                      4193.62635272

loop_
_atom_site_label
_atom_site_type_symbol
_atom_type_description
_atom_site_fract_x
_atom_site_fract_y
_atom_site_fract_z
_atom_type_partial_charge
C1    C     C_R   0.716323 0.336321 0.139584 0.550859
C2    C     C_R   0.232492 0.859398 0.064131 0.013968
C3    C     C_R   0.622675 0.494788 0.444317 -0.089340
C4    C     C_R   0.929636 0.023692 0.509493 -0.192531
C5    C     C_R   0.070512 0.013184 0.494534 -0.169149
C6    C     C_R   0.429054 0.514708 0.507910 -0.187416
C7    C     C_R   0.571915 0.526985 0.488776 -0.175455
C8    C     C_R   0.930926 0.003410 0.438486 -0.176536
C9    C     C_R   0.065527 0.976622 0.565103 -0.162903
C10   C     C_R   0.433416 0.482636 0.437571 -0.173483
C11   C     C_R   0.567020 0.489530 0.559361 -0.164544
C12   C     C_R   0.869672 0.978675 0.414824 -0.046712
C13   C     C_R   0.267379 0.352682 0.935026 0.018263
C14   C     C_R   0.125206 0.950694 0.593005 -0.051195
C15   C     C_R   0.372493 0.450351 0.410248 -0.056930
C16   C     C_R   0.626624 0.466530 0.587606 -0.048973
C17   C     C_R   0.753112 0.911514 0.423030 0.003183
C18   C     C_R   0.243914 0.902411 0.580734 0.001746
C19   C     C_R   0.253134 0.402331 0.421220 0.000640
C20   C     C_R   0.744407 0.407555 0.578525 0.002350
C21   C     C_R   0.727159 0.373181 0.356472 0.546123
C22   C     C_R   0.273352 0.371597 0.642970 0.547141
C23   C     C_R   0.225348 0.868137 0.358160 0.548722
C24   C     C_R   0.731605 0.356946 0.063934 0.013366
C25   C     C_R   0.774334 0.869533 0.642834 0.552694
C26   C     C_R   0.537218 0.152001 0.355027 0.553114
C27   C     C_R   0.443379 0.150396 0.639733 0.566413
C28   C     C_R   0.037673 0.652087 0.355201 0.553950
C29   C     C_R   0.943557 0.650435 0.639773 0.564436
C30   C     C_R   0.741300 0.970202 0.355353 0.548087
C31   C     C_R   0.257931 0.968106 0.645787 0.543666
C32   C     C_R   0.241389 0.468381 0.354887 0.546971
C33   C     C_R   0.757998 0.468721 0.645404 0.542462
C34   C     C_3   0.493467 0.260598 0.971012 -0.145599
C35   C     C_R   0.703640 0.822002 0.968705 0.041307
C36   C     C_3   0.454473 0.257790 0.042327 -0.162807
C37   C     C_3   0.994486 0.760479 0.970740 -0.145314
C38   C     C_3   0.955386 0.758534 0.041956 -0.163739
C39   C     C_3   0.542439 0.166679 0.000742 0.280121
C40   C     C_3   0.409746 0.153901 0.014474 0.265895
C41   C     C_3   0.042976 0.666045 0.000777 0.280183
C42   C     C_3   0.910341 0.655119 0.014102 0.265996
C43   C     C_3   0.504181 0.163378 0.071017 0.020930
C44   C     C_3   0.449324 0.156662 0.942123 -0.000392
C45   C     C_3   0.004520 0.663483 0.070922 0.021247
C46   C     C_R   0.293950 0.824048 0.028280 0.036979
C47   C     C_3   0.949997 0.656920 0.941939 0.000269
C48   C     C_3   0.629676 0.174538 0.921094 -0.022862
C49   C     C_3   0.698328 0.117660 0.915026 -0.367408
C50   C     C_3   0.335269 0.148853 0.108894 -0.001507
C51   C     C_3   0.263075 0.136149 0.136107 -0.338987
C52   C     C_3   0.130367 0.673706 0.921579 -0.022973
C53   C     C_3   0.199722 0.619759 0.915843 -0.367926
C54   C     C_3   0.835619 0.657331 0.108017 -0.006194
C55   C     C_3   0.764342 0.635703 0.134969 -0.347703
C56   C     C_3   0.503570 0.809179 0.669848 -0.002870
C57   C     C_R   0.203443 0.322566 0.968456 0.041807
C58   C     C_3   0.495108 0.824688 0.749080 -0.305795
C59   C     C_3   0.501625 0.799263 0.318320 0.002234
C60   C     C_3   0.529287 0.806991 0.243799 -0.329381
C61   C     C_3   0.005073 0.308450 0.670253 -0.002676
C62   C     C_3   0.996010 0.323883 0.749432 -0.306316
C63   C     C_3   0.011535 0.297271 0.320584 0.005218
C64   C     C_3   0.041863 0.301201 0.247144 -0.328306
C65   C     C_R   0.792918 0.321097 0.027876 0.036438
C66   C     C_R   0.691685 0.862614 0.038910 0.036072
C67   C     C_R   0.298405 0.844442 0.954365 0.033619
C68   C     C_R   0.191615 0.362889 0.038713 0.037903
C69   C     C_R   0.283797 0.334813 0.860108 0.540768
C70   C     C_R   0.797517 0.342383 0.954021 0.033310
C71   C     C_R   0.806361 0.946931 0.040978 -0.147571
C72   C     C_R   0.189809 0.947788 0.957170 -0.138159
C73   C     C_R   0.306323 0.447382 0.040763 -0.145203
C74   C     C_R   0.689652 0.447842 0.957303 -0.136464
C75   C     C_R   0.817062 0.912193 0.973094 -0.124580
C76   C     C_R   0.180853 0.914954 0.026007 -0.112986
C77   C     C_R   0.317165 0.411784 0.973060 -0.125418
C78   C     C_R   0.680573 0.414784 0.026149 -0.107022
C79   C     C_R   0.648581 0.764121 0.934001 -0.103098
C80   C     C_R   0.217066 0.838363 0.139579 0.553461
C81   C     C_R   0.348420 0.761394 0.060423 -0.106789
C82   C     C_R   0.148063 0.265932 0.933547 -0.102309
C83   C     C_R   0.847347 0.257932 0.059788 -0.106445
C84   C     C_R   0.087591 0.238632 0.967157 -0.153284
C85   C     C_R   0.896961 0.201069 0.019870 -0.156190
C86   C     C_R   0.588098 0.736812 0.967592 -0.152836
C87   C     C_R   0.397538 0.702918 0.020670 -0.155604
C88   C     C_R   0.577957 0.771021 0.035665 -0.141084
C89   C     C_R   0.395782 0.708161 0.948422 -0.130601
C90   C     C_R   0.077679 0.272019 0.035402 -0.141377
C91   C     C_R   0.783778 0.834879 0.860139 0.541300
C92   C     C_R   0.895244 0.207039 0.947645 -0.130172
C93   C     C_R   0.627013 0.836123 0.069643 -0.095909
C94   C     C_R   0.347944 0.779710 0.915508 -0.093233
C95   C     C_R   0.126960 0.336443 0.069490 -0.094937
C96   C     C_R   0.847111 0.278217 0.914956 -0.092966
C97   C     C_R   0.536115 0.155352 0.142318 0.562356
C98   C     C_R   0.434710 0.150383 0.863068 0.550179
C99   C     C_R   0.036239 0.655352 0.142277 0.563871
C100  C     C_R   0.934917 0.650445 0.863085 0.551264
C101  C     C_R   0.745243 0.925076 0.075137 0.008001
C102  C     C_3   0.460346 0.059662 0.043161 -0.137893
C103  C     C_R   0.248373 0.915271 0.920526 0.010483
C104  C     C_R   0.245047 0.426268 0.074735 0.007874
C105  C     C_R   0.747973 0.414549 0.920435 0.009599
C106  C     C_R   0.471773 0.137781 0.569015 0.003961
C107  C     C_R   0.513666 0.138024 0.427709 0.002697
C108  C     C_R   0.971524 0.638284 0.568862 0.003858
C109  C     C_R   0.013479 0.638793 0.427548 0.002466
C110  C     C_R   0.480382 0.021377 0.535130 -0.008195
C111  C     C_R   0.501874 0.020534 0.461695 -0.004499
C112  C     C_R   0.982546 0.522226 0.535732 -0.007241
C113  C     C_3   0.499629 0.062838 0.972682 -0.123747
C114  C     C_R   0.004970 0.521646 0.462611 -0.003941
C115  C     C_R   0.508043 0.243689 0.465192 -0.145907
C116  C     C_R   0.486883 0.243526 0.533854 -0.145571
C117  C     C_R   0.001477 0.744828 0.462963 -0.146828
C118  C     C_R   0.981516 0.744008 0.531943 -0.147806
C119  C     C_R   0.467483 0.902954 0.568231 0.274419
C120  C     C_R   0.504015 0.900540 0.426975 0.280953
C121  C     C_R   0.970096 0.403692 0.568735 0.273064
C122  C     C_R   0.009544 0.401665 0.428552 0.277587
C123  C     C_R   0.957338 0.309723 0.527533 -0.173771
C124  C     C_3   0.960350 0.560248 0.043052 -0.136592
C125  C     C_R   0.975899 0.306349 0.460020 -0.184364
C126  C     C_R   0.455457 0.807515 0.527608 -0.173049
C127  C     C_R   0.471434 0.804447 0.459348 -0.180915
C128  C     C_R   0.765772 0.889809 0.568212 0.014453
C129  C     C_R   0.232669 0.883978 0.434266 0.009461
C130  C     C_R   0.263742 0.391937 0.567503 0.009841
C131  C     C_R   0.735683 0.394978 0.431650 0.010436
C132  C     C_R   0.821217 0.930263 0.527253 0.030358
C133  C     C_R   0.176453 0.919537 0.475802 0.035722
C134  C     C_R   0.319581 0.425717 0.525052 0.030639
C135  C     C_3   0.999846 0.562589 0.972700 -0.124658
C136  C     C_R   0.679608 0.434291 0.472257 0.034822
C137  C     C_R   0.815874 0.930203 0.454507 0.022258
C138  C     C_R   0.180798 0.914081 0.550568 0.026916
C139  C     C_R   0.316933 0.412012 0.451857 0.020279
C140  C     C_R   0.682024 0.425184 0.546696 0.023653
C141  C     C_R   0.699344 0.864052 0.462816 -0.158491
C142  C     C_R   0.296128 0.852425 0.541465 -0.159825
C143  C     C_R   0.197982 0.362120 0.462205 -0.154713
C144  C     C_R   0.797241 0.358855 0.539533 -0.157416
C145  C     C_R   0.738996 0.976270 0.146575 0.535851
C146  C     C_R   0.767383 0.852786 0.935110 0.018960
C147  C     C_R   0.258764 0.970803 0.851077 0.532281
C148  C     C_R   0.238843 0.476982 0.146336 0.534700
C149  C     C_R   0.758693 0.470666 0.851077 0.532571
C150  C     C_R   0.706443 0.849739 0.534923 -0.158499
C151  C     C_R   0.290602 0.840209 0.468766 -0.156952
C152  C     C_R   0.204289 0.351945 0.534768 -0.155542
C153  C     C_R   0.792867 0.349519 0.466677 -0.157065
C154  C     C_R   0.880875 0.982087 0.553933 -0.112352
C155  C     C_R   0.118107 0.975385 0.448601 -0.087621
C156  C     C_R   0.376049 0.486523 0.551068 -0.108614
Cr1   Cr    Cr6+3 0.772820 0.169820 0.252640 0.978980
Cr2   Cr    Cr6+3 0.383280 0.011130 0.749340 1.006674
Cr3   Cr    Cr6+3 0.116720 0.511130 0.250660 1.001774
Cr4   Cr    Cr6+3 0.883280 0.511130 0.749340 1.007627
Cr5   Cr    Cr6+3 0.227180 0.169820 0.747360 0.973773
Cr6   Cr    Cr6+3 0.272820 0.669820 0.252640 0.979001
Cr7   Cr    Cr6+3 0.727180 0.669820 0.747360 0.973931
Cr8   Cr    Cr6+3 0.615040 0.323610 0.249150 1.002777
Cr9   Cr    Cr6+3 0.384960 0.323610 0.750850 0.994836
Cr10  Cr    Cr6+3 0.115040 0.823610 0.249150 1.001169
Cr11  Cr    Cr6+3 0.884960 0.823610 0.750850 0.989423
Cr12  Cr    Cr6+3 0.616720 0.011130 0.250660 1.005706
H1    H     H_    0.520413 0.328428 0.440168 0.173121
H2    H     H_    0.340572 0.826130 0.568386 0.169980
H3    H     H_    0.015552 0.371305 0.216815 0.159463
H4    H     H_    0.862659 0.077083 0.407342 0.166940
H5    H     H_    0.127026 0.048975 0.602668 0.166112
H6    H     H_    0.368569 0.549970 0.403924 0.168881
H7    H     H_    0.633267 0.566198 0.593089 0.162575
H8    H     H_    0.149149 0.345264 0.439091 0.192255
H9    H     H_    0.841442 0.331435 0.566748 0.169935
H10   H     H_    0.897816 0.000773 0.606702 0.165121
H11   H     H_    0.106821 0.016130 0.396148 0.154370
H12   H     H_    0.381604 0.528928 0.601726 0.157460
H13   H     H_    0.614330 0.538254 0.391890 0.153952
H14   H     H_    0.664506 0.811347 0.564683 0.127613
H15   H     H_    0.332168 0.799561 0.439748 0.136465
H16   H     H_    0.161516 0.318145 0.565218 0.126855
H17   H     H_    0.481631 0.327812 0.560750 0.173272
H18   H     H_    0.834676 0.309073 0.437957 0.132567
H19   H     H_    0.963845 0.077023 0.533278 0.115074
H20   H     H_    0.046479 0.095794 0.476244 0.116718
H21   H     H_    0.461360 0.574071 0.528989 0.116418
H22   H     H_    0.543621 0.604426 0.469760 0.119000
H23   H     H_    0.964813 0.040791 0.397911 0.088394
H24   H     H_    0.029476 0.013144 0.604138 0.084840
H25   H     H_    0.467788 0.522050 0.397718 0.092054
H26   H     H_    0.532985 0.528263 0.599284 0.092030
H27   H     H_    0.509082 0.343644 0.942698 0.113700
H28   H     H_    0.007853 0.830050 0.436134 0.168841
H29   H     H_    0.438018 0.339946 0.070281 0.100359
H30   H     H_    0.010403 0.843248 0.942336 0.113379
H31   H     H_    0.939347 0.841131 0.069711 0.098577
H32   H     H_    0.447792 0.974856 0.071442 0.118361
H33   H     H_    0.520086 0.981143 0.947033 0.141875
H34   H     H_    0.946793 0.476141 0.071583 0.121095
H35   H     H_    0.020002 0.480605 0.947143 0.141679
H36   H     H_    0.847090 0.993061 0.066700 0.133992
H37   H     H_    0.149743 0.998910 0.932614 0.134817
H38   H     H_    0.347021 0.493722 0.066428 0.134968
H39   H     H_    0.972825 0.827618 0.557824 0.169033
H40   H     H_    0.649828 0.499690 0.932874 0.134040
H41   H     H_    0.646455 0.738974 0.880359 0.170519
H42   H     H_    0.355747 0.750836 0.115578 0.158882
H43   H     H_    0.145500 0.242288 0.879677 0.169346
H44   H     H_    0.854338 0.245663 0.114849 0.161637
H45   H     H_    0.865314 0.936372 0.949485 0.138708
H46   H     H_    0.133171 0.940320 0.050622 0.147902
H47   H     H_    0.365522 0.435494 0.949518 0.138109
H48   H     H_    0.633057 0.440796 0.050852 0.148835
H49   H     H_    0.047313 0.193599 0.939513 0.100919
H50   H     H_    0.926936 0.237336 0.550354 0.129640
H51   H     H_    0.934542 0.145253 0.045307 0.092209
H52   H     H_    0.548069 0.690769 0.940123 0.100647
H53   H     H_    0.434796 0.646690 0.046291 0.092393
H54   H     H_    0.030695 0.251276 0.062001 0.104527
H55   H     H_    0.930254 0.154012 0.916767 0.101175
H56   H     H_    0.531103 0.749882 0.062352 0.104702
H57   H     H_    0.430517 0.654288 0.917708 0.101225
H58   H     H_    0.609516 0.859664 0.120299 0.166832
H59   H     H_    0.346389 0.772294 0.859261 0.131767
H60   H     H_    0.109456 0.360237 0.120086 0.166812
H61   H     H_    0.964615 0.224273 0.432319 0.096225
H62   H     H_    0.845611 0.271498 0.858673 0.132191
H63   H     H_    0.630594 0.266545 0.899020 0.147340
H64   H     H_    0.595401 0.119250 0.888162 0.140839
H65   H     H_    0.689672 0.025994 0.930169 0.167158
H66   H     H_    0.719663 0.120591 0.861133 0.121805
H67   H     H_    0.732753 0.155301 0.954294 0.187085
H68   H     H_    0.355045 0.234428 0.130764 0.127886
H69   H     H_    0.363279 0.071845 0.132579 0.126124
H70   H     H_    0.235553 0.066669 0.104453 0.192249
H71   H     H_    0.262986 0.114189 0.195227 0.121914
H72   H     H_    0.426775 0.733763 0.551466 0.120613
H73   H     H_    0.233985 0.223528 0.130845 0.135408
H74   H     H_    0.130138 0.765711 0.899413 0.147091
H75   H     H_    0.096903 0.616620 0.888791 0.140734
H76   H     H_    0.192482 0.528341 0.931883 0.167969
H77   H     H_    0.221074 0.622469 0.861962 0.121260
H78   H     H_    0.233400 0.659296 0.955029 0.186892
H79   H     H_    0.850814 0.747760 0.126589 0.132060
H80   H     H_    0.867259 0.588065 0.134770 0.125464
H81   H     H_    0.745300 0.555087 0.111739 0.190701
H82   H     H_    0.763540 0.627544 0.193290 0.115366
H83   H     H_    0.459774 0.720782 0.432061 0.092754
H84   H     H_    0.729211 0.706919 0.120998 0.145860
H85   H     H_    0.554234 0.846152 0.654140 0.121436
H86   H     H_    0.501604 0.711644 0.657189 0.098377
H87   H     H_    0.440351 0.826002 0.764114 0.180338
H88   H     H_    0.520159 0.750269 0.778293 0.048019
H89   H     H_    0.519505 0.910678 0.764583 0.180134
H90   H     H_    0.447524 0.831641 0.317989 0.115189
H91   H     H_    0.503537 0.701367 0.330793 0.096809
H92   H     H_    0.585017 0.820276 0.243550 0.190996
H93   H     H_    0.518572 0.722022 0.215388 0.042477
H94   H     H_    0.650900 0.844660 0.439167 0.183309
H95   H     H_    0.501323 0.877917 0.215436 0.155886
H96   H     H_    0.055903 0.345050 0.655046 0.120493
H97   H     H_    0.002918 0.211009 0.657314 0.098462
H98   H     H_    0.941140 0.324965 0.764036 0.180047
H99   H     H_    0.020976 0.249606 0.778834 0.047488
H100  H     H_    0.020066 0.410070 0.765137 0.179742
H101  H     H_    0.957290 0.328424 0.317611 0.113019
H102  H     H_    0.013896 0.200175 0.334691 0.095437
H103  H     H_    0.097656 0.313181 0.248658 0.191288
H104  H     H_    0.031279 0.215471 0.219470 0.040999
O1    O     O_R   0.788190 0.043000 0.172520 -0.537643
O2    O     O_R   0.454170 0.051610 0.669840 -0.454297
O3    O     O_R   0.045830 0.551610 0.330160 -0.458676
O4    O     O_R   0.954170 0.551610 0.669840 -0.452404
O5    O     O_R   0.681920 0.959720 0.327070 -0.484186
O6    O     O_R   0.318080 0.959720 0.672930 -0.483823
O7    O     O_R   0.181920 0.459720 0.327070 -0.481528
O8    O     O_R   0.818080 0.459720 0.672930 -0.484940
O9    O     O_3   0.668190 0.168190 0.250820 -0.274454
O10   O     O_3   0.331810 0.168190 0.749180 -0.304952
O11   O     O_3   0.168190 0.668190 0.250820 -0.273873
O12   O     O_R   0.211810 0.043000 0.827480 -0.540145
O13   O     O_3   0.831810 0.668190 0.749180 -0.305637
O14   O     O_R   0.766240 0.292300 0.176860 -0.529456
O15   O     O_R   0.233760 0.292300 0.823140 -0.528074
O16   O     O_R   0.266240 0.792300 0.176860 -0.528717
O17   O     O_R   0.733760 0.792300 0.823140 -0.527556
O18   O     O_R   0.670310 0.409160 0.168720 -0.539969
O19   O     O_R   0.329690 0.409160 0.831280 -0.533918
O20   O     O_R   0.170310 0.909160 0.168720 -0.539894
O21   O     O_R   0.829690 0.909160 0.831280 -0.533166
O22   O     O_R   0.556160 0.251900 0.173380 -0.508297
O23   O     O_R   0.288190 0.543000 0.172520 -0.535709
O24   O     O_R   0.443840 0.251900 0.826620 -0.513905
O25   O     O_R   0.056160 0.751900 0.173380 -0.507606
O26   O     O_R   0.943840 0.751900 0.826620 -0.513756
O27   O     O_R   0.545410 0.050140 0.168240 -0.565034
O28   O     O_R   0.454590 0.050140 0.831760 -0.550167
O29   O     O_R   0.045410 0.550140 0.168240 -0.565610
O30   O     O_R   0.954590 0.550140 0.831760 -0.549520
O31   O     O_R   0.681530 0.958350 0.176970 -0.544455
O32   O     O_R   0.318470 0.958350 0.823030 -0.534783
O33   O     O_R   0.181530 0.458350 0.176970 -0.547867
O34   O     O_R   0.711810 0.543000 0.827480 -0.540251
O35   O     O_R   0.818470 0.458350 0.823030 -0.533562
O36   O     O_R   0.788610 0.044480 0.334450 -0.547895
O37   O     O_R   0.211390 0.044480 0.665550 -0.547908
O38   O     O_R   0.288610 0.544480 0.334450 -0.547901
O39   O     O_R   0.711390 0.544480 0.665550 -0.546060
O40   O     O_R   0.766630 0.293670 0.326970 -0.511197
O41   O     O_R   0.233370 0.293670 0.673030 -0.507593
O42   O     O_R   0.266630 0.793670 0.326970 -0.511134
O43   O     O_R   0.733370 0.793670 0.673030 -0.510617
O44   O     O_R   0.670730 0.410640 0.330640 -0.539481
O45   O     O_R   0.556550 0.253260 0.323480 -0.517030
O46   O     O_R   0.329270 0.410640 0.669360 -0.542125
O47   O     O_R   0.170730 0.910640 0.330640 -0.541876
O48   O     O_R   0.829270 0.910640 0.669360 -0.547724
O49   O     O_3   0.612521 0.176116 0.993009 -0.564203
O50   O     O_3   0.340026 0.147509 0.033886 -0.546813
O51   O     O_3   0.113069 0.674707 0.993423 -0.563836
O52   O     O_3   0.840718 0.648848 0.033277 -0.546378
O53   O     O_3   0.449116 0.868360 0.636096 -0.524312
O54   O     O_3   0.542469 0.863617 0.368023 -0.520385
O55   O     O_3   0.951103 0.368262 0.636256 -0.524338
O56   O     O_R   0.443450 0.253260 0.676520 -0.510297
O57   O     O_3   0.049958 0.365262 0.370728 -0.522093
O58   O     O_R   0.056550 0.753260 0.323480 -0.519343
O59   O     O_R   0.943450 0.753260 0.676520 -0.515290
O60   O     O_R   0.545830 0.051610 0.330160 -0.456732

loop_
_geom_bond_atom_site_label_1
_geom_bond_atom_site_label_2
_ccdc_geom_bond_type
Cr11  O21   S    
C73   H38   S    
C126  C127  A    
C20   C144  A    
C53   H76   S    
C136  C140  A    
C126  H72   S    
C90   C95   A    
C12   H4    S    
C63   H102  S    
C86   C88   A    
C89   C94   A    
C30   O36   A    
C110  C111  A    
C38   C45   S    
C67   C94   A    
C55   H81   S    
C29   C108  S    
C58   H88   S    
C113  H33   S    
C99   O29   A    
C142  H2    S    
C29   O4    A    
C59   C60   S    
C22   C130  S    
C17   C30   S    
C60   H95   S    
C130  C134  A    
C19   C32   S    
C122  O57   S    
Cr2   O32   S    
C1    O14   A    
Cr9   O24   S    
C15   C139  A    
C68   C95   A    
C59   O54   S    
C97   O22   A    
C43   C97   S    
C36   H29   S    
C56   O53   S    
C45   C99   S    
C10   H25   S    
Cr5   O10   S    
C135  H35   S    
C35   C66   A    
C132  C137  A    
C5    C155  A    
Cr12  O27   S    
C27   O56   A    
C69   O19   A    
C142  C151  A    
Cr4   O13   S    
C37   C38   S    
C36   C40   S    
C86   H52   S    
C54   H79   S    
C148  O33   A    
C94   H59   S    
C129  C133  A    
C20   C33   S    
C16   H7    S    
C128  C150  A    
C123  H50   S    
C82   C84   A    
C87   C89   A    
C130  C152  A    
Cr10  O25   S    
C91   O17   A    
C124  C135  S    
Cr9   O10   S    
Cr12  O60   S    
C70   C105  A    
C26   O60   A    
Cr1   O14   S    
C72   C103  A    
C116  H17   S    
C60   H92   S    
C64   H3    S    
C23   O47   A    
C40   O50   S    
C42   O52   S    
C147  O12   A    
C156  H12   S    
C32   O38   A    
Cr6   O38   S    
C121  C123  A    
C123  C125  A    
C119  C126  A    
C149  O35   A    
C21   O44   A    
C19   C139  A    
Cr10  O58   S    
C73   C77   A    
C17   C137  A    
C18   C31   S    
C63   O57   S    
C5    H20   S    
C143  C152  A    
Cr8   O18   S    
C56   H86   S    
Cr3   O7    S    
Cr4   O8    S    
C112  C114  A    
C120  C127  A    
C67   C103  A    
Cr6   O11   S    
C50   O50   S    
C101  C145  S    
C87   H53   S    
C25   C128  S    
C14   H5    S    
C125  H61   S    
Cr12  O9    S    
C13   C57   A    
C115  C116  A    
C92   C96   A    
C3    C136  A    
Cr6   O42   S    
C64   H104  S    
C62   H100  S    
C44   C98   S    
C39   C113  S    
C1    O18   A    
C21   O40   A    
C132  C154  A    
C88   H56   S    
C59   H90   S    
C37   C47   S    
Cr9   O46   S    
C66   C101  A    
C16   C140  A    
C84   C90   A    
Cr10  O11   S    
C85   C92   A    
C141  C150  A    
C75   C146  A    
C71   H36   S    
C80   O16   A    
C34   C39   S    
Cr7   O43   S    
C131  C136  A    
C52   H75   S    
C134  C139  A    
C80   O20   A    
C28   O3    A    
C27   C106  S    
C75   H45   S    
C33   O39   A    
C70   C96   A    
C5    C9    A    
C49   H66   S    
C99   O25   A    
Cr11  O59   S    
Cr2   O10   S    
C8    C12   A    
C61   H97   S    
C22   O41   A    
C37   H30   S    
C50   H68   S    
Cr2   O28   S    
C32   O7    A    
C109  C114  A    
C66   C93   A    
Cr4   O4    S    
C57   C68   A    
Cr6   O23   S    
C41   C135  S    
C52   C53   S    
C148  O23   A    
C54   C55   S    
C41   C45   S    
C47   C135  S    
C107  C111  A    
C50   H69   S    
C110  C119  A    
C151  H15   S    
C61   O55   S    
C122  C125  A    
C118  H39   S    
C63   H101  S    
C43   C102  S    
C112  C121  A    
C117  C118  A    
C62   H98   S    
C74   C105  A    
C13   C69   S    
C6    H21   S    
C35   C79   A    
C56   C58   S    
C51   H70   S    
C34   C36   S    
C37   C41   S    
C61   C62   S    
Cr8   O45   S    
C76   H46   S    
C40   C44   S    
C1    C24   S    
Cr10  O47   S    
C55   H84   S    
Cr4   O30   S    
C6    C156  A    
C145  O31   A    
C33   O8    A    
C34   H27   S    
C4    C154  A    
Cr1   O40   S    
C22   O46   A    
C104  C148  S    
Cr8   O22   S    
C109  C117  A    
C150  H14   S    
C31   O37   A    
C129  C151  A    
C3    C7    A    
Cr1   O1    S    
Cr2   O6    S    
C153  H18   S    
C23   C129  S    
C17   C141  A    
Cr9   O56   S    
C18   C138  A    
C31   O6    A    
C53   H78   S    
C21   C131  S    
C48   H63   S    
C134  C156  A    
C14   C138  A    
C30   O5    A    
Cr3   O11   S    
C29   O59   A    
C54   H80   S    
C83   H44   S    
C4    C8    A    
C81   H42   S    
C71   C101  A    
C133  C138  A    
C133  C155  A    
Cr11  O48   S    
C59   H91   S    
C51   H73   S    
C143  H8    S    
C155  H11   S    
Cr12  O5    S    
Cr5   O12   S    
C103  C147  S    
C108  C112  A    
C106  C116  A    
C35   C146  A    
C23   O42   A    
C9    C14   A    
C102  H32   S    
C11   C16   A    
C50   C51   S    
C55   H82   S    
C58   H87   S    
C41   O51   S    
C3    H13   S    
C81   C87   A    
Cr3   O33   S    
C24   C78   A    
C149  O34   A    
C69   O15   A    
C44   C113  S    
Cr11  O26   S    
C154  H10   S    
Cr7   O39   S    
C2    C76   A    
C77   H47   S    
C79   H41   S    
C147  O32   A    
C15   H6    S    
C92   H55   S    
C98   O24   A    
C68   C104  A    
C89   H57   S    
C6    C10   A    
Cr4   O35   S    
C38   C42   S    
C72   H37   S    
C48   O49   S    
C20   C140  A    
Cr7   O34   S    
C102  C113  S    
Cr11  O13   S    
C39   O49   S    
Cr8   O9    S    
C84   H49   S    
C40   C102  S    
C144  H9    S    
C74   C78   A    
C124  H34   S    
C38   H31   S    
C36   C43   S    
C51   H71   S    
C79   C86   A    
C65   C70   A    
Cr8   O44   S    
C25   O48   A    
C120  O54   S    
Cr7   O13   S    
C141  H94   S    
C97   O27   A    
C11   H26   S    
C115  H1    S    
C98   O28   A    
C42   C124  S    
C74   H40   S    
C2    C46   A    
C7    C11   A    
C52   O51   S    
C4    H19   S    
C90   H54   S    
C52   H74   S    
C10   C15   A    
C65   C83   A    
C8    H23   S    
Cr3   O29   S    
C144  C153  A    
C95   H60   S    
C49   H65   S    
C93   H58   S    
C73   C104  A    
Cr1   O36   S    
Cr12  O31   S    
C96   H62   S    
C152  H16   S    
C9    H24   S    
Cr9   O19   S    
Cr10  O20   S    
C56   H85   S    
C128  C132  A    
Cr2   O2    S    
C45   C124  S    
C13   C77   A    
C58   H89   S    
C108  C118  A    
C131  C153  A    
C34   C44   S    
C78   H48   S    
C121  O55   S    
C39   C43   S    
C25   O43   A    
C119  O53   S    
C91   O21   A    
C47   C100  S    
C63   C64   S    
C111  C120  A    
C48   H64   S    
C145  O1    A    
C64   H103  S    
C62   H99   S    
C46   C81   A    
C28   O58   A    
C72   C76   A    
C7    H22   S    
C107  C115  A    
Cr7   O17   S    
C27   O2    A    
C24   C65   A    
C26   O45   A    
Cr5   O37   S    
C54   O52   S    
Cr1   O9    S    
C82   H43   S    
C106  C110  A    
C88   C93   A    
C48   C49   S    
C18   C142  A    
C19   C143  A    
C83   C85   A    
C57   C82   A    
C60   H93   S    
C61   H96   S    
C26   C107  S    
C28   C109  S    
C105  C149  S    
Cr3   O3    S    
C85   H51   S    
C46   C67   A    
C49   H67   S    
C117  H28   S    
C71   C75   A    
C127  H83   S    
C42   C47   S    
C100  O30   A    
C53   H77   S    
C2    C80   S    
C114  C122  A    
C12   C137  A    
Cr5   O41   S    
C100  O26   A    
C91   C146  S    
Cr5   O15   S    
Cr6   O16   S    
