data_mof_unit_63553.cif
_audit_creation_date              2012-12-10T19:26:39-0500
_audit_creation_method            fapswitch 2.2
_symmetry_space_group_name_H-M    P1
_symmetry_Int_Tables_number       1
_space_group_crystal_system       monoclinic
_cell_length_a                    17.766689
_cell_length_b                    16.472866
_cell_length_c                    11.723976
_cell_angle_alpha                 90.0
_cell_angle_beta                  90.186322
_cell_angle_gamma                 90.0
_cell_volume                      3431.21783188

loop_
_atom_site_label
_atom_site_type_symbol
_atom_type_description
_atom_site_fract_x
_atom_site_fract_y
_atom_site_fract_z
_atom_type_partial_charge
C1    C     C_R   0.355362 0.499999 0.499832 0.809173
C2    C     C_R   0.644638 0.499999 0.500168 0.809174
C3    C     C_R   0.767065 0.572732 0.484761 -0.222278
C4    C     C_R   0.232901 0.427252 0.483751 -0.220443
C5    C     C_R   0.232935 0.572732 0.515239 -0.222278
C6    C     C_R   0.767099 0.427252 0.516249 -0.220443
C7    C     C_R   0.727361 0.499994 0.500402 -0.064768
C8    C     C_R   0.272638 0.499994 0.499598 -0.064768
C9    C     C_R   0.885337 0.499954 0.500404 0.039708
C10   C     C_R   0.114662 0.499954 0.499596 0.039708
C11   C     C_1   0.966255 0.499916 0.500130 -0.019108
C12   C     C_1   0.033745 0.499916 0.499870 -0.019108
C13   C     C_R   0.499964 0.500000 0.283594 0.832957
C14   C     C_R   0.500036 0.500000 0.716406 0.832958
C15   C     C_R   0.550314 0.828456 0.569661 -0.111862
C16   C     C_R   0.449255 0.171546 0.431059 -0.111475
C17   C     C_R   0.449686 0.828456 0.430339 -0.111861
C18   C     C_R   0.550745 0.171546 0.568941 -0.111476
C19   C     C_R   0.549111 0.742729 0.568094 0.038380
C20   C     C_R   0.450482 0.257273 0.432583 0.040075
C21   C     C_R   0.450889 0.742729 0.431906 0.038380
C22   C     C_R   0.549518 0.257273 0.567417 0.040075
C23   C     C_1   0.500000 0.962813 0.500000 0.009406
C24   C     C_1   0.500000 0.037190 0.500000 0.009632
C25   C     C_1   0.499968 0.500000 0.162100 -0.173971
C26   C     C_1   0.500032 0.500000 0.837900 -0.173971
C27   C     C_1   0.499986 0.500000 0.059794 0.014649
C28   C     C_1   0.500014 0.500000 0.940206 0.014649
C29   C     C_R   0.500000 0.872971 0.500000 0.038451
C30   C     C_R   0.500000 0.127031 0.500000 0.038513
C31   C     C_R   0.845634 0.573099 0.484237 -0.005506
C32   C     C_R   0.154325 0.426845 0.483257 -0.005139
C33   C     C_R   0.154366 0.573099 0.515763 -0.005506
C34   C     C_R   0.845675 0.426845 0.516743 -0.005139
Cu1   Cu    Cu3+1 0.500000 0.580420 0.500000 0.952425
Cu2   Cu    Cu3+1 0.500000 0.419580 0.500000 0.953900
H1    H     H_    0.587714 0.708938 0.621715 0.132327
H2    H     H_    0.411565 0.291061 0.379481 0.129014
H3    H     H_    0.412286 0.708938 0.378285 0.132327
H4    H     H_    0.588434 0.291061 0.620519 0.129014
H5    H     H_    0.736932 0.629293 0.472145 0.161848
H6    H     H_    0.263008 0.370716 0.471047 0.158169
H7    H     H_    0.263068 0.629293 0.527855 0.161848
H8    H     H_    0.736992 0.370716 0.528953 0.158169
N1    N     N_R   0.500000 0.701220 0.500000 -0.178801
N2    N     N_R   0.500000 0.298780 0.500000 -0.177810
O1    O     O_R   0.391260 0.567930 0.500000 -0.587609
O2    O     O_R   0.608740 0.432070 0.500000 -0.586898
O3    O     O_R   0.608740 0.567930 0.500000 -0.587609
O4    O     O_R   0.391260 0.432070 0.500000 -0.586897
O5    O     O_R   0.500010 0.567910 0.337200 -0.574433
O6    O     O_R   0.499990 0.432090 0.662800 -0.573905
O7    O     O_R   0.499990 0.567910 0.662800 -0.574434
O8    O     O_R   0.500010 0.432090 0.337200 -0.573905
C35   C     C_1   0.603562 0.869071 0.643286 0.244080
N3    N     N_1   0.646317 0.901486 0.702395 -0.228011
C36   C     C_1   0.395522 0.130936 0.358242 0.243219
N4    N     N_1   0.352373 0.098528 0.299786 -0.227796
C37   C     C_1   0.396438 0.869071 0.356714 0.244080
N5    N     N_1   0.353683 0.901486 0.297604 -0.228011
C38   C     C_1   0.604478 0.130936 0.641758 0.243219
N6    N     N_1   0.647627 0.098528 0.700214 -0.227796
C39   C     C_1   0.884229 0.649244 0.466430 0.252929
N7    N     N_1   0.914971 0.710299 0.452024 -0.229701
C40   C     C_1   0.115673 0.350692 0.465414 0.252626
N8    N     N_1   0.084876 0.289635 0.450980 -0.229112
C41   C     C_1   0.115771 0.649244 0.533570 0.252929
N9    N     N_1   0.085029 0.710299 0.547976 -0.229701
C42   C     C_1   0.884327 0.350692 0.534586 0.252626
N10   N     N_1   0.915124 0.289635 0.549020 -0.229112

loop_
_geom_bond_atom_site_label_1
_geom_bond_atom_site_label_2
_ccdc_geom_bond_type
Cu1   O3    S    
C5    C8    A    
C15   C19   A    
C11   C12   T    
C19   N1    A    
C18   C38   S    
Cu2   N2    S    
C6    C7    A    
C18   C30   A    
C2    O3    A    
C31   C39   S    
Cu1   O7    S    
C1    C8    S    
C20   H2    S    
C1    O4    A    
C13   O8    A    
C2    O2    A    
C3    C7    A    
C2    C7    S    
C21   H3    S    
C16   C20   A    
C35   N3    T    
Cu1   O1    S    
C38   N6    T    
C5    H7    S    
C22   H4    S    
C37   N5    T    
Cu2   O8    S    
C6    H8    S    
C14   C26   S    
C3    C31   A    
C9    C11   S    
C34   C42   S    
C13   C25   S    
C36   N4    T    
C9    C34   A    
C6    C34   A    
C4    H6    S    
C17   C37   S    
C23   C29   S    
C1    O1    A    
C22   N2    A    
C15   C35   S    
Cu2   O2    S    
C10   C33   A    
C21   N1    A    
C16   C36   S    
Cu1   O5    S    
C42   N10   T    
C10   C12   S    
C20   N2    A    
C24   C30   S    
C25   C27   T    
C9    C31   A    
C23   C24   T    
C16   C30   A    
C41   N9    T    
C15   C29   A    
C5    C33   A    
C10   C32   A    
C14   O7    A    
C17   C29   A    
C13   O5    A    
C33   C41   S    
C40   N8    T    
C4    C32   A    
C27   C28   S    
C3    H5    S    
C19   H1    S    
C4    C8    A    
Cu1   N1    S    
C18   C22   A    
C26   C28   T    
C14   O6    A    
C39   N7    T    
Cu2   O4    S    
C17   C21   A    
C32   C40   S    
Cu1   Cu2   S    
Cu2   O6    S    
