data_mof_unit_53271.cif
_audit_creation_date              2012-12-10T17:33:13-0500
_audit_creation_method            fapswitch 2.2
_symmetry_space_group_name_H-M    P1
_symmetry_Int_Tables_number       1
_space_group_crystal_system       triclinic
_cell_length_a                    12.149222
_cell_length_b                    12.856195
_cell_length_c                    13.606906
_cell_angle_alpha                 92.645477
_cell_angle_beta                  80.884333
_cell_angle_gamma                 94.730169
_cell_volume                      2090.12884596

loop_
_atom_site_label
_atom_site_type_symbol
_atom_type_description
_atom_site_fract_x
_atom_site_fract_y
_atom_site_fract_z
_atom_type_partial_charge
C1    C     C_R   0.523176 0.700052 0.498800 0.991705
C2    C     C_R   0.147170 0.471602 0.447870 -0.058530
C3    C     C_R   0.970778 0.518481 0.546640 -0.229376
C4    C     C_R   0.027651 0.468087 0.461315 -0.188617
C5    C     C_R   0.481404 0.501815 0.686129 0.929458
C6    C     C_R   0.518578 0.498118 0.313878 0.870149
C7    C     C_1   0.531184 0.493713 0.210005 -0.143200
C8    C     C_1   0.468467 0.504387 0.790020 -0.129060
C9    C     C_2   0.546154 0.486706 0.016551 0.433694
C10   C     C_2   0.452358 0.507358 0.983508 0.421820
C11   C     C_1   0.457702 0.506419 0.878091 -0.068860
C12   C     C_R   0.476953 0.300058 0.502128 0.982170
C13   C     C_1   0.541467 0.489722 0.121952 -0.071878
C14   C     C_R   0.461842 0.188233 0.499742 -0.353203
C15   C     C_R   0.537660 0.812068 0.502275 -0.389159
C16   C     C_R   0.579475 0.965552 0.600917 0.462643
C17   C     C_R   0.392001 0.028872 0.422421 0.484130
C18   C     C_R   0.599328 0.863262 0.570886 0.319686
C19   C     C_R   0.397905 0.137228 0.432247 0.324057
C20   C     C_R   0.471953 0.866352 0.449636 0.455642
C21   C     C_R   0.522325 0.133324 0.556974 0.462263
C22   C     C_3   0.264386 0.545882 0.004688 -0.220876
C23   C     C_R   0.461062 0.972809 0.471507 -0.275928
C24   C     C_3   0.732215 0.442415 0.995439 -0.290751
C25   C     C_3   0.696707 0.195832 0.592860 -0.157946
C26   C     C_3   0.490033 0.804185 0.289220 -0.191122
C27   C     C_3   0.407347 0.208254 0.281208 -0.295115
C28   C     C_3   0.782067 0.842142 0.570152 -0.126043
C29   C     C_3   0.537616 0.988602 0.768110 -0.196016
C30   C     C_3   0.215303 0.964248 0.410126 -0.201728
C31   C     C_2   0.210840 0.429355 0.356190 0.623268
C32   C     C_2   0.788354 0.548159 0.654147 0.675820
C33   C     C_3   0.218160 0.734881 0.644815 -0.265734
C34   C     C_R   0.520279 0.024262 0.544663 -0.283568
C35   C     C_3   0.764270 0.293375 0.315934 -0.236566
C36   C     C_3   0.019087 0.249604 0.361286 -0.371565
C37   C     C_3   0.988924 0.557945 0.786130 -0.314239
C38   C     C_R   0.962624 0.413530 0.393817 0.427839
C39   C     C_R   0.035018 0.567773 0.617631 0.362274
C40   C     C_R   0.847832 0.428895 0.401166 0.520295
C41   C     C_R   0.153107 0.572270 0.597818 0.545423
C42   C     C_R   0.851527 0.517624 0.557825 -0.080495
H1    H     H_    0.239685 0.475177 0.960602 0.153370
H2    H     H_    0.559335 0.755378 0.297313 0.107281
H3    H     H_    0.524273 0.882242 0.261365 0.146382
H4    H     H_    0.443667 0.764818 0.232200 0.202670
H5    H     H_    0.428754 0.132876 0.242208 0.185851
H6    H     H_    0.484725 0.258511 0.288548 0.123747
H7    H     H_    0.359557 0.248936 0.233631 0.197255
H8    H     H_    0.800639 0.928398 0.574068 0.118884
H9    H     H_    0.796993 0.812706 0.491324 0.126909
H10   H     H_    0.842528 0.808133 0.610143 0.213197
H11   H     H_    0.517596 0.903459 0.779215 0.156901
H12   H     H_    0.281962 0.615372 0.957296 0.152061
H13   H     H_    0.460432 0.027237 0.761745 0.151821
H14   H     H_    0.569870 0.022584 0.835360 0.179472
H15   H     H_    0.178228 0.039940 0.431327 0.151665
H16   H     H_    0.212563 0.917252 0.477305 0.131889
H17   H     H_    0.162707 0.920090 0.360394 0.178287
H18   H     H_    0.265409 0.368217 0.360410 0.100827
H19   H     H_    0.776318 0.494637 0.714963 0.029391
H20   H     H_    0.138071 0.766603 0.678888 0.185606
H21   H     H_    0.236461 0.752330 0.564149 0.172869
H22   H     H_    0.285567 0.776499 0.681038 0.168618
H23   H     H_    0.192393 0.561313 0.063139 0.215709
H24   H     H_    0.749266 0.256176 0.389388 0.114903
H25   H     H_    0.829833 0.254606 0.264474 0.189867
H26   H     H_    0.685920 0.279764 0.283637 0.154704
H27   H     H_    0.078316 0.256982 0.416096 0.163279
H28   H     H_    0.052235 0.194454 0.300805 0.213980
H29   H     H_    0.937023 0.214485 0.397973 0.119806
H30   H     H_    0.074470 0.563551 0.805975 0.200192
H31   H     H_    0.959688 0.474539 0.774114 0.122651
H32   H     H_    0.932561 0.589405 0.850884 0.199902
H33   H     H_    0.710487 0.372736 0.042242 0.172234
H34   H     H_    0.760425 0.511290 0.040120 0.178579
H35   H     H_    0.803235 0.424153 0.937031 0.175463
H36   H     H_    0.725487 0.277544 0.574150 0.145903
H37   H     H_    0.724931 0.142961 0.528087 0.092631
H38   H     H_    0.740463 0.177419 0.654802 0.193133
N1    N     N_R   0.206090 0.519450 0.517820 -0.203001
N2    N     N_R   0.793910 0.480550 0.482180 -0.201968
O1    O     O_R   0.421240 0.658850 0.504760 -0.571328
O2    O     O_3   0.641560 0.464667 0.948623 -0.629336
O3    O     O_3   0.579664 0.187655 0.626705 -0.567326
O4    O     O_3   0.415357 0.813408 0.379285 -0.546688
O5    O     O_3   0.340638 0.193174 0.375020 -0.607364
O6    O     O_3   0.672044 0.811267 0.615682 -0.525773
O7    O     O_3   0.620684 0.006882 0.684579 -0.574354
O8    O     O_3   0.325091 0.979725 0.358155 -0.551501
O9    O     O_2   0.204868 0.464641 0.275558 -0.518777
O10   O     O_2   0.751007 0.633481 0.667443 -0.507598
O11   O     O_3   0.216525 0.627150 0.661519 -0.586657
O12   O     O_R   0.578760 0.341150 0.495240 -0.626305
O13   O     O_3   0.792153 0.401936 0.321435 -0.563717
O14   O     O_3   0.009078 0.346388 0.319165 -0.561397
O15   O     O_3   0.984205 0.618243 0.702869 -0.602918
O16   O     O_R   0.609960 0.646370 0.493320 -0.576444
O17   O     O_R   0.390040 0.353630 0.506680 -0.620808
O18   O     O_R   0.392060 0.507120 0.646890 -0.584569
O19   O     O_R   0.607940 0.492880 0.353110 -0.567385
O20   O     O_R   0.580780 0.494630 0.635450 -0.612544
O21   O     O_R   0.419220 0.505370 0.364550 -0.620364
O22   O     O_3   0.356978 0.529495 0.051418 -0.602860
Zn1   Zn    Zn3+2 0.373990 0.508340 0.507630 0.993883
Zn2   Zn    Zn3+2 0.626010 0.491660 0.492370 0.996451

loop_
_geom_bond_atom_site_label_1
_geom_bond_atom_site_label_2
_ccdc_geom_bond_type
C27   H6    S    
C15   C18   A    
C37   H32   S    
C3    C42   A    
C25   H38   S    
C42   N2    A    
C30   O8    S    
C29   O7    S    
C26   H2    S    
C22   H12   S    
O18   Zn1   S    
C17   C23   A    
C14   C21   A    
C32   H19   S    
C19   O5    S    
C8    C11   T    
C28   H9    S    
C39   O15   S    
C30   H15   S    
C22   O22   S    
C6    O19   A    
C9    C13   S    
C12   O17   A    
C26   H3    S    
C16   C34   A    
C28   H8    S    
C41   O11   S    
C33   H20   S    
C20   O4    S    
C28   O6    S    
C20   C23   A    
C1    C15   S    
C9    C10   D    
C36   H29   S    
C33   H21   S    
C3    C39   A    
C16   O7    S    
C12   O12   A    
C37   O15   S    
C36   H28   S    
N1    Zn1   S    
C15   C20   A    
O17   Zn1   S    
C21   O3    S    
C25   H36   S    
C40   N2    A    
C39   C41   A    
C24   H34   S    
C21   C34   A    
C29   H13   S    
C35   H24   S    
C18   O6    S    
O1    Zn1   S    
C2    C31   S    
C31   H18   S    
C2    C4    A    
C22   H23   S    
C36   O14   S    
C22   H1    S    
C5    O18   A    
C35   H25   S    
C26   O4    S    
C23   C34   A    
C41   N1    A    
C30   H17   S    
C25   O3    S    
O21   Zn1   S    
C6    O21   A    
C27   O5    S    
C4    C38   A    
C31   O9    D    
C40   O13   S    
C3    C4    A    
C36   H27   S    
C27   H5    S    
O19   Zn2   S    
C37   H31   S    
C5    O20   A    
O12   Zn2   S    
C25   H37   S    
C14   C19   A    
C17   O8    S    
C12   C14   S    
C33   O11   S    
C1    O16   A    
C5    C8    S    
C24   H33   S    
C6    C7    S    
C29   H14   S    
C35   O13   S    
C1    O1    A    
O16   Zn2   S    
C10   O22   S    
C24   O2    S    
C38   C40   A    
C28   H10   S    
C32   O10   D    
C29   H11   S    
C35   H26   S    
C33   H22   S    
C30   H16   S    
C17   C19   A    
O20   Zn2   S    
N2    Zn2   S    
C10   C11   S    
C26   H4    S    
C9    O2    S    
C24   H35   S    
C7    C13   T    
C16   C18   A    
C37   H30   S    
C38   O14   S    
C32   C42   S    
C2    N1    A    
C27   H7    S    
