data_mof_unit_13933.cif
_audit_creation_date              2012-10-26T19:21:57-0400
_audit_creation_method            fapswitch 2.2
_symmetry_space_group_name_H-M    P1
_symmetry_Int_Tables_number       1
_space_group_crystal_system       triclinic
_cell_length_a                    23.549086
_cell_length_b                    11.077726
_cell_length_c                    9.95693
_cell_angle_alpha                 111.749564
_cell_angle_beta                  98.001126
_cell_angle_gamma                 93.07026
_cell_volume                      2373.41463169

loop_
_atom_site_label
_atom_site_type_symbol
_atom_type_description
_atom_site_fract_x
_atom_site_fract_y
_atom_site_fract_z
_atom_type_partial_charge
C1    C     C_R   0.495596 0.253666 0.439473 0.526050
C2    C     C_R   0.712287 0.576231 0.617431 0.252967
C3    C     C_R   0.241404 0.420441 0.557913 0.333731
C4    C     C_R   0.771514 0.579661 0.611498 0.318469
C5    C     C_R   0.208714 0.497443 0.499875 0.191503
C6    C     C_R   0.790555 0.506241 0.480015 0.186746
C7    C     C_2   0.492756 0.112302 0.403677 0.218287
C8    C     C_2   0.508652 0.887536 0.596163 0.232750
C9    C     C_2   0.504841 0.069476 0.513036 -0.134319
C10   C     C_2   0.501769 0.930289 0.485765 -0.122792
C11   C     C_2   0.509756 0.503760 0.081580 0.490321
C12   C     C_R   0.504644 0.746230 0.560461 0.550222
C13   C     C_2   0.505270 0.470434 0.915359 0.454482
C14   C     C_R   0.391276 0.502088 0.501047 0.543785
C15   C     C_R   0.608900 0.496914 0.498361 0.566454
C16   C     C_R   0.885674 0.614904 0.501827 0.426458
C17   C     C_R   0.112174 0.381417 0.436485 0.433839
C18   C     C_R   0.874970 0.390494 0.469219 0.373834
C19   C     C_R   0.127282 0.609180 0.584884 0.389549
C20   C     C_R   0.934508 0.384466 0.469115 0.017487
C21   C     C_R   0.067448 0.616295 0.571998 0.019570
C22   C     C_R   0.970395 0.501584 0.504156 -0.111211
C23   C     C_R   0.235696 0.575365 0.435881 0.000095
C24   C     C_R   0.030257 0.498008 0.509142 -0.105079
C25   C     C_R   0.946443 0.622195 0.538244 -0.020711
C26   C     C_R   0.052830 0.376155 0.449497 -0.019942
C27   C     C_R   0.958783 0.265116 0.438790 0.287636
C28   C     C_R   0.044370 0.737787 0.621054 0.275518
C29   C     C_R   0.015864 0.256152 0.408334 -0.013078
C30   C     C_R   0.983898 0.742016 0.608590 0.002011
C31   C     C_3   0.933761 0.164628 0.585812 -0.100114
C32   C     C_3   0.095186 0.898483 0.580291 -0.087059
C33   C     C_3   0.571596 0.757387 0.949764 -0.014673
C34   C     C_R   0.750370 0.424394 0.355142 0.013433
C35   C     C_3   0.394488 0.308138 0.075479 -0.057536
C36   C     C_3   0.038679 0.123034 0.338461 -0.222098
C37   C     C_3   0.997229 0.995827 0.286425 -0.290673
C38   C     C_3   0.026083 0.876951 0.201668 -0.482438
C39   C     C_3   0.962542 0.874906 0.683584 -0.211372
C40   C     C_3   0.977949 0.926517 0.851566 -0.294547
C41   C     C_3   0.957764 0.061320 0.921326 -0.459276
C42   C     C_3   0.199377 0.636293 0.343834 -0.223067
C43   C     C_3   0.198599 0.560951 0.179352 -0.318593
C44   C     C_3   0.162441 0.622760 0.087761 -0.451555
C45   C     C_R   0.297021 0.590734 0.453509 -0.071530
C46   C     C_3   0.771094 0.356538 0.209293 -0.204410
C47   C     C_3   0.741875 0.398212 0.087949 -0.326493
C48   C     C_3   0.764196 0.330777 0.944544 -0.452652
C49   C     C_3   0.327839 0.707860 0.438034 -0.247790
C50   C     C_3   0.325082 0.832218 0.572508 -0.303046
C51   C     C_3   0.338036 0.954665 0.542144 -0.467697
C52   C     C_3   0.654020 0.278988 0.269043 -0.253144
C53   C     C_3   0.648096 0.187010 0.350973 -0.290398
C54   C     C_3   0.621981 0.050137 0.245716 -0.421305
C55   C     C_3   0.318230 0.206511 0.413311 -0.134161
C56   C     C_R   0.691693 0.405447 0.369729 -0.085636
C57   C     C_3   0.699576 0.608079 0.850647 -0.103241
C58   C     C_3   0.236636 0.386450 0.768195 -0.114340
C59   C     C_3   0.844946 0.596214 0.799431 -0.121924
C60   C     C_3   0.477740 0.989710 0.812913 -0.112640
C61   C     C_3   0.423959 0.995764 0.205846 -0.124640
C62   C     C_3   0.427537 0.324550 0.771658 -0.025577
C63   C     C_3   0.606337 0.570170 0.155132 -0.102955
C64   C     C_R   0.328582 0.504145 0.500960 -0.037833
C65   C     C_R   0.671742 0.492609 0.494916 -0.048661
C66   C     C_R   0.298931 0.411477 0.539128 0.227212
Cu1   Cu    Cu3+1 0.509980 0.521810 0.644910 0.999232
Cu2   Cu    Cu3+1 0.490020 0.478190 0.355090 0.999953
H1    H     H_    0.491332 0.861019 0.372638 0.185332
H2    H     H_    0.593571 0.712482 0.854674 0.187293
H3    H     H_    0.602873 0.780368 0.052125 0.094781
H4    H     H_    0.371892 0.397080 0.091685 0.105994
H5    H     H_    0.395025 0.277618 0.169235 0.161914
H6    H     H_    0.368814 0.227238 0.979426 0.066345
H7    H     H_    0.039022 0.886342 0.102871 0.158630
H8    H     H_    0.065190 0.867054 0.271317 0.142832
H9    H     H_    0.995472 0.786796 0.166529 0.148856
H10   H     H_    0.984416 0.979145 0.381610 0.197986
H11   H     H_    0.958038 0.001048 0.213448 0.209859
H12   H     H_    0.515583 0.138364 0.625946 0.209535
H13   H     H_    0.054057 0.122375 0.237760 0.191566
H14   H     H_    0.075586 0.115975 0.417004 0.179319
H15   H     H_    0.978136 0.131740 0.881806 0.144048
H16   H     H_    0.910067 0.055422 0.893853 0.168294
H17   H     H_    0.970310 0.098818 0.042249 0.151822
H18   H     H_    0.956762 0.857434 0.891760 0.164394
H19   H     H_    0.025221 0.935461 0.887447 0.215472
H20   H     H_    0.981355 0.946263 0.643751 0.135183
H21   H     H_    0.915749 0.875475 0.659985 0.211594
H22   H     H_    0.117677 0.625935 0.111380 0.150985
H23   H     H_    0.918554 0.254609 0.660671 0.130430
H24   H     H_    0.182014 0.723756 0.112448 0.164197
H25   H     H_    0.160423 0.563925 0.969252 0.158500
H26   H     H_    0.243025 0.559145 0.153752 0.148598
H27   H     H_    0.179657 0.458092 0.147691 0.179322
H28   H     H_    0.153880 0.633995 0.359281 0.150491
H29   H     H_    0.215007 0.741153 0.376769 0.144875
H30   H     H_    0.811064 0.361283 0.958513 0.146333
H31   H     H_    0.756840 0.222805 0.909489 0.176508
H32   H     H_    0.740937 0.357840 0.856860 0.133905
H33   H     H_    0.694479 0.372773 0.067057 0.151671
H34   H     H_    0.979645 0.159871 0.627384 0.084245
H35   H     H_    0.750848 0.505982 0.122534 0.166758
H36   H     H_    0.818098 0.381167 0.218925 0.171077
H37   H     H_    0.764549 0.248711 0.175673 0.167436
H38   H     H_    0.381609 0.958204 0.512554 0.141210
H39   H     H_    0.305203 0.954877 0.450714 0.150946
H40   H     H_    0.336161 0.042738 0.641325 0.153712
H41   H     H_    0.281603 0.834012 0.604207 0.198042
H42   H     H_    0.356798 0.834099 0.667206 0.148289
H43   H     H_    0.373879 0.698084 0.429657 0.159540
H44   H     H_    0.308527 0.717753 0.335072 0.139527
H45   H     H_    0.907313 0.079712 0.587932 0.155524
H46   H     H_    0.581139 0.054853 0.178228 0.206400
H47   H     H_    0.652697 0.004065 0.171880 0.140910
H48   H     H_    0.612989 0.988924 0.308633 0.179414
H49   H     H_    0.691243 0.180039 0.407627 0.190820
H50   H     H_    0.620250 0.225990 0.435130 0.163449
H51   H     H_    0.610731 0.296676 0.226442 0.179490
H52   H     H_    0.672048 0.226298 0.169456 0.150880
H53   H     H_    0.327173 0.241305 0.325879 0.089478
H54   H     H_    0.274035 0.153456 0.383446 0.170112
H55   H     H_    0.349815 0.137140 0.417411 0.104384
H56   H     H_    0.114326 0.824098 0.494889 0.115330
H57   H     H_    0.670636 0.515421 0.816392 0.117217
H58   H     H_    0.687628 0.679453 0.951421 0.110064
H59   H     H_    0.744418 0.591311 0.882171 0.131867
H60   H     H_    0.236674 0.494177 0.824230 0.104616
H61   H     H_    0.280793 0.358821 0.787745 0.141809
H62   H     H_    0.208487 0.338648 0.819039 0.129748
H63   H     H_    0.888984 0.599139 0.772579 0.128069
H64   H     H_    0.827230 0.492518 0.770412 0.095067
H65   H     H_    0.849469 0.646737 0.920252 0.132322
H66   H     H_    0.443259 0.030380 0.760358 0.116369
H67   H     H_    0.127715 0.985707 0.634042 0.158588
H68   H     H_    0.491616 0.060465 0.927637 0.193802
H69   H     H_    0.460418 0.896267 0.817594 0.131065
H70   H     H_    0.403279 0.084144 0.208787 0.099102
H71   H     H_    0.402705 0.946970 0.268369 0.096122
H72   H     H_    0.417151 0.926456 0.089644 0.148250
H73   H     H_    0.403646 0.407416 0.830031 0.112845
H74   H     H_    0.408509 0.234648 0.779731 0.126178
H75   H     H_    0.419637 0.303909 0.653897 0.202268
H76   H     H_    0.638483 0.639317 0.247781 0.147480
H77   H     H_    0.616727 0.576061 0.052623 0.079019
H78   H     H_    0.057060 0.928700 0.527930 0.085514
H79   H     H_    0.611684 0.469948 0.150381 0.109581
H80   H     H_    0.558377 0.851356 0.948018 0.158991
N1    N     N_R   0.851733 0.503502 0.480760 -0.397858
N2    N     N_R   0.147876 0.495916 0.506907 -0.381141
N3    N     N_2   0.475010 0.445410 0.137370 -0.054105
N4    N     N_2   0.524990 0.554590 0.862630 -0.077859
O1    O     O_R   0.505330 0.332340 0.577400 -0.514950
O2    O     O_2   0.134706 0.274894 0.354580 -0.515558
O3    O     O_2   0.839844 0.283863 0.452922 -0.472486
O4    O     O_2   0.164964 0.714648 0.670774 -0.477872
O5    O     O_3   0.926464 0.157897 0.439875 -0.532960
O6    O     O_3   0.080997 0.853677 0.688236 -0.537624
O7    O     O_3   0.522621 0.679873 0.951727 -0.496157
O8    O     O_3   0.450731 0.324307 0.047470 -0.509389
O9    O     O_3   0.325262 0.308071 0.553328 -0.609502
O10   O     O_3   0.693977 0.661193 0.741021 -0.530608
O11   O     O_3   0.214652 0.341850 0.616640 -0.519543
O12   O     O_R   0.494670 0.667660 0.422600 -0.502263
O13   O     O_3   0.810036 0.665532 0.732226 -0.519760
O14   O     O_3   0.525791 0.974480 0.740453 -0.575979
O15   O     O_3   0.483754 0.026023 0.258188 -0.575188
O16   O     O_3   0.487712 0.341989 0.822546 -0.578002
O17   O     O_3   0.550464 0.604372 0.178314 -0.536763
O18   O     O_R   0.488470 0.295500 0.332650 -0.469186
O19   O     O_R   0.511530 0.704500 0.667350 -0.482402
O20   O     O_R   0.426310 0.518390 0.622390 -0.490795
O21   O     O_R   0.573690 0.481610 0.377610 -0.490549
O22   O     O_R   0.409450 0.481550 0.377650 -0.545280
O23   O     O_R   0.590550 0.518450 0.622350 -0.495867
O24   O     O_2   0.860278 0.713794 0.480387 -0.501530

loop_
_geom_bond_atom_site_label_1
_geom_bond_atom_site_label_2
_ccdc_geom_bond_type
C62   O16   S    
C55   H53   S    
C35   H6    S    
C34   C56   A    
C47   H33   S    
C27   C29   A    
C32   H56   S    
C17   N2    A    
C62   H75   S    
C2    C65   A    
C19   N2    A    
C38   H8    S    
C53   C54   S    
C58   H60   S    
C37   H11   S    
C29   C36   S    
C59   H63   S    
C23   C42   S    
C23   C45   A    
C17   C26   A    
C40   H19   S    
C36   C37   S    
C19   C21   A    
C24   C26   A    
C57   H57   S    
C53   H49   S    
C61   H70   S    
C63   O17   S    
C32   H78   S    
C17   O2    S    
C58   H61   S    
C56   C65   A    
C41   H15   S    
C46   H37   S    
C1    O18   A    
C50   H42   S    
C43   H26   S    
C4    O13   S    
C40   H18   S    
C35   O8    S    
C44   H25   S    
C6    N1    S    
Cu2   O18   S    
C57   O10   S    
Cu1   O23   S    
C51   H40   S    
C22   C25   A    
C54   H48   S    
C43   H27   S    
C63   H76   S    
C25   C30   A    
C16   N1    A    
C34   C46   S    
C18   N1    A    
C9    C10   S    
C60   H68   S    
C59   O13   S    
C3    O11   S    
C60   H69   S    
C49   H43   S    
C16   O24   S    
Cu1   O1    S    
N4    O7    S    
C19   O4    S    
C2    O10   S    
C39   H20   S    
C62   H74   S    
C58   O11   S    
C63   H79   S    
C12   O19   A    
C32   O6    S    
C38   H7    S    
Cu2   O12   S    
C48   H32   S    
C55   H55   S    
C59   H64   S    
C47   H35   S    
C15   O21   A    
Cu1   Cu2   S    
C31   H34   S    
C31   H45   S    
C55   O9    S    
C4    C6    A    
C42   H29   S    
C36   H14   S    
C57   H58   S    
Cu2   O22   S    
C53   H50   S    
C61   H71   S    
C13   O16   S    
Cu1   O19   S    
C41   H16   S    
C46   H36   S    
C59   H65   S    
C50   H41   S    
C60   O14   S    
C5    N2    S    
C6    C34   A    
C66   O9    S    
C61   O15   S    
C9    H12   S    
C64   C66   A    
C2    C4    A    
C43   C44   S    
C52   H51   S    
C37   C38   S    
C33   H80   S    
C12   O12   A    
C47   C48   S    
C5    C23   A    
C45   C49   S    
C36   H13   S    
C8    C12   S    
C14   C64   S    
C54   H47   S    
C28   O6    S    
C50   C51   S    
C1    O1    A    
C31   O5    S    
C8    O14   S    
C33   H2    S    
C49   H44   S    
C52   H52   S    
C14   O20   A    
C40   C41   S    
C38   H9    S    
C21   C28   A    
C20   C22   A    
C35   H4    S    
C11   O17   S    
C31   H23   S    
C22   C24   A    
C3    C66   A    
C42   C43   S    
C62   H73   S    
C60   H66   S    
C39   C40   S    
C44   H22   S    
C52   C53   S    
C11   N3    D    
C16   C25   A    
C7    C9    D    
C48   H31   S    
C7    O15   S    
C46   C47   S    
C35   H5    S    
Cu1   N4    S    
C1    C7    S    
C8    C10   D    
C13   N4    D    
C3    C5    A    
C44   H24   S    
C57   H59   S    
C32   H67   S    
Cu2   O21   S    
C61   H72   S    
C20   C27   A    
Cu1   O20   S    
C27   O5    S    
C41   H17   S    
C37   H10   S    
C45   C64   A    
C15   O23   A    
C42   H28   S    
N3    O8    S    
C28   C30   A    
C14   O22   A    
Cu2   N3    S    
C11   C13   S    
C58   H62   S    
C51   H38   S    
C54   H46   S    
C39   H21   S    
C30   C39   S    
C18   C20   A    
C48   H30   S    
C55   H54   S    
C33   H3    S    
C10   H1    S    
C52   C56   S    
C26   C29   A    
C51   H39   S    
C49   C50   S    
C21   C24   A    
C63   H77   S    
C18   O3    S    
C33   O7    S    
C15   C65   S    
