data_mof_unit_51323.cif
_audit_creation_date              2013-03-05T15:41:28-0500
_audit_creation_method            fapswitch 2.2
_symmetry_space_group_name_H-M    P1
_symmetry_Int_Tables_number       1
_space_group_crystal_system       triclinic
_cell_length_a                    16.858931
_cell_length_b                    7.237337
_cell_length_c                    17.282847
_cell_angle_alpha                 90.001369
_cell_angle_beta                  99.309846
_cell_angle_gamma                 89.995383
_cell_volume                      2080.96868964

loop_
_atom_site_label
_atom_site_type_symbol
_atom_site_description
_atom_site_fract_x
_atom_site_fract_y
_atom_site_fract_z
_atom_type_partial_charge
O1    O     O_R   0.414560 0.494370 0.416770 -0.502382
O2    O     O_R   0.585440 0.994370 0.583230 -0.502450
O3    O     O_R   0.578370 0.819590 0.429320 -0.546703
O4    O     O_R   0.421630 0.319590 0.570680 -0.546614
C1    C     C_R   0.603736 0.655560 0.412721 0.870793
C2    C     C_R   0.396250 0.155587 0.587267 0.870823
O5    O     O_R   0.414740 0.823790 0.407360 -0.554628
O6    O     O_R   0.585260 0.323790 0.592640 -0.554613
O7    O     O_R   0.420650 0.998510 0.561120 -0.547829
O8    O     O_R   0.579350 0.498510 0.438880 -0.547890
C3    C     C_R   0.390847 0.653005 0.382492 0.788076
C4    C     C_R   0.609160 0.153004 0.617505 0.787903
O9    O     O_3   0.502130 0.662240 0.550470 -0.261757
O10   O     O_3   0.497870 0.162240 0.449530 -0.261869
V1    V     V_3+5 0.499600 0.935390 0.490640 1.279301
V2    V     V_3+5 0.500400 0.435390 0.509360 1.279340
C5    C     C_2   0.772745 0.271922 0.798128 0.174681
C6    C     C_2   0.227291 0.771877 0.201835 0.174487
C7    C     C_2   0.827972 0.129613 0.811422 0.044815
C8    C     C_2   0.172052 0.629594 0.188557 0.044984
C9    C     C_2   0.696098 0.273198 0.738073 0.108186
C10   C     C_2   0.303937 0.773152 0.261896 0.108264
C11   C     C_2   0.668999 0.128815 0.691475 0.135021
C12   C     C_2   0.331026 0.628793 0.308514 0.135150
C13   C     C_R   0.332995 0.150766 0.638468 -0.170089
C14   C     C_R   0.667004 0.650623 0.361540 -0.170090
C15   C     C_R   0.168654 0.114533 0.864024 -0.260669
C16   C     C_R   0.831359 0.614746 0.135999 -0.260782
C17   C     C_R   0.305356 0.033133 0.846219 0.315193
C18   C     C_R   0.694381 0.535196 0.153534 0.315055
C19   C     C_R   0.243024 0.030465 0.891517 0.238376
C20   C     C_R   0.756760 0.531971 0.108289 0.237681
C21   C     C_R   0.157167 0.201788 0.790042 0.296311
C22   C     C_R   0.843009 0.701258 0.210151 0.296122
C23   C     C_R   0.214106 0.175280 0.737882 -0.101340
C24   C     C_R   0.785995 0.674836 0.262234 -0.101398
C25   C     C_R   0.290590 0.093858 0.766703 -0.116560
C26   C     C_R   0.709312 0.594711 0.233201 -0.116612
C27   C     C_R   0.348520 0.073866 0.714639 0.144325
C28   C     C_R   0.651338 0.574707 0.285203 0.144348
C29   C     C_R   0.256785 0.225303 0.610291 0.091479
C30   C     C_R   0.743411 0.723799 0.389936 0.091137
C31   C     C_R   0.195744 0.223739 0.657144 0.250837
C32   C     C_R   0.804464 0.722075 0.343094 0.251084
O11   O     O_R   0.920750 0.773600 0.061260 -0.525061
O12   O     O_R   0.079250 0.273600 0.938740 -0.524686
O13   O     O_R   0.085340 0.439850 0.092570 -0.539407
O14   O     O_R   0.914660 0.939850 0.907430 -0.539362
C33   C     C_R   0.111448 0.611013 0.115517 0.873788
C34   C     C_R   0.888560 0.111020 0.884475 0.873109
O15   O     O_R   0.921720 0.444130 0.070790 -0.531142
O16   O     O_R   0.078280 0.944130 0.929210 -0.530781
O17   O     O_R   0.914480 0.269530 0.916840 -0.540461
O18   O     O_R   0.085520 0.769530 0.083160 -0.540346
C35   C     C_R   0.895691 0.611957 0.085885 0.911704
C36   C     C_R   0.104320 0.111924 0.914131 0.911324
O19   O     O_3   0.997840 0.601520 0.949550 -0.265877
O20   O     O_3   0.002160 0.101520 0.050450 -0.266340
V3    V     V_3+5 0.000400 0.328340 0.009360 1.328960
V4    V     V_3+5 0.999600 0.828340 0.990640 1.329171
I1    I     I_    0.803160 0.542840 0.845455 -0.054501
I2    I     I_    0.196954 0.042779 0.154375 -0.054997
N1    N     N_R   0.093763 0.335329 0.772675 0.113391
O21   O     O_R   0.019712 0.291497 0.776728 -0.344904
O22   O     O_R   0.111028 0.505408 0.757385 -0.305694
N2    N     N_R   0.906631 0.834174 0.227782 0.113350
O23   O     O_R   0.980571 0.790099 0.223316 -0.345384
O24   O     O_R   0.889662 0.004044 0.243764 -0.305665
I3    I     I_    0.865904 0.984850 0.716497 -0.140481
I4    I     I_    0.134195 0.484613 0.283471 -0.139931
I5    I     I_    0.603522 0.463959 0.758288 -0.025562
I6    I     I_    0.396520 0.963949 0.241726 -0.025757
N3    N     N_R   0.682405 0.944180 0.722482 0.093651
O25   O     O_R   0.677982 0.912147 0.795794 -0.285330
O26   O     O_R   0.689072 0.804913 0.676353 -0.286454
N4    N     N_R   0.317632 0.444127 0.277534 0.093662
O27   O     O_R   0.322033 0.412027 0.204221 -0.285487
O28   O     O_R   0.310957 0.304906 0.323683 -0.286509
I7    I     I_    0.457766 0.914959 0.741344 -0.130890
I8    I     I_    0.541983 0.416400 0.258223 -0.131242
I9    I     I_    0.233118 0.332551 0.493443 -0.207615
I10   I     I_    0.767318 0.828878 0.507108 -0.207011
N5    N     N_R   0.384460 0.986856 0.884848 0.137261
O29   O     O_R   0.399261 0.822310 0.914103 -0.204091
O30   O     O_R   0.436742 0.118116 0.903941 -0.215707
N6    N     N_R   0.615078 0.491231 0.114719 0.137340
O31   O     O_R   0.599588 0.327725 0.084610 -0.203047
O32   O     O_R   0.563200 0.623751 0.096560 -0.216506
I11   I     I_    0.073534 0.249324 0.597672 -0.089695
I12   I     I_    0.926738 0.745397 0.402604 -0.089587
N7    N     N_R   0.258915 0.958225 0.969701 0.105704
O33   O     O_R   0.231140 0.796532 0.984400 -0.318711
O34   O     O_R   0.313532 0.035540 0.021416 -0.227325
N8    N     N_R   0.740742 0.460616 0.029967 0.105677
O35   O     O_R   0.768017 0.298581 0.015014 -0.318887
O36   O     O_R   0.686476 0.539274 0.978332 -0.227151

loop_
_geom_bond_atom_site_label_1
_geom_bond_atom_site_label_2
_geom_bond_distance
_ccdc_geom_bond_type
N2    O24   1.301948 A    
N1    O22   1.301800 A    
O11   V4    1.984632 S    
O12   V3    1.984580 S    
N3    O26   1.301173 A    
N3    O25   1.302027 A    
C20   N8    1.433043 S    
O1    C3    1.323718 A    
O2    C4    1.323749 A    
C22   N2    1.436336 S    
C2    O7    1.313706 A    
O17   V3    2.021600 S    
O3    V1    2.011014 S    
O13   C33   1.352453 A    
O18   V4    2.021568 S    
C15   C21   1.411054 A    
O5    C3    1.348623 A    
C4    C11   1.505132 S    
C31   I11   2.156489 S    
C9    I5    2.154083 S    
C23   C25   1.431817 A    
N4    O28   1.301201 A    
C17   N5    1.431191 S    
C21   C23   1.432086 A    
N6    O32   1.301677 A    
C2    C13   1.492259 S    
C33   O18   1.319400 A    
C3    C12   1.505094 S    
C18   C26   1.425668 A    
O16   V4    2.011170 S    
C5    I1    2.154246 S    
C30   I10   2.139516 S    
C28   I8    2.156666 S    
C18   N6    1.431304 S    
C23   C31   1.423435 A    
C6    C8    1.382504 D    
O6    C4    1.348602 A    
O14   C34   1.352446 A    
N2    O23   1.301036 A    
C16   C22   1.411206 A    
O6    V2    2.025928 S    
C29   C31   1.408701 A    
C8    I4    2.130279 S    
C30   C32   1.408758 A    
C11   N3    1.443835 S    
C10   I6    2.154283 S    
C16   C35   1.493576 S    
O14   V4    2.025743 S    
C34   O17   1.319409 A    
C15   C19   1.405384 A    
C18   C20   1.408555 A    
C16   C20   1.405404 A    
N4    O27   1.302045 A    
O4    C2    1.309151 A    
C13   C29   1.405839 A    
N7    O33   1.300703 A    
N6    O31   1.302060 A    
C6    I2    2.154652 S    
O19   V4    1.786922 S    
O15   C35   1.331496 A    
O20   V3    1.786949 S    
C5    C9    1.520920 S    
C1    C14   1.492209 S    
C27   I7    2.156946 S    
O4    V2    2.011126 S    
C8    C33   1.496077 S    
N7    O34   1.301374 A    
N5    O29   1.302016 A    
C21   N1    1.436252 S    
C29   I9    2.139928 S    
O1    V2    2.021851 S    
C15   C36   1.493507 S    
N8    O36   1.301244 A    
O2    V1    2.021882 S    
N5    O30   1.301631 A    
C19   N7    1.433138 S    
C9    C11   1.352855 D    
C10   C12   1.352841 D    
C7    I3    2.130113 S    
O15   V3    2.011060 S    
C17   C25   1.425847 A    
C32   I12   2.156346 S    
C14   C30   1.405759 A    
C6    C10   1.520958 S    
C12   N4    1.443878 S    
O3    C1    1.309227 A    
C24   C26   1.431627 A    
O7    V1    1.997119 S    
C1    O8    1.313606 A    
C17   C19   1.408433 A    
O8    V2    1.997178 S    
C13   C27   1.414155 A    
C26   C28   1.438131 A    
C7    C34   1.496093 S    
C14   C28   1.414027 A    
O5    V1    2.025992 S    
C5    C7    1.382411 D    
C22   C24   1.432035 A    
N8    O35   1.300697 A    
C24   C32   1.423390 A    
O13   V3    2.025808 S    
N1    O21   1.300945 A    
O11   C35   1.336592 A    
C25   C27   1.438302 A    
O9    V2    1.787283 S    
O12   C36   1.336689 A    
O10   V1    1.787310 S    
O16   C36   1.331346 A    
