data_mof_unit_10668.cif
_audit_creation_date              2012-12-10T18:53:44-0500
_audit_creation_method            fapswitch 2.2
_symmetry_space_group_name_H-M    P1
_symmetry_Int_Tables_number       1
_space_group_crystal_system       triclinic
_cell_length_a                    10.673134
_cell_length_b                    9.89863
_cell_length_c                    19.213757
_cell_angle_alpha                 89.839806
_cell_angle_beta                  91.537027
_cell_angle_gamma                 90.812784
_cell_volume                      2028.9815229

loop_
_atom_site_label
_atom_site_type_symbol
_atom_type_description
_atom_site_fract_x
_atom_site_fract_y
_atom_site_fract_z
_atom_type_partial_charge
C1    C     C_R   0.260661 0.498880 0.498187 0.924728
C2    C     C_R   0.060642 0.532223 0.437757 -0.085416
C3    C     C_R   0.872353 0.504753 0.502792 -0.161718
C4    C     C_R   0.128071 0.495394 0.498482 -0.202625
C5    C     C_R   0.592912 0.073278 0.534473 0.386964
C6    C     C_R   0.409996 0.926215 0.463107 0.346006
C7    C     C_R   0.406413 0.071237 0.465866 0.335359
C8    C     C_R   0.594309 0.929114 0.533381 0.375371
C9    C     C_R   0.523631 0.619591 0.253607 -0.241091
C10   C     C_R   0.476784 0.377508 0.745940 -0.253456
C11   C     C_R   0.509172 0.619961 0.746964 -0.172033
C12   C     C_R   0.739483 0.501106 0.502303 0.912964
C13   C     C_R   0.485965 0.377667 0.253982 -0.166657
C14   C     C_R   0.522662 0.621352 0.181201 -0.023622
C15   C     C_R   0.476309 0.374295 0.818322 -0.009510
C16   C     C_R   0.509872 0.621167 0.819334 -0.024451
C17   C     C_R   0.486799 0.374628 0.181555 -0.030980
C18   C     C_R   0.504305 0.497673 0.145074 -0.083467
C19   C     C_R   0.494011 0.497131 0.855186 -0.087994
C20   C     C_R   0.504239 0.499198 0.289941 -0.077012
C21   C     C_R   0.494638 0.499066 0.710219 -0.026775
C22   C     C_2   0.146622 0.430993 0.624646 0.953825
C23   C     C_R   0.496850 0.496073 0.930385 0.399104
C24   C     C_2   0.855612 0.576120 0.377122 0.935805
C25   C     C_2   0.876439 0.433482 0.629995 0.936030
C26   C     C_2   0.125313 0.561225 0.371615 0.955723
C27   C     C_2   0.537913 0.754748 0.145883 0.940311
C28   C     C_2   0.459446 0.240486 0.852874 0.913505
C29   C     C_2   0.526095 0.754125 0.854966 0.924983
C30   C     C_2   0.471673 0.241196 0.146120 0.923482
C31   C     C_3   0.667953 0.154756 0.638991 -0.169553
C32   C     C_3   0.346199 0.881146 0.351031 -0.094606
C33   C     C_3   0.197811 0.118755 0.462469 -0.117001
C34   C     C_R   0.501790 0.497114 0.069893 0.409288
C35   C     C_3   0.698705 0.838204 0.628175 -0.112400
C36   C     C_R   0.501714 0.500017 0.365637 0.914477
C37   C     C_R   0.497881 0.499762 0.634420 0.905331
C38   C     C_R   0.070144 0.462937 0.561185 -0.105772
C39   C     C_R   0.930792 0.538863 0.440330 -0.091427
C40   C     C_R   0.940000 0.467044 0.563730 -0.067087
H1    H     H_    0.537368 0.713200 0.281843 0.179563
H2    H     H_    0.384900 0.052072 0.846950 0.371754
H3    H     H_    0.599254 0.943284 0.851907 0.367619
H4    H     H_    0.509434 0.123599 0.063778 0.383014
H5    H     H_    0.743765 0.103891 0.668967 0.177592
H6    H     H_    0.575452 0.114225 0.655907 0.101808
H7    H     H_    0.673792 0.261919 0.654282 0.202903
H8    H     H_    0.316564 0.791717 0.319819 0.191983
H9    H     H_    0.446626 0.901877 0.339628 0.128006
H10   H     H_    0.288096 0.967204 0.333055 0.209354
H11   H     H_    0.205290 0.129847 0.520124 0.178622
H12   H     H_    0.464475 0.284141 0.717306 0.175394
H13   H     H_    0.157833 0.017978 0.448609 0.190614
H14   H     H_    0.130501 0.195288 0.442856 0.197927
H15   H     H_    0.700932 0.728348 0.637337 0.223711
H16   H     H_    0.616259 0.879292 0.654994 0.095606
H17   H     H_    0.785698 0.880323 0.652917 0.180611
H18   H     H_    0.518273 0.714356 0.719170 0.167718
H19   H     H_    0.471938 0.284282 0.282513 0.204516
H20   H     H_    0.249177 0.292977 0.677014 0.356427
H21   H     H_    0.750759 0.716661 0.328056 0.352569
H22   H     H_    0.873299 0.319370 0.717274 0.343366
H23   H     H_    0.242912 0.496531 0.299243 0.341161
H24   H     H_    0.606995 0.945489 0.151483 0.370950
N1    N     N_R   0.500000 0.857200 0.500000 -0.192485
N2    N     N_R   0.500000 0.142800 0.500000 -0.192499
N3    N     N_R   0.394246 0.465238 0.034318 -0.112895
N4    N     N_R   0.604419 0.527811 0.965962 -0.113123
N5    N     N_R   0.391771 0.464800 0.965268 -0.104758
N6    N     N_R   0.606895 0.528261 0.035006 -0.102069
O1    O     O_R   0.316770 0.614620 0.500000 -0.576434
O2    O     O_R   0.206444 0.306690 0.629907 -0.785156
O3    O     O_2   0.850183 0.500110 0.327051 -0.602399
O4    O     O_R   0.794103 0.699723 0.374732 -0.740252
O5    O     O_2   0.787385 0.499383 0.648285 -0.696089
O6    O     O_R   0.920400 0.328131 0.672318 -0.767492
O7    O     O_2   0.100984 0.663512 0.338355 -0.591804
O8    O     O_R   0.210976 0.469158 0.346501 -0.795218
O9    O     O_2   0.491728 0.774622 0.087895 -0.567141
O10   O     O_R   0.602850 0.859725 0.180331 -0.786354
O11   O     O_2   0.506322 0.218447 0.910481 -0.588438
O12   O     O_R   0.683230 0.385380 0.500000 -0.575798
O13   O     O_R   0.391460 0.137865 0.818263 -0.796268
O14   O     O_2   0.479772 0.774022 0.911488 -0.566955
O15   O     O_R   0.592939 0.858307 0.822625 -0.816725
O16   O     O_2   0.412899 0.149788 0.173950 -0.606267
O17   O     O_R   0.526918 0.218133 0.082115 -0.757467
O18   O     O_3   0.690190 0.144053 0.566958 -0.542191
O19   O     O_3   0.325300 0.853071 0.422006 -0.577217
O20   O     O_3   0.313750 0.141834 0.430394 -0.566209
O21   O     O_3   0.701058 0.862901 0.555887 -0.539654
O22   O     O_R   0.683230 0.614620 0.500000 -0.535188
O23   O     O_R   0.316770 0.385380 0.500000 -0.554795
O24   O     O_R   0.499990 0.614700 0.398140 -0.603057
O25   O     O_R   0.500010 0.385300 0.601860 -0.622662
O26   O     O_R   0.500010 0.614700 0.601860 -0.636399
O27   O     O_R   0.499990 0.385300 0.398140 -0.579713
O28   O     O_2   0.154298 0.511985 0.672552 -0.603466
Zn1   Zn    Zn3+2 0.500000 0.653120 0.500000 1.053425
Zn2   Zn    Zn3+2 0.500000 0.346880 0.500000 1.059820

loop_
_geom_bond_atom_site_label_1
_geom_bond_atom_site_label_2
_ccdc_geom_bond_type
C22   O28   D    
H24   O10   S    
C23   N5    A    
C19   C23   S    
C10   H12   S    
C15   C19   A    
C26   O8    S    
C27   O9    D    
C10   C15   A    
C25   C40   S    
C24   O3    D    
H20   O2    S    
C22   C38   S    
O26   Zn1   S    
C24   C39   S    
C37   O25   A    
N2    Zn2   S    
C14   C18   A    
C3    C12   S    
C5    O18   S    
C2    C39   A    
C6    N1    A    
C31   H6    S    
C36   O27   A    
C14   C27   S    
C30   O16   D    
H4    O17   S    
C34   N6    A    
C29   O15   S    
C28   O11   D    
C3    C39   A    
C8    N1    A    
C31   H7    S    
C28   O13   S    
C17   C30   S    
C32   H8    S    
H22   O6    S    
C22   O2    S    
C10   C21   A    
C33   H13   S    
C26   O7    D    
C35   H15   S    
H3    O15   S    
N1    Zn1   S    
C29   O14   D    
C27   O10   S    
O25   Zn2   S    
C16   C29   S    
C7    O20   S    
O1    Zn1   S    
C11   C21   A    
C37   O26   A    
N3    N5    A    
C23   N4    A    
C2    C4    A    
C9    C14   A    
C11   C16   A    
C9    C20   A    
C32   O19   S    
C17   C18   A    
C12   O12   A    
C2    C26   S    
C8    O21   S    
C1    O1    A    
C18   C34   S    
O23   Zn2   S    
C32   H10   S    
C1    O23   A    
C4    C38   A    
C3    C40   A    
C11   H18   S    
O27   Zn2   S    
C33   H14   S    
C31   O18   S    
C13   C20   A    
C35   H16   S    
O12   Zn2   S    
C12   O22   A    
H2    O13   S    
C5    N2    A    
C34   N3    A    
C5    C8    A    
C6    C7    A    
C13   H19   S    
H21   O4    S    
C33   H11   S    
C6    O19   S    
C9    H1    S    
C13   C17   A    
C35   H17   S    
C25   O6    S    
C1    C4    S    
C33   O20   S    
C7    N2    A    
C38   C40   A    
C24   O4    S    
C15   C28   S    
O24   Zn1   S    
C16   C19   A    
C32   H9    S    
C20   C36   S    
C36   O24   A    
C21   C37   S    
N4    N6    A    
C31   H5    S    
C25   O5    D    
C30   O17   S    
O22   Zn1   S    
H23   O8    S    
C35   O21   S    
