data_mof_unit_37257.cif
_audit_creation_date              2012-12-11T16:48:37-0500
_audit_creation_method            fapswitch 2.2
_symmetry_space_group_name_H-M    P1
_symmetry_Int_Tables_number       1
_space_group_crystal_system       triclinic
_cell_length_a                    17.439475
_cell_length_b                    24.474471
_cell_length_c                    15.043227
_cell_angle_alpha                 90.031624
_cell_angle_beta                  125.873785
_cell_angle_gamma                 90.359254
_cell_volume                      5202.64747288

loop_
_atom_site_label
_atom_site_type_symbol
_atom_type_description
_atom_site_fract_x
_atom_site_fract_y
_atom_site_fract_z
_atom_type_partial_charge
C1    C     C_R   0.330181 0.357300 0.907034 0.368787
C2    C     C_R   0.636092 0.345168 0.087870 0.446801
C3    C     C_R   0.830187 0.857296 0.907035 0.368791
C4    C     C_R   0.136086 0.845168 0.087869 0.446920
C5    C     C_R   0.320787 0.645727 0.999084 -0.063345
C6    C     C_R   0.607221 0.685619 0.998342 -0.076545
C7    C     C_R   0.820764 0.145701 0.999081 -0.063529
C8    C     C_R   0.107219 0.185619 0.998343 -0.076587
C9    C     C_R   0.567441 0.498265 0.367077 -0.283743
C10   C     C_R   0.544934 0.499945 0.719748 -0.210832
C11   C     C_R   0.067437 0.998265 0.367075 -0.283743
C12   C     C_R   0.044940 0.999946 0.719755 -0.210792
C13   C     C_R   0.206442 0.499523 0.628605 -0.206733
C14   C     C_R   0.826261 0.502779 0.296921 -0.172583
C15   C     C_R   0.706445 0.999521 0.628603 -0.206757
C16   C     C_R   0.326261 0.002778 0.296920 -0.172571
C17   C     C_2   0.981814 0.472289 0.358243 0.533718
C18   C     C_2   0.076116 0.460401 0.454759 0.564113
C19   C     C_2   0.481814 0.972287 0.358241 0.533696
C20   C     C_2   0.576116 0.960399 0.454759 0.564099
C21   C     C_2   0.928196 0.505829 0.370673 0.557410
C22   C     C_2   0.138058 0.501530 0.509263 0.611519
C23   C     C_2   0.428197 0.005828 0.370671 0.557398
C24   C     C_2   0.638060 0.001527 0.509260 0.611531
C25   C     C_R   0.228148 0.682379 0.058313 0.017095
C26   C     C_R   0.605662 0.762563 0.890370 0.003790
C27   C     C_R   0.728359 0.182436 0.058564 0.017049
C28   C     C_R   0.105656 0.262566 0.890372 0.003778
C29   C     C_R   0.267560 0.688539 0.000931 -0.307812
C30   C     C_R   0.626057 0.743105 0.989804 -0.219279
C31   C     C_R   0.767536 0.188520 0.000912 -0.307782
C32   C     C_R   0.126054 0.243106 0.989806 -0.219363
C33   C     C_R   0.265752 0.739214 0.956714 0.747754
C34   C     C_R   0.688190 0.775187 0.083612 0.721963
C35   C     C_R   0.765521 0.239147 0.956408 0.747705
C36   C     C_R   0.188188 0.275188 0.083615 0.721915
C37   C     C_R   0.711413 0.280529 0.954924 0.642019
C38   C     C_R   0.251606 0.310855 0.083996 0.635752
C39   C     C_R   0.211648 0.780595 0.955248 0.641978
C40   C     C_R   0.751610 0.810853 0.083994 0.635690
C41   C     C_R   0.659234 0.270889 0.997626 -0.233780
C42   C     C_R   0.253897 0.312984 0.991331 -0.202905
C43   C     C_R   0.159258 0.770900 0.997661 -0.233746
C44   C     C_R   0.753903 0.812981 0.991331 -0.202924
C45   C     C_R   0.405908 0.628682 0.091262 -0.104899
C46   C     C_R   0.547903 0.652514 0.909724 -0.149893
C47   C     C_R   0.905894 0.128667 0.091260 -0.105074
C48   C     C_R   0.047902 0.152514 0.909725 -0.149888
C49   C     C_R   0.674084 0.223550 0.056757 0.158811
C50   C     C_R   0.171188 0.295187 0.892013 -0.020518
C51   C     C_R   0.173871 0.723492 0.056515 0.158876
C52   C     C_R   0.671196 0.795183 0.892013 -0.020535
C53   C     C_3   0.603386 0.184308 0.046580 -0.407637
C54   C     C_3   0.150390 0.269978 0.789644 -0.292157
C55   C     C_3   0.102965 0.684258 0.045880 -0.407899
C56   C     C_3   0.650403 0.769973 0.789647 -0.292165
C57   C     C_3   0.162974 0.638821 0.047714 0.341735
C58   C     C_3   0.577457 0.735233 0.785708 0.319436
C59   C     C_3   0.663404 0.138868 0.048436 0.341680
C60   C     C_3   0.077447 0.235237 0.785706 0.319446
C61   C     C_R   0.546814 0.451049 0.581240 -0.038026
C62   C     C_R   0.560362 0.447761 0.500930 -0.017225
C63   C     C_R   0.046801 0.951052 0.581233 -0.038094
C64   C     C_R   0.060345 0.947764 0.500920 -0.017203
C65   C     C_R   0.575912 0.496541 0.649593 -0.119415
C66   C     C_R   0.593888 0.493613 0.477676 -0.183061
C67   C     C_R   0.075912 0.996543 0.649594 -0.119379
C68   C     C_R   0.093880 0.993614 0.477672 -0.183045
C69   C     C_R   0.629434 0.537458 0.643152 0.648595
C70   C     C_R   0.637975 0.536240 0.555951 0.716689
C71   C     C_R   0.129438 0.037457 0.643155 0.648623
C72   C     C_R   0.137975 0.036239 0.555951 0.716722
C73   C     C_3   0.471037 0.414581 0.428197 0.337919
C74   C     C_3   0.453551 0.421332 0.514826 0.240016
C75   C     C_3   0.971009 0.914592 0.428181 0.337915
C76   C     C_3   0.953529 0.921344 0.514815 0.239994
C77   C     C_R   0.553184 0.453841 0.303603 0.734873
C78   C     C_R   0.520587 0.454719 0.752989 0.723502
C79   C     C_R   0.053180 0.953841 0.303602 0.734846
C80   C     C_R   0.020591 0.954720 0.752993 0.723503
C81   C     C_R   0.248873 0.544635 0.694790 0.037320
C82   C     C_R   0.768006 0.547122 0.261527 -0.041209
C83   C     C_R   0.748877 0.044633 0.694785 0.037481
C84   C     C_R   0.268006 0.047122 0.261526 -0.041202
C85   C     C_R   0.548537 0.544164 0.303650 0.739868
C86   C     C_R   0.515030 0.545348 0.745963 0.752549
C87   C     C_R   0.048536 0.044164 0.303650 0.739965
C88   C     C_R   0.015033 0.045348 0.745967 0.752566
C89   C     C_R   0.255343 0.454454 0.691408 0.521838
C90   C     C_R   0.770625 0.455800 0.265171 0.525059
C91   C     C_R   0.755343 0.954453 0.691409 0.521820
C92   C     C_R   0.270625 0.955800 0.265169 0.525087
C93   C     C_R   0.314954 0.629485 0.907595 0.815091
C94   C     C_R   0.643963 0.652839 0.090197 0.782286
C95   C     C_R   0.814929 0.129452 0.907593 0.815263
C96   C     C_R   0.143962 0.152839 0.090198 0.782288
C97   C     C_R   0.415145 0.360333 0.089662 0.829907
C98   C     C_R   0.550188 0.346709 0.907994 0.974918
C99   C     C_R   0.915148 0.860331 0.089662 0.829893
C100  C     C_R   0.050202 0.846709 0.907996 0.974759
C101  C     C_R   0.334042 0.337496 0.996562 -0.180150
C102  C     C_R   0.604849 0.314253 0.996665 -0.243349
C103  C     C_R   0.834049 0.837492 0.996563 -0.180128
C104  C     C_R   0.104841 0.814251 0.996669 -0.243247
H1    H     H_    0.602391 0.185514 0.119770 0.270170
H2    H     H_    0.120622 0.299529 0.720962 0.273423
H3    H     H_    0.101761 0.685365 0.118930 0.269998
H4    H     H_    0.620637 0.799523 0.720964 0.273423
H5    H     H_    0.532704 0.187767 0.966628 0.202666
H6    H     H_    0.208193 0.243344 0.804688 0.226249
H7    H     H_    0.032383 0.687823 0.965831 0.202863
H8    H     H_    0.708208 0.743339 0.804696 0.226240
H9    H     H_    0.127535 0.615236 0.969709 0.109403
H10   H     H_    0.595323 0.691365 0.791562 0.160063
H11   H     H_    0.627874 0.115175 0.970551 0.109294
H12   H     H_    0.095311 0.191370 0.791556 0.160064
H13   H     H_    0.417551 0.433991 0.348068 0.122880
H14   H     H_    0.452462 0.382321 0.551761 0.234858
H15   H     H_    0.917527 0.934009 0.348057 0.122864
H16   H     H_    0.952431 0.882334 0.551744 0.234815
H17   H     H_    0.435210 0.638156 0.175654 0.237930
H18   H     H_    0.491884 0.665931 0.828343 0.228241
H19   H     H_    0.935195 0.138143 0.175651 0.238032
H20   H     H_    0.991881 0.165931 0.828344 0.228238
H21   H     H_    0.241233 0.586007 0.665699 0.248284
H22   H     H_    0.788743 0.589647 0.276861 0.228716
H23   H     H_    0.741243 0.086004 0.665690 0.248286
H24   H     H_    0.288743 0.089646 0.276861 0.228717
N1    N     N_R   0.395410 0.396350 0.944340 -0.157972
N2    N     N_R   0.604590 0.396350 0.055660 -0.164374
N3    N     N_R   0.895410 0.896350 0.944340 -0.157972
N4    N     N_R   0.104590 0.896350 0.055660 -0.164348
N5    N     N_R   0.449930 0.602500 0.055880 -0.099665
N6    N     N_R   0.550070 0.602500 0.944120 -0.105403
N7    N     N_R   0.949930 0.102500 0.055880 -0.099664
N8    N     N_R   0.050070 0.102500 0.944120 -0.105400
N9    N     N_R   0.525080 0.471030 0.205650 -0.182951
N10   N     N_R   0.474920 0.471030 0.794350 -0.159339
N11   N     N_R   0.025080 0.971030 0.205650 -0.182970
N12   N     N_R   0.974920 0.971030 0.794350 -0.159324
N13   N     N_R   0.320260 0.527820 0.794570 -0.122170
N14   N     N_R   0.679740 0.527820 0.205430 -0.098811
N15   N     N_R   0.820260 0.027820 0.794570 -0.122198
N16   N     N_R   0.179740 0.027820 0.205430 -0.098810
N17   N     N_R   0.524590 0.527840 0.205200 -0.181661
N18   N     N_R   0.475410 0.527840 0.794800 -0.179596
N19   N     N_R   0.024590 0.027840 0.205200 -0.181683
N20   N     N_R   0.975410 0.027840 0.794800 -0.179603
N21   N     N_R   0.320750 0.471000 0.795020 -0.121913
N22   N     N_R   0.679250 0.471000 0.204980 -0.109483
N23   N     N_R   0.820750 0.971000 0.795020 -0.121927
N24   N     N_R   0.179250 0.971000 0.204980 -0.109492
N25   N     N_R   0.393620 0.602490 0.942710 -0.142064
N26   N     N_R   0.606380 0.602490 0.057290 -0.141851
N27   N     N_R   0.893620 0.102490 0.942710 -0.142077
N28   N     N_R   0.106380 0.102490 0.057290 -0.141845
N29   N     N_R   0.451720 0.396350 0.057510 -0.175226
N30   N     N_R   0.548280 0.396350 0.942490 -0.174952
N31   N     N_R   0.951720 0.896350 0.057510 -0.175250
N32   N     N_R   0.048280 0.896350 0.942490 -0.174877
Ni1   Ni    Ni4+2 0.435420 0.434270 0.870230 0.323728
Ni2   Ni    Ni4+2 0.564580 0.434270 0.129770 0.334443
Ni3   Ni    Ni4+2 0.935420 0.934270 0.870230 0.323723
Ni4   Ni    Ni4+2 0.064580 0.934270 0.129770 0.334435
Ni5   Ni    Ni4+2 0.563430 0.564580 0.128740 0.314406
Ni6   Ni    Ni4+2 0.436570 0.564580 0.871260 0.259132
Ni7   Ni    Ni4+2 0.063430 0.064580 0.128740 0.314387
Ni8   Ni    Ni4+2 0.936570 0.064580 0.871260 0.259135
Cl1   Cl    Cl    0.312743 0.315499 0.802496 -0.482336
Cl2   Cl    Cl    0.644763 0.314495 0.199148 -0.393890
Cl3   Cl    Cl    0.812767 0.815491 0.802511 -0.482404
Cl4   Cl    Cl    0.144760 0.814491 0.199146 -0.393681
F1    F     F_    0.966706 0.538711 0.460654 -0.630317
F2    F     F_    0.123808 0.550398 0.458456 -0.619666
F3    F     F_    0.466708 0.038711 0.460651 -0.630294
F4    F     F_    0.623812 0.050394 0.458451 -0.619676
F5    F     F_    0.314876 0.748237 0.913758 -0.578046
F6    F     F_    0.692172 0.770170 0.175926 -0.518322
F7    F     F_    0.814468 0.248130 0.913216 -0.577914
F8    F     F_    0.192173 0.270169 0.175930 -0.518343
F9    F     F_    0.709189 0.329490 0.910929 -0.587415
F10   F     F_    0.310481 0.341393 0.175147 -0.583615
F11   F     F_    0.209615 0.829609 0.911532 -0.587613
F12   F     F_    0.810484 0.841391 0.175145 -0.583626
Cl5   Cl    Cl    0.219085 0.597850 0.168242 -0.468584
Cl6   Cl    Cl    0.459236 0.751849 0.673979 -0.359822
Cl7   Cl    Cl    0.719875 0.098069 0.169217 -0.468490
Cl8   Cl    Cl    0.959224 0.251855 0.673983 -0.359768
F13   F     F_    0.667042 0.579935 0.715138 -0.593016
F14   F     F_    0.683828 0.577716 0.545170 -0.535583
F15   F     F_    0.167053 0.079933 0.715145 -0.593006
F16   F     F_    0.183832 0.077713 0.545172 -0.535563
Cl9   Cl    Cl    0.495947 0.344936 0.418599 -0.238010
Cl10  Cl    Cl    0.354488 0.464475 0.469585 -0.500697
Cl11  Cl    Cl    0.995898 0.844945 0.418566 -0.238084
Cl12  Cl    Cl    0.854478 0.964498 0.469587 -0.500674
F17   F     F_    0.595361 0.404906 0.344371 -0.535386
F18   F     F_    0.542100 0.402630 0.747118 -0.612397
F19   F     F_    0.095355 0.904906 0.344371 -0.535387
F20   F     F_    0.042107 0.902632 0.747121 -0.612535
F21   F     F_    0.570933 0.596436 0.340223 -0.580472
F22   F     F_    0.515213 0.597704 0.717285 -0.637178
F23   F     F_    0.070932 0.096436 0.340223 -0.580425
F24   F     F_    0.015215 0.097705 0.717289 -0.637161
Cl13  Cl    Cl    0.280270 0.400682 0.634416 -0.369919
Cl14  Cl    Cl    0.815373 0.391415 0.322744 -0.382557
Cl15  Cl    Cl    0.780267 0.900677 0.634422 -0.369950
Cl16  Cl    Cl    0.315371 0.891414 0.322738 -0.382566
F25   F     F_    0.248584 0.644401 0.802495 -0.643224
F26   F     F_    0.688407 0.670486 0.194836 -0.595044
F27   F     F_    0.748531 0.144345 0.802486 -0.643111
F28   F     F_    0.188406 0.170485 0.194837 -0.595043
F29   F     F_    0.459818 0.342988 0.194050 -0.532351
F30   F     F_    0.486594 0.327417 0.804778 -0.547172
F31   F     F_    0.959824 0.842984 0.194050 -0.532321
F32   F     F_    0.986612 0.827415 0.804781 -0.547299
F33   F     F_    0.942849 0.439051 0.268865 -0.611519
F34   F     F_    0.084687 0.411884 0.503633 -0.596478
F35   F     F_    0.442849 0.939049 0.268864 -0.611457
F36   F     F_    0.584685 0.911882 0.503635 -0.596481

loop_
_geom_bond_atom_site_label_1
_geom_bond_atom_site_label_2
_ccdc_geom_bond_type
C84   H24   S    
C84   N16   A    
C79   N11   A    
C74   Cl10  S    
C96   F28   S    
C73   Cl9   S    
N25   Ni6   S    
C58   Cl6   S    
C73   C74   S    
C99   C103  A    
C19   C20   S    
C8    C96   A    
C16   C84   A    
C90   N22   A    
C3    Cl3   S    
N12   N20   A    
N1    N29   A    
C47   N7    A    
C53   C59   S    
N13   N21   A    
C4    N4    A    
C54   C60   S    
N12   Ni3   S    
N11   N19   A    
N13   Ni6   S    
C50   C54   S    
C87   N19   A    
C42   C101  S    
C37   C41   A    
C3    N3    A    
C64   C68   A    
C14   C21   S    
N9    N17   A    
N11   Ni4   S    
C35   C37   A    
C77   N9    A    
C38   C42   A    
C1    N1    A    
N9    Ni2   S    
N8    N28   A    
C13   C81   A    
C65   C69   A    
C67   C71   A    
C23   F3    S    
C63   C76   S    
C2    C102  A    
C53   H5    S    
C80   F20   S    
C29   C33   A    
C100  F32   S    
C100  C104  A    
C96   N28   A    
N7    N27   A    
C41   C102  S    
C54   H6    S    
C51   C55   S    
C41   C49   A    
N19   Ni7   S    
C9    C66   S    
C14   C90   A    
C76   Cl12  S    
N30   Ni1   S    
C9    C85   A    
C43   C104  S    
N21   Ni1   S    
C28   C50   A    
C33   C39   A    
C56   H4    S    
C98   N30   A    
C11   C87   A    
C6    C94   A    
C36   F8    S    
C92   N24   A    
N6    Ni6   S    
N26   Ni5   S    
C59   Cl7   S    
C80   N12   A    
C6    C46   A    
C86   F22   S    
C57   Cl5   S    
C61   C62   A    
C85   F21   S    
C81   H21   S    
C5    C93   A    
N2    Ni2   S    
C89   N21   A    
C98   F30   S    
C60   Cl8   S    
C90   Cl14  S    
C75   Cl11  S    
C35   F7    S    
C20   F36   S    
C56   H8    S    
C25   C57   S    
C10   C78   A    
C74   H14   S    
C86   N18   A    
C87   F23   S    
C22   F2    S    
C44   C103  S    
C5    C29   S    
C28   C60   S    
C25   C29   A    
N22   Ni2   S    
C12   C67   S    
C89   Cl13  S    
C91   N23   A    
C7    C31   S    
C30   C34   A    
N16   Ni7   S    
C27   C31   A    
C8    C32   S    
N32   Ni3   S    
C20   C24   D    
C28   C32   A    
C73   H13   S    
C69   F13   S    
C62   C66   A    
C57   H9    S    
N8    Ni8   S    
N28   Ni7   S    
C45   H17   S    
C98   C102  A    
C5    C45   A    
C17   C21   D    
C63   C64   A    
C55   H3    S    
C97   N29   A    
C19   C23   D    
C75   C76   S    
N4    Ni4   S    
C63   C67   A    
C26   C52   A    
C92   Cl16  S    
N5    Ni5   S    
C46   N6    A    
C100  N32   A    
C47   H19   S    
N3    Ni3   S    
N27   Ni8   S    
C68   C72   A    
C12   C88   A    
C37   F9    S    
C17   C18   S    
C88   N20   A    
N1    Ni1   S    
C62   C73   S    
C76   H16   S    
C88   F24   S    
C54   H2    S    
N3    N31   A    
C26   C58   S    
N24   Ni4   S    
C11   C79   A    
C2    Cl2   S    
N17   Ni5   S    
C15   C24   S    
C6    C30   S    
C42   C50   A    
C94   F26   S    
C16   C23   S    
N23   Ni3   S    
C55   C57   S    
C93   F25   S    
N20   Ni8   S    
N5    N25   A    
C34   F6    S    
C99   N31   A    
C14   C82   A    
C36   C38   A    
C24   F4    S    
C33   F5    S    
C1    C101  A    
C1    Cl1   S    
C17   F33   S    
C11   C68   S    
C70   F14   S    
C10   C65   S    
C3    C103  A    
C10   C86   A    
N15   N23   A    
C4    Cl4   S    
C79   F19   S    
C55   H7    S    
C18   C22   D    
C45   N5    A    
C48   N8    A    
C46   H18   S    
C83   H23   S    
C44   C52   A    
C48   H20   S    
C15   C83   A    
C32   C36   A    
C16   C92   A    
C61   C74   S    
C13   C89   A    
C7    C95   A    
C21   F1    S    
C25   C51   A    
C38   F10   S    
N2    N30   A    
C95   F27   S    
N14   N22   A    
C93   N25   A    
C9    C77   A    
C71   C72   A    
N16   N24   A    
C75   H15   S    
C27   C59   S    
C8    C48   A    
C78   N10   A    
N14   Ni5   S    
C83   N15   A    
C94   N26   A    
C43   C51   A    
C66   C70   A    
C99   F31   S    
N10   N18   A    
C49   C53   S    
C52   C56   S    
C12   C80   A    
C31   C35   A    
C81   N13   A    
C91   Cl15  S    
C2    N2    A    
C64   C75   S    
C56   C58   S    
C13   C22   S    
C4    C104  A    
N10   Ni1   S    
C95   N27   A    
C61   C65   A    
N18   Ni6   S    
C69   C70   A    
C97   C101  A    
N15   Ni8   S    
C60   H12   S    
C39   F11   S    
C15   C91   A    
C82   N14   A    
C53   H1    S    
C40   C44   A    
C19   F35   S    
C39   C43   A    
C59   H11   S    
C72   F16   S    
C58   H10   S    
N7    Ni7   S    
N31   Ni4   S    
C34   C40   A    
C97   F29   S    
C78   F18   S    
C71   F15   S    
C85   N17   A    
N6    N26   A    
C77   F17   S    
N29   Ni2   S    
N4    N32   A    
C82   H22   S    
C27   C49   A    
C7    C47   A    
C40   F12   S    
C26   C30   A    
C18   F34   S    
