data_mof_unit_22141.cif
_audit_creation_date              2012-12-10T18:43:07-0500
_audit_creation_method            fapswitch 2.2
_symmetry_space_group_name_H-M    P1
_symmetry_Int_Tables_number       1
_space_group_crystal_system       triclinic
_cell_length_a                    10.742027
_cell_length_b                    9.915366
_cell_length_c                    10.64498
_cell_angle_alpha                 90.732312
_cell_angle_beta                  91.946932
_cell_angle_gamma                 88.938648
_cell_volume                      1132.87613229

loop_
_atom_site_label
_atom_site_type_symbol
_atom_type_description
_atom_site_fract_x
_atom_site_fract_y
_atom_site_fract_z
_atom_type_partial_charge
C1    C     C_R   0.259694 0.501825 0.501763 0.909725
C2    C     C_R   0.739167 0.498813 0.493224 0.964720
C3    C     C_R   0.500539 0.498787 0.262682 1.007730
C4    C     C_R   0.509489 0.501196 0.737476 0.984976
C5    C     C_2   0.595171 0.415471 0.937113 0.382653
C6    C     C_2   0.599753 0.429445 0.073771 0.400508
C7    C     C_2   0.532240 0.509308 0.869982 -0.493001
C8    C     C_2   0.505220 0.493450 0.130348 -0.475219
C9    C     C_R   0.065880 0.387330 0.531361 -0.217555
C10   C     C_R   0.938338 0.384703 0.527119 -0.184307
C11   C     C_R   0.870896 0.497121 0.483345 -0.164449
C12   C     C_R   0.126107 0.505762 0.500793 -0.177207
C13   C     C_R   0.930589 0.611488 0.440311 0.353197
C14   C     C_R   0.057076 0.622081 0.463160 0.318926
C15   C     C_R   0.567178 0.073134 0.588048 -0.065687
C16   C     C_R   0.434723 0.073852 0.410092 -0.045793
C17   C     C_R   0.571544 0.930177 0.587192 0.160307
C18   C     C_R   0.434366 0.930091 0.407530 0.184362
H1    H     H_    0.502845 0.604040 0.913101 0.138399
H2    H     H_    0.423911 0.534819 0.080265 0.109675
H3    H     H_    0.117058 0.298053 0.562769 0.197834
H4    H     H_    0.892769 0.295352 0.559050 0.197933
H5    H     H_    0.620821 0.129320 0.657320 0.193600
H6    H     H_    0.385555 0.132612 0.339068 0.138439
N1    N     N_R   0.500000 0.857200 0.500000 -0.104253
N2    N     N_R   0.500000 0.142810 0.500000 -0.114131
O1    O     O_R   0.316770 0.614620 0.499990 -0.587796
O2    O     O_R   0.683230 0.614620 0.500010 -0.604688
O3    O     O_R   0.316800 0.385290 0.500000 -0.634241
O4    O     O_R   0.683200 0.385290 0.500000 -0.602301
O5    O     O_R   0.500000 0.614630 0.319080 -0.637529
O6    O     O_R   0.500000 0.614630 0.680920 -0.654667
O7    O     O_R   0.500030 0.385300 0.319080 -0.588623
O8    O     O_R   0.499970 0.385300 0.680920 -0.572507
Zn1   Zn    Zn3+2 0.500000 0.653120 0.500000 0.980868
Zn2   Zn    Zn3+2 0.500000 0.346880 0.500000 1.000590
Cl1   Cl    Cl    0.676823 0.279053 0.867748 -0.601078
Cl2   Cl    Cl    0.728966 0.359778 0.160186 -0.509127
Cl3   Cl    Cl    0.851032 0.738290 0.350550 -0.535322
Cl4   Cl    Cl    0.119255 0.785442 0.455609 -0.622943
C19   C     C_3   0.660483 0.864586 0.682536 -0.408989
C20   C     C_3   0.795741 0.909079 0.667943 -0.355124
C21   C     C_3   0.887242 0.821828 0.745777 -0.761942
H7    H     H_    0.864903 0.828200 0.846829 0.270645
H8    H     H_    0.883272 0.714943 0.713503 0.252220
H9    H     H_    0.983461 0.857865 0.734647 0.272672
H10   H     H_    0.820724 0.901665 0.567788 0.289456
H11   H     H_    0.806279 0.015647 0.699279 0.240774
H12   H     H_    0.630219 0.891101 0.778734 0.205828
H13   H     H_    0.660678 0.755199 0.674000 0.269155
C22   C     C_3   0.374686 0.859042 0.294067 -0.353960
C23   C     C_3   0.275490 0.940525 0.217668 -0.404671
C24   C     C_3   0.206871 0.850723 0.121460 -0.747600
H14   H     H_    0.273805 0.803354 0.056108 0.239092
H15   H     H_    0.156464 0.770364 0.169418 0.292189
H16   H     H_    0.138001 0.912469 0.066029 0.264842
H17   H     H_    0.206517 0.987135 0.281318 0.281125
H18   H     H_    0.320755 0.021500 0.165364 0.222114
H19   H     H_    0.449863 0.830572 0.229199 0.219104
H20   H     H_    0.329751 0.767259 0.325660 0.281052

loop_
_geom_bond_atom_site_label_1
_geom_bond_atom_site_label_2
_ccdc_geom_bond_type
C6    C8    D    
C21   H7    S    
C6    Cl2   S    
C15   C17   A    
C5    Cl1   S    
C21   H8    S    
C19   C20   S    
O8    Zn2   S    
O4    Zn2   S    
C2    O4    A    
C17   N1    A    
C15   H5    S    
C5    C7    D    
C16   H6    S    
C20   H11   S    
C13   C14   A    
C10   H4    S    
C3    O5    A    
C11   C13   A    
O3    Zn2   S    
C9    H3    S    
C21   H9    S    
C4    O6    A    
C18   N1    A    
C23   H18   S    
N1    Zn1   S    
C4    C7    S    
C2    C11   S    
C9    C10   A    
C1    O3    A    
C8    H2    S    
C12   C14   A    
C18   C22   S    
C7    H1    S    
C20   H10   S    
C24   H15   S    
C4    O8    A    
C16   N2    A    
C5    C6    S    
C9    C12   A    
O5    Zn1   S    
C13   Cl3   S    
C17   C19   S    
C22   H19   S    
C20   C21   S    
C3    O7    A    
C14   Cl4   S    
C23   H17   S    
O6    Zn1   S    
C19   H13   S    
N2    Zn2   S    
O7    Zn2   S    
C23   C24   S    
C16   C18   A    
C3    C8    S    
C10   C11   A    
C24   H16   S    
C19   H12   S    
C1    O1    A    
C15   N2    A    
C2    O2    A    
C22   H20   S    
O1    Zn1   S    
C24   H14   S    
C1    C12   S    
C22   C23   S    
O2    Zn1   S    
