data_mof_unit_7079.cif
_audit_creation_date              2012-12-11T14:10:20-0500
_audit_creation_method            fapswitch 2.2
_symmetry_space_group_name_H-M    P1
_symmetry_Int_Tables_number       1
_space_group_crystal_system       triclinic
_cell_length_a                    27.977041
_cell_length_b                    28.072454
_cell_length_c                    27.721054
_cell_angle_alpha                 90.012958
_cell_angle_beta                  89.972146
_cell_angle_gamma                 89.932297
_cell_volume                      21771.6593908

loop_
_atom_site_label
_atom_site_type_symbol
_atom_type_description
_atom_site_fract_x
_atom_site_fract_y
_atom_site_fract_z
_atom_type_partial_charge
C1    C     C_R   0.777380 0.284161 0.275103 0.122647
C2    C     C_R   0.220083 0.277975 0.278206 0.121290
C3    C     C_R   0.349335 0.288418 0.836522 -0.335550
C4    C     C_R   0.643636 0.177823 0.292357 -0.392950
C5    C     C_R   0.360013 0.815182 0.701997 -0.318287
C6    C     C_R   0.676114 0.286870 0.863237 -0.416952
C7    C     C_R   0.350818 0.710283 0.166110 -0.327637
C8    C     C_R   0.282586 0.341571 0.846960 -0.405611
C9    C     C_R   0.695608 0.643981 0.183408 -0.355054
C10   C     C_R   0.826219 0.354124 0.709640 -0.397942
C11   C     C_R   0.184637 0.640918 0.296790 -0.324793
C12   C     C_R   0.716104 0.330767 0.140356 -0.392586
C13   C     C_R   0.716688 0.222724 0.724486 0.123270
C14   C     C_R   0.321858 0.641380 0.794476 -0.392031
C15   C     C_R   0.161993 0.343680 0.287002 -0.391976
C16   C     C_R   0.813169 0.638463 0.702473 -0.324370
C17   C     C_R   0.714247 0.671986 0.860648 -0.436646
C18   C     C_R   0.318927 0.357274 0.202620 -0.378925
C19   C     C_R   0.162791 0.655854 0.712125 -0.392494
C20   C     C_R   0.812827 0.362003 0.298194 -0.327479
C21   C     C_R   0.284042 0.657218 0.155769 -0.410868
C22   C     C_R   0.694817 0.356948 0.815927 -0.335576
C23   C     C_R   0.827190 0.646788 0.289346 -0.393761
C24   C     C_R   0.280038 0.778062 0.278141 0.129927
C25   C     C_R   0.183807 0.359009 0.703897 -0.325597
C26   C     C_R   0.860577 0.318137 0.375784 0.555206
C27   C     C_R   0.160855 0.667696 0.612433 0.569846
C28   C     C_R   0.682337 0.860549 0.375294 0.555632
C29   C     C_R   0.330494 0.159793 0.614412 0.582854
C30   C     C_R   0.140777 0.681522 0.378268 0.555213
C31   C     C_R   0.837028 0.332979 0.612184 0.572010
C32   C     C_R   0.319088 0.142198 0.379085 0.561673
C33   C     C_R   0.668339 0.838520 0.613044 0.572259
C34   C     C_R   0.855982 0.679672 0.620654 0.559342
C35   C     C_R   0.219623 0.280784 0.725362 0.125313
C36   C     C_R   0.161122 0.331956 0.386742 0.568075
C37   C     C_R   0.680741 0.142250 0.621899 0.553151
C38   C     C_R   0.330144 0.840038 0.386994 0.582147
C39   C     C_R   0.139068 0.317657 0.623298 0.555560
C40   C     C_R   0.838747 0.668882 0.386595 0.580160
C41   C     C_R   0.318729 0.858651 0.620775 0.560860
C42   C     C_R   0.668267 0.163190 0.388526 0.580144
C43   C     C_R   0.385169 0.852359 0.319914 0.552620
C44   C     C_R   0.610295 0.161277 0.669799 0.571815
C45   C     C_R   0.348065 0.672104 0.886701 0.588704
C46   C     C_R   0.777115 0.719077 0.277255 0.126334
C47   C     C_R   0.616003 0.329092 0.148000 0.538603
C48   C     C_R   0.382750 0.143581 0.682991 0.548704
C49   C     C_R   0.611438 0.841308 0.327838 0.583170
C50   C     C_R   0.351640 0.324981 0.112410 0.595979
C51   C     C_R   0.614740 0.669512 0.847301 0.531237
C52   C     C_R   0.613793 0.851710 0.680108 0.554894
C53   C     C_R   0.388935 0.161040 0.330319 0.588901
C54   C     C_R   0.650259 0.684785 0.103663 0.583910
C55   C     C_R   0.378723 0.319836 0.861511 0.556452
C56   C     C_R   0.611772 0.152542 0.322544 0.556613
C57   C     C_R   0.281940 0.778909 0.722969 0.126388
C58   C     C_R   0.388919 0.838300 0.668551 0.587947
C59   C     C_R   0.647767 0.314785 0.894783 0.614289
C60   C     C_R   0.380267 0.678736 0.141325 0.559636
C61   C     C_R   0.310951 0.373685 0.873574 0.558455
C62   C     C_R   0.665709 0.615989 0.155085 0.545616
C63   C     C_R   0.850751 0.386684 0.679639 0.554251
C64   C     C_R   0.160888 0.611900 0.329844 0.572867
C65   C     C_R   0.688507 0.359985 0.109704 0.584245
C66   C     C_R   0.353205 0.612793 0.821788 0.569670
C67   C     C_R   0.139855 0.378811 0.315933 0.558825
C68   C     C_R   0.717470 0.225363 0.278946 0.129102
C69   C     C_R   0.836885 0.609783 0.668999 0.586174
C70   C     C_R   0.685907 0.643493 0.891747 0.572565
C71   C     C_R   0.350816 0.385892 0.176382 0.550900
C72   C     C_R   0.140312 0.620855 0.683511 0.559158
C73   C     C_R   0.837460 0.389703 0.331795 0.571710
C74   C     C_R   0.312461 0.624968 0.129388 0.571577
C75   C     C_R   0.666060 0.384757 0.845332 0.529972
C76   C     C_R   0.853104 0.615011 0.318984 0.552018
C77   C     C_R   0.159658 0.387727 0.670814 0.571868
C78   C     C_R   0.866648 0.367716 0.367430 -0.094592
C79   C     C_R   0.280521 0.716939 0.779644 0.124346
C80   C     C_R   0.133242 0.630803 0.633736 -0.096811
C81   C     C_R   0.632937 0.868206 0.365716 -0.098000
C82   C     C_R   0.369707 0.134037 0.634181 -0.099210
C83   C     C_R   0.133479 0.632500 0.367691 -0.095968
C84   C     C_R   0.862159 0.372327 0.631802 -0.093867
C85   C     C_R   0.368033 0.134214 0.368351 -0.095461
C86   C     C_R   0.628545 0.863330 0.632430 -0.091716
C87   C     C_R   0.864246 0.630924 0.631327 -0.099814
C88   C     C_R   0.133172 0.368877 0.365799 -0.095055
C89   C     C_R   0.631729 0.134066 0.632312 -0.091332
C90   C     C_R   0.721065 0.277572 0.212506 0.127091
C91   C     C_R   0.370652 0.863998 0.367736 -0.100816
C92   C     C_R   0.132031 0.366839 0.633333 -0.095101
C93   C     C_R   0.864012 0.629210 0.367103 -0.103131
C94   C     C_R   0.367921 0.865796 0.631081 -0.099764
C95   C     C_R   0.627508 0.139372 0.369525 -0.102863
C96   C     C_R   0.366633 0.629192 0.867894 -0.089765
C97   C     C_R   0.638134 0.359243 0.114040 -0.072611
C98   C     C_R   0.366832 0.369308 0.131217 -0.058315
C99   C     C_R   0.636190 0.640834 0.882874 -0.068770
C100  C     C_R   0.642660 0.636264 0.114933 -0.111464
C101  C     C_R   0.278702 0.281370 0.217535 0.120613
C102  C     C_R   0.359437 0.361409 0.883388 -0.103057
C103  C     C_R   0.641857 0.363774 0.884409 -0.084260
C104  C     C_R   0.360792 0.637362 0.119309 -0.140446
C105  C     C_R   0.812408 0.312492 0.302254 0.069017
C106  C     C_R   0.185738 0.694866 0.691345 0.067228
C107  C     C_R   0.689086 0.813528 0.301082 0.063887
C108  C     C_R   0.308410 0.188676 0.693720 0.067276
C109  C     C_R   0.185918 0.690227 0.303230 0.066817
C110  C     C_R   0.808961 0.310803 0.691699 0.071505
C111  C     C_R   0.310465 0.186136 0.303299 0.063979
C112  C     C_R   0.220962 0.721171 0.720191 0.119772
C113  C     C_R   0.721010 0.723232 0.787196 0.127243
C114  C     C_R   0.689945 0.810007 0.692598 0.073617
C115  C     C_R   0.811182 0.687741 0.696225 0.065099
C116  C     C_R   0.185316 0.304714 0.307494 0.068758
C117  C     C_R   0.688112 0.188107 0.696836 0.070981
C118  C     C_R   0.309306 0.810475 0.307702 0.067657
C119  C     C_R   0.185251 0.309678 0.697834 0.067879
C120  C     C_R   0.809566 0.690007 0.307163 0.064787
C121  C     C_R   0.310526 0.813591 0.695737 0.061999
C122  C     C_R   0.688041 0.193531 0.309162 0.065060
C123  C     C_R   0.307932 0.686316 0.811262 0.068591
C124  C     C_R   0.723616 0.721524 0.211818 0.129974
C125  C     C_R   0.693885 0.300965 0.173970 0.075719
C126  C     C_R   0.305914 0.312238 0.185676 0.093299
C127  C     C_R   0.692753 0.699173 0.824365 0.085251
C128  C     C_R   0.699429 0.692962 0.175223 0.049471
C129  C     C_R   0.301644 0.299866 0.827450 0.063561
C130  C     C_R   0.698422 0.307847 0.823445 0.073469
C131  C     C_R   0.302978 0.699126 0.174790 0.050746
C132  C     C_R   0.398225 0.101621 0.398653 -0.235124
C133  C     C_R   0.600089 0.897117 0.601660 -0.222380
C134  C     C_R   0.899370 0.397675 0.397960 -0.227317
C135  C     C_R   0.275806 0.275360 0.788352 0.129354
C136  C     C_R   0.100901 0.600956 0.602912 -0.229751
C137  C     C_R   0.602748 0.900433 0.396902 -0.227601
C138  C     C_R   0.398749 0.100899 0.602986 -0.229089
C139  C     C_R   0.101173 0.601961 0.398111 -0.229563
C140  C     C_R   0.896363 0.400490 0.601285 -0.224806
C141  C     C_R   0.398153 0.898498 0.601156 -0.234391
C142  C     C_R   0.599587 0.104303 0.399468 -0.227161
C143  C     C_R   0.897788 0.601287 0.601337 -0.232128
C144  C     C_R   0.100848 0.398788 0.396889 -0.228588
C145  C     C_R   0.601749 0.101313 0.601847 -0.221339
C146  C     C_R   0.722638 0.279471 0.786629 0.126698
C147  C     C_R   0.399425 0.897645 0.398329 -0.224886
C148  C     C_R   0.100036 0.397415 0.602543 -0.226867
C149  C     C_R   0.898066 0.600757 0.397789 -0.229561
C150  C     C_R   0.399074 0.399851 0.103094 -0.143861
C151  C     C_R   0.605610 0.606998 0.909234 -0.186494
C152  C     C_R   0.398748 0.599629 0.896932 -0.151406
C153  C     C_R   0.608220 0.392152 0.085642 -0.152323
C154  C     C_R   0.608180 0.393653 0.911685 -0.163196
C155  C     C_R   0.392853 0.605434 0.090682 -0.269150
C156  C     C_R   0.608868 0.606369 0.087716 -0.178728
C157  C     C_R   0.276649 0.724257 0.213077 0.133187
C158  C     C_R   0.392199 0.394085 0.910478 -0.254742
C159  C     C_3   0.876504 0.250448 0.424700 0.375792
C160  C     C_3   0.829505 0.226188 0.439175 -0.459127
C161  C     C_3   0.832150 0.172400 0.431767 -0.910315
C162  C     C_3   0.204420 0.637196 0.550438 0.136902
C163  C     C_3   0.212631 0.639456 0.496016 -0.185000
C164  C     C_3   0.251219 0.604362 0.480089 -1.094099
C165  C     C_3   0.749480 0.877891 0.424417 0.368749
C166  C     C_3   0.775563 0.832576 0.440658 -0.453972
C167  C     C_3   0.829542 0.837464 0.434711 -0.907407
C168  C     C_R   0.441901 0.081301 0.386522 0.469914
C169  C     C_3   0.354971 0.196084 0.544256 0.192069
C170  C     C_3   0.332402 0.245751 0.541541 -0.312824
C171  C     C_3   0.363121 0.279687 0.511786 -1.005092
C172  C     C_3   0.127903 0.746893 0.430951 0.384857
C173  C     C_3   0.176054 0.770438 0.442524 -0.472281
C174  C     C_3   0.174528 0.823877 0.432408 -0.916270
C175  C     C_3   0.792954 0.356520 0.547646 0.147693
C176  C     C_3   0.787380 0.351667 0.493061 -0.180028
C177  C     C_3   0.746277 0.382159 0.474222 -1.105225
C178  C     C_3   0.253872 0.131593 0.432714 0.373582
C179  C     C_R   0.560361 0.923464 0.615411 0.530111
C180  C     C_3   0.231258 0.180346 0.443265 -0.450406
C181  C     C_3   0.177633 0.179989 0.433089 -0.921718
C182  C     C_3   0.645986 0.794865 0.547842 0.137403
C183  C     C_3   0.649426 0.791588 0.492960 -0.166037
C184  C     C_3   0.619301 0.750809 0.473146 -1.111867
C185  C     C_3   0.868975 0.745040 0.568127 0.377388
C186  C     C_3   0.821144 0.769134 0.555967 -0.451813
C187  C     C_3   0.822394 0.822248 0.567758 -0.925784
C188  C     C_3   0.204520 0.361886 0.449138 0.142090
C189  C     C_3   0.212765 0.358613 0.503514 -0.186762
C190  C     C_R   0.918468 0.441978 0.386582 0.486462
C191  C     C_3   0.251221 0.393446 0.520084 -1.091394
C192  C     C_3   0.746772 0.128817 0.569943 0.377838
C193  C     C_3   0.770644 0.176227 0.556499 -0.448735
C194  C     C_3   0.824246 0.174962 0.566625 -0.922140
C195  C     C_3   0.352017 0.803568 0.457915 0.207198
C196  C     C_3   0.326146 0.755915 0.464063 -0.304316
C197  C     C_3   0.355781 0.721107 0.493951 -1.009913
C198  C     C_3   0.125882 0.251601 0.571513 0.380821
C199  C     C_3   0.174211 0.229003 0.558671 -0.466449
C200  C     C_3   0.173459 0.175199 0.566476 -0.912825
C201  C     C_R   0.075107 0.560800 0.616009 0.517972
C202  C     C_3   0.805819 0.643907 0.458546 0.197528
C203  C     C_3   0.756134 0.665170 0.467053 -0.296322
C204  C     C_3   0.725998 0.633063 0.499420 -1.014127
C205  C     C_3   0.253038 0.873712 0.569134 0.373405
C206  C     C_3   0.227410 0.827158 0.556314 -0.444571
C207  C     C_3   0.173678 0.831092 0.564966 -0.919070
C208  C     C_3   0.644748 0.195296 0.461318 0.209855
C209  C     C_3   0.667308 0.243880 0.471542 -0.294476
C210  C     C_3   0.634643 0.274523 0.502920 -1.014490
C211  C     C_3   0.441287 0.865369 0.257209 0.386342
C212  C     C_R   0.558582 0.920164 0.385686 0.464235
C213  C     C_3   0.460467 0.819453 0.234338 -0.467118
C214  C     C_3   0.460670 0.822510 0.179411 -0.870384
C215  C     C_3   0.549073 0.206424 0.641390 0.136645
C216  C     C_3   0.494772 0.212162 0.640917 -0.172283
C217  C     C_3   0.479262 0.253807 0.609229 -1.103721
C218  C     C_3   0.312262 0.681158 0.959907 0.195371
C219  C     C_3   0.318028 0.703023 0.009967 -0.167115
C220  C     C_3   0.270357 0.705560 0.036578 -1.047887
C221  C     C_3   0.556026 0.349565 0.200093 0.170278
C222  C     C_3   0.501827 0.352312 0.206470 -0.183559
C223  C     C_R   0.717446 0.778372 0.273825 0.123480
C224  C     C_R   0.439038 0.075064 0.615969 0.527805
C225  C     C_3   0.488401 0.367246 0.257639 -1.099508
C226  C     C_3   0.435704 0.126154 0.747548 0.380129
C227  C     C_3   0.456869 0.170260 0.772042 -0.445876
C228  C     C_3   0.458964 0.164445 0.826688 -0.908742
C229  C     C_3   0.544112 0.805068 0.358097 0.177550
C230  C     C_3   0.544114 0.753964 0.338633 -0.324699
C231  C     C_3   0.516906 0.720412 0.372069 -0.991435
C232  C     C_3   0.370962 0.265233 0.055893 0.332168
C233  C     C_3   0.330230 0.244656 0.025543 -0.355065
C234  C     C_3   0.338713 0.192161 0.014132 -0.950834
C235  C     C_R   0.081510 0.557895 0.386503 0.477214
C236  C     C_3   0.554230 0.648212 0.796192 0.158684
C237  C     C_3   0.499953 0.647946 0.789945 -0.174515
C238  C     C_3   0.485678 0.630474 0.739885 -1.093452
C239  C     C_3   0.554444 0.856424 0.741663 0.388396
C240  C     C_3   0.539022 0.806042 0.756658 -0.477986
C241  C     C_3   0.536725 0.801045 0.811390 -0.854657
C242  C     C_3   0.454102 0.199230 0.362801 0.179237
C243  C     C_3   0.446255 0.251388 0.348172 -0.343181
C244  C     C_3   0.469295 0.285315 0.384305 -1.000824
C245  C     C_3   0.664374 0.712027 0.027146 0.229329
C246  C     C_R   0.923020 0.439837 0.615259 0.527475
C247  C     C_3   0.652768 0.757968 0.999958 -0.208312
C248  C     C_3   0.687152 0.766093 0.958072 -1.010046
C249  C     C_3   0.446136 0.338316 0.818538 0.236912
C250  C     C_3   0.480731 0.306668 0.790237 -0.210479
C251  C     C_3   0.508705 0.335135 0.752827 -1.058877
C252  C     C_3   0.552514 0.146139 0.261435 0.384833
C253  C     C_3   0.535635 0.195410 0.244284 -0.464393
C254  C     C_3   0.535206 0.198722 0.189370 -0.886871
C255  C     C_3   0.453777 0.799828 0.635515 0.179399
C256  C     C_3   0.447409 0.747707 0.650839 -0.334664
C257  C     C_R   0.442025 0.918359 0.613255 0.474067
C258  C     C_3   0.469444 0.713825 0.613961 -1.005609
C259  C     C_3   0.613278 0.249890 0.935928 0.338596
C260  C     C_3   0.647750 0.217155 0.963174 -0.368480
C261  C     C_3   0.631337 0.165397 0.961034 -0.946018
C262  C     C_3   0.448669 0.657921 0.181581 0.240646
C263  C     C_3   0.488088 0.685597 0.207626 -0.217603
C264  C     C_3   0.518907 0.652826 0.238688 -1.054054
C265  C     C_3   0.246439 0.424852 0.892388 0.356508
C266  C     C_3   0.219615 0.445779 0.849086 -0.405606
C267  C     C_3   0.165802 0.446621 0.857849 -0.935895
C268  C     C_R   0.560000 0.077929 0.385173 0.529653
C269  C     C_3   0.636508 0.562021 0.210769 0.234254
C270  C     C_3   0.667709 0.531044 0.243519 -0.240595
C271  C     C_3   0.643193 0.521020 0.291609 -1.043510
C272  C     C_3   0.857334 0.444764 0.741897 0.382109
C273  C     C_3   0.807561 0.460723 0.758955 -0.451268
C274  C     C_3   0.803921 0.460625 0.813852 -0.891243
C275  C     C_3   0.204430 0.550184 0.359695 0.140818
C276  C     C_3   0.212502 0.496449 0.356688 -0.187252
C277  C     C_3   0.251397 0.480163 0.391551 -1.108097
C278  C     C_3   0.747518 0.415143 0.089082 0.309658
C279  C     C_R   0.918081 0.557661 0.613265 0.466620
C280  C     C_3   0.794308 0.398835 0.065738 -0.336427
C281  C     C_3   0.836262 0.429244 0.082663 -0.968954
C282  C     C_3   0.367537 0.558060 0.757616 0.271829
C283  C     C_3   0.322181 0.529942 0.745116 -0.379041
C284  C     C_3   0.322039 0.480653 0.768427 -0.784040
C285  C     C_3   0.131878 0.431792 0.249176 0.377732
C286  C     C_3   0.182804 0.440391 0.229962 -0.476506
C287  C     C_3   0.187333 0.426300 0.176958 -0.912124
C288  C     C_3   0.800849 0.543849 0.635666 0.193681
C289  C     C_3   0.748405 0.544960 0.651536 -0.336126
C290  C     C_R   0.074857 0.438968 0.383896 0.520769
C291  C     C_3   0.716030 0.522657 0.613476 -1.001203
C292  C     C_3   0.752378 0.610969 0.933553 0.344950
C293  C     C_3   0.779818 0.649458 0.961246 -0.416323
C294  C     C_3   0.833410 0.639477 0.961049 -0.937390
C295  C     C_3   0.367243 0.438621 0.241151 0.267232
C296  C     C_3   0.324352 0.467736 0.259141 -0.363320
C297  C     C_3   0.323598 0.517835 0.237661 -0.791365
C298  C     C_3   0.131431 0.568326 0.750444 0.375948
C299  C     C_3   0.181773 0.558813 0.770720 -0.463753
C300  C     C_3   0.185552 0.573338 0.823656 -0.935926
C301  C     C_R   0.557790 0.081346 0.613532 0.477965
C302  C     C_3   0.793957 0.448824 0.366692 0.130402
C303  C     C_3   0.785058 0.502509 0.367571 -0.186408
C304  C     C_3   0.747106 0.515933 0.404703 -1.096208
C305  C     C_3   0.247926 0.573521 0.111673 0.348231
C306  C     C_3   0.222006 0.553473 0.155942 -0.401151
C307  C     C_3   0.167916 0.554478 0.149144 -0.936842
C308  C     C_3   0.625619 0.440189 0.800066 0.269209
C309  C     C_3   0.645761 0.468942 0.757742 -0.337158
C310  C     C_3   0.661653 0.518779 0.772898 -0.759486
C311  C     C_3   0.865488 0.559030 0.255645 0.375105
C312  C     C_R   0.439486 0.923535 0.384613 0.521582
C313  C     C_3   0.818823 0.538355 0.235553 -0.423939
C314  C     C_3   0.820662 0.533372 0.180792 -0.933023
C315  C     C_3   0.203531 0.449020 0.640833 0.137643
C316  C     C_3   0.211302 0.502816 0.643038 -0.183495
C317  C     C_3   0.250857 0.518581 0.608691 -1.110362
C318  C     C_R   0.080751 0.441704 0.613869 0.475241
C319  C     C_R   0.279443 0.221687 0.723087 0.128793
C320  C     C_R   0.924198 0.560809 0.384332 0.537223
C321  C     C_R   0.387692 0.443183 0.083613 0.520106
C322  C     C_R   0.614085 0.560205 0.920517 0.480547
C323  C     C_R   0.386977 0.918593 0.442072 0.457296
C324  C     C_R   0.615337 0.075353 0.561396 0.516615
C325  C     C_R   0.387672 0.556423 0.916346 0.497742
C326  C     C_R   0.615006 0.439810 0.077914 0.517806
C327  C     C_R   0.386713 0.080961 0.558617 0.463518
C328  C     C_R   0.615696 0.925500 0.438132 0.519044
C329  C     C_R   0.617720 0.436967 0.931515 0.553238
C330  C     C_R   0.220017 0.719324 0.275682 0.125352
C331  C     C_R   0.382581 0.562306 0.069647 0.583047
C332  C     C_R   0.612680 0.917856 0.557814 0.470008
C333  C     C_R   0.384703 0.075742 0.438996 0.526358
C334  C     C_R   0.617634 0.562065 0.069587 0.574709
C335  C     C_R   0.382372 0.437554 0.931078 0.574071
C336  C     C_R   0.612462 0.082537 0.442691 0.449809
C337  C     C_R   0.384659 0.924554 0.560978 0.523880
C338  C     C_R   0.081518 0.387101 0.441605 0.482410
C339  C     C_R   0.924090 0.615062 0.561200 0.523119
C340  C     C_R   0.436467 0.383292 0.929660 0.546417
C341  C     C_R   0.776594 0.281663 0.721544 0.126934
C342  C     C_R   0.561751 0.614874 0.077013 0.458108
C343  C     C_R   0.917260 0.387795 0.557509 0.473708
C344  C     C_R   0.075174 0.615272 0.438579 0.523650
C345  C     C_R   0.564379 0.382414 0.066668 0.547319
C346  C     C_R   0.441684 0.612267 0.917021 0.442586
C347  C     C_R   0.918533 0.612955 0.441832 0.453281
C348  C     C_R   0.074305 0.384401 0.561829 0.527570
C349  C     C_R   0.562717 0.617187 0.930162 0.523920
C350  C     C_R   0.442351 0.387820 0.083250 0.438905
C351  C     C_R   0.081265 0.612918 0.558469 0.483987
C352  C     C_R   0.281569 0.220526 0.275662 0.124960
C353  C     C_R   0.925435 0.384480 0.438402 0.521709
C354  C     C_R   0.436792 0.616563 0.071020 0.514328
C355  C     C_R   0.561070 0.385504 0.921944 0.453920
C356  C     C_R   0.836379 0.290948 0.340629 -0.394477
C357  C     C_R   0.184681 0.700524 0.641370 -0.326738
C358  C     C_R   0.709923 0.835682 0.340888 -0.392077
C359  C     C_R   0.298817 0.183645 0.644601 -0.330728
C360  C     C_R   0.163662 0.710179 0.343398 -0.392889
C361  C     C_R   0.813828 0.301021 0.642553 -0.334473
C362  C     C_R   0.290369 0.164603 0.343890 -0.394663
C363  C     C_R   0.718986 0.777381 0.722354 0.127078
C364  C     C_R   0.700141 0.815167 0.643548 -0.338471
C365  C     C_R   0.832579 0.707940 0.655543 -0.393478
C366  C     C_R   0.184854 0.299226 0.357501 -0.334104
C367  C     C_R   0.708746 0.166263 0.656583 -0.394002
C368  C     C_R   0.298498 0.816776 0.356427 -0.330933
C369  C     C_R   0.162590 0.289354 0.658111 -0.395497
C370  C     C_R   0.815039 0.700316 0.356088 -0.317637
C371  C     C_R   0.290214 0.835722 0.655670 -0.393306
C372  C     C_R   0.699519 0.186771 0.357685 -0.321437
C373  C     C_R   0.353060 0.827089 0.290104 -0.387729
C374  C     C_R   0.777316 0.716742 0.724474 0.123692
C375  C     C_R   0.638675 0.185765 0.703001 -0.332217
C376  C     C_R   0.321749 0.702132 0.856583 -0.368869
C377  C     C_R   0.643992 0.298341 0.175487 -0.362296
C378  C     C_R   0.350731 0.169670 0.712308 -0.389909
C379  C     C_R   0.639781 0.816656 0.294702 -0.320294
C380  C     C_R   0.321281 0.296343 0.140722 -0.406233
C381  C     C_R   0.643009 0.699951 0.819970 -0.362387
C382  C     C_R   0.646356 0.827230 0.710316 -0.397847
C383  C     C_R   0.359927 0.184137 0.296779 -0.324188
C384  C     C_R   0.676717 0.713448 0.135441 -0.362254
Cl1   Cl    Cl    0.456812 0.069094 0.326357 -0.467271
Cl2   Cl    Cl    0.563441 0.047761 0.329642 -0.476118
Cl3   Cl    Cl    0.928561 0.541267 0.673356 -0.471301
Cl4   Cl    Cl    0.039435 0.436115 0.331528 -0.469421
Cl5   Cl    Cl    0.540938 0.070238 0.673443 -0.472234
Cl6   Cl    Cl    0.436057 0.956231 0.330654 -0.487686
Cl7   Cl    Cl    0.069407 0.458771 0.673660 -0.463424
Cl8   Cl    Cl    0.958249 0.564550 0.331063 -0.483208
Cl9   Cl    Cl    0.329744 0.466852 0.087266 -0.543488
Cl10  Cl    Cl    0.664461 0.529315 0.900105 -0.607076
Cl11  Cl    Cl    0.327601 0.931532 0.457776 -0.461798
Cl12  Cl    Cl    0.563799 0.955899 0.669702 -0.473039
Cl13  Cl    Cl    0.667751 0.040858 0.564810 -0.478928
Cl14  Cl    Cl    0.329746 0.532829 0.912961 -0.582291
Cl15  Cl    Cl    0.647764 0.471962 0.120697 -0.691828
Cl16  Cl    Cl    0.327361 0.069068 0.542234 -0.463168
Cl17  Cl    Cl    0.667300 0.960932 0.435611 -0.476541
Cl18  Cl    Cl    0.670630 0.443411 0.965429 -0.507502
Cl19  Cl    Cl    0.333865 0.560079 0.029439 -0.559761
Cl20  Cl    Cl    0.672265 0.928590 0.541306 -0.467532
Cl21  Cl    Cl    0.331951 0.041972 0.435525 -0.474085
Cl22  Cl    Cl    0.673168 0.547783 0.043292 -0.553137
Cl23  Cl    Cl    0.927072 0.460190 0.326711 -0.482126
Cl24  Cl    Cl    0.334153 0.440459 0.971862 -0.503496
Cl25  Cl    Cl    0.672080 0.071030 0.458505 -0.465206
Cl26  Cl    Cl    0.332433 0.959140 0.564797 -0.481465
Cl27  Cl    Cl    0.072750 0.327989 0.460210 -0.476429
Cl28  Cl    Cl    0.958206 0.667511 0.565203 -0.483190
Cl29  Cl    Cl    0.440919 0.330805 0.964294 -0.483166
Cl30  Cl    Cl    0.534199 0.669347 0.088871 -0.524084
Cl31  Cl    Cl    0.926691 0.328383 0.540133 -0.469116
Cl32  Cl    Cl    0.040348 0.667291 0.435176 -0.476625
Cl33  Cl    Cl    0.558527 0.330313 0.031861 -0.484889
Cl34  Cl    Cl    0.040154 0.563657 0.668677 -0.467347
Cl35  Cl    Cl    0.463571 0.670487 0.913463 -0.495541
Cl36  Cl    Cl    0.930205 0.672122 0.458389 -0.464747
Cl37  Cl    Cl    0.038162 0.333267 0.565206 -0.475805
Cl38  Cl    Cl    0.558247 0.670190 0.963710 -0.492180
Cl39  Cl    Cl    0.467223 0.330953 0.089049 -0.594171
Cl40  Cl    Cl    0.071026 0.672213 0.541249 -0.472853
Cl41  Cl    Cl    0.961546 0.333289 0.434939 -0.478316
Cl42  Cl    Cl    0.440710 0.669310 0.036730 -0.448373
Cl43  Cl    Cl    0.532078 0.332803 0.906317 -0.628034
Cl44  Cl    Cl    0.543167 0.934438 0.326114 -0.462566
Cl45  Cl    Cl    0.435535 0.039907 0.668288 -0.486162
Cl46  Cl    Cl    0.071426 0.540320 0.326643 -0.467606
Cl47  Cl    Cl    0.955266 0.435969 0.669663 -0.476472
Cl48  Cl    Cl    0.458425 0.928577 0.673403 -0.470011
H1    H     H_    0.832401 0.252929 0.344532 0.157747
H2    H     H_    0.206178 0.271782 0.374528 0.165554
H3    H     H_    0.636666 0.825548 0.476918 0.218681
H4    H     H_    0.687282 0.785886 0.482329 0.207570
H5    H     H_    0.631111 0.716364 0.488820 0.281933
H6    H     H_    0.623494 0.749049 0.433344 0.279649
H7    H     H_    0.580962 0.756667 0.481762 0.268718
H8    H     H_    0.893548 0.751215 0.537273 0.184698
H9    H     H_    0.887407 0.761386 0.599682 0.086638
H10   H     H_    0.813442 0.764008 0.517066 0.227573
H11   H     H_    0.791276 0.752391 0.576131 0.215420
H12   H     H_    0.830152 0.827712 0.606657 0.264492
H13   H     H_    0.746491 0.171604 0.650920 0.159449
H14   H     H_    0.787134 0.838623 0.559884 0.300001
H15   H     H_    0.850244 0.840313 0.545879 0.275038
H16   H     H_    0.193355 0.398990 0.440319 0.094523
H17   H     H_    0.238691 0.353517 0.430205 0.097084
H18   H     H_    0.178876 0.366881 0.522704 0.217959
H19   H     H_    0.223900 0.321775 0.513056 0.203070
H20   H     H_    0.285364 0.386390 0.500905 0.281553
H21   H     H_    0.257296 0.389130 0.559420 0.269885
H22   H     H_    0.239748 0.430689 0.512976 0.271236
H23   H     H_    0.753215 0.103544 0.539784 0.184826
H24   H     H_    0.267001 0.800554 0.372048 0.165745
H25   H     H_    0.763238 0.111394 0.602019 0.082915
H26   H     H_    0.764420 0.183385 0.517676 0.230272
H27   H     H_    0.754458 0.206289 0.576780 0.213260
H28   H     H_    0.830847 0.168052 0.605509 0.265450
H29   H     H_    0.840482 0.209838 0.557373 0.297815
H30   H     H_    0.841646 0.146648 0.544812 0.272400
H31   H     H_    0.361435 0.817569 0.494193 0.152404
H32   H     H_    0.386503 0.798137 0.438336 0.041473
H33   H     H_    0.291294 0.761816 0.482351 0.208978
H34   H     H_    0.319113 0.740039 0.428038 0.189164
H35   H     H_    0.166987 0.251509 0.653104 0.159336
H36   H     H_    0.336192 0.686934 0.497559 0.274995
H37   H     H_    0.362219 0.735790 0.530606 0.265809
H38   H     H_    0.390629 0.714096 0.476068 0.267128
H39   H     H_    0.101114 0.244731 0.540987 0.183503
H40   H     H_    0.108312 0.234791 0.603302 0.082251
H41   H     H_    0.182417 0.237251 0.520513 0.233889
H42   H     H_    0.203583 0.244570 0.580424 0.207453
H43   H     H_    0.166568 0.167016 0.605057 0.265835
H44   H     H_    0.208595 0.159654 0.556502 0.296579
H45   H     H_    0.145184 0.158547 0.544039 0.268710
H46   H     H_    0.797956 0.731292 0.371812 0.161536
H47   H     H_    0.822221 0.635503 0.494056 0.157946
H48   H     H_    0.802636 0.609385 0.438845 0.052670
H49   H     H_    0.759595 0.700659 0.484465 0.211609
H50   H     H_    0.737734 0.669930 0.431855 0.189546
H51   H     H_    0.690066 0.649093 0.504493 0.271523
H52   H     H_    0.743151 0.629119 0.535353 0.266067
H53   H     H_    0.721730 0.597341 0.482774 0.272450
H54   H     H_    0.247365 0.898919 0.538776 0.188826
H55   H     H_    0.237379 0.891964 0.601180 0.085457
H56   H     H_    0.234566 0.818949 0.517958 0.231732
H57   H     H_    0.252334 0.831281 0.650235 0.159536
H58   H     H_    0.241666 0.796818 0.577553 0.212098
H59   H     H_    0.166418 0.838212 0.603701 0.266794
H60   H     H_    0.155940 0.797134 0.555043 0.293349
H61   H     H_    0.158332 0.860353 0.542902 0.269874
H62   H     H_    0.635786 0.178028 0.496246 0.152308
H63   H     H_    0.610252 0.200221 0.441672 0.039345
H64   H     H_    0.701971 0.238919 0.490425 0.209140
H65   H     H_    0.674235 0.262583 0.436906 0.190172
H66   H     H_    0.651878 0.309439 0.509828 0.270572
H67   H     H_    0.628006 0.256764 0.538114 0.261361
H68   H     H_    0.731395 0.202624 0.372892 0.163671
H69   H     H_    0.599992 0.280755 0.484400 0.267749
H70   H     H_    0.469413 0.892967 0.253221 0.201175
H71   H     H_    0.409712 0.879983 0.237656 0.077634
H72   H     H_    0.497535 0.813115 0.247148 0.249134
H73   H     H_    0.438394 0.788593 0.245549 0.202666
H74   H     H_    0.423651 0.827072 0.165675 0.261894
H75   H     H_    0.475679 0.789153 0.164078 0.295763
H76   H     H_    0.482985 0.852952 0.167309 0.273793
H77   H     H_    0.561319 0.199788 0.603673 0.077786
H78   H     H_    0.565373 0.240092 0.654918 0.099087
H79   H     H_    0.362975 0.817631 0.253746 0.151605
H80   H     H_    0.478231 0.178938 0.626965 0.209673
H81   H     H_    0.481821 0.218486 0.678255 0.213440
H82   H     H_    0.495528 0.287495 0.622315 0.283577
H83   H     H_    0.439767 0.257484 0.610697 0.276851
H84   H     H_    0.490136 0.247529 0.571204 0.270358
H85   H     H_    0.302030 0.643017 0.963768 0.161433
H86   H     H_    0.282679 0.700533 0.941443 0.080090
H87   H     H_    0.343078 0.680984 0.031259 0.241747
H88   H     H_    0.332985 0.739543 0.006671 0.226267
H89   H     H_    0.244589 0.728084 0.016346 0.276498
H90   H     H_    0.621362 0.206268 0.731164 0.163213
H91   H     H_    0.275846 0.721590 0.072740 0.286321
H92   H     H_    0.255219 0.669294 0.041022 0.276702
H93   H     H_    0.571054 0.386213 0.203289 0.098407
H94   H     H_    0.570606 0.326938 0.229601 0.097377
H95   H     H_    0.486839 0.378630 0.180650 0.204147
H96   H     H_    0.485792 0.316881 0.198907 0.225371
H97   H     H_    0.503303 0.341706 0.284305 0.281606
H98   H     H_    0.448941 0.367453 0.261388 0.271810
H99   H     H_    0.502181 0.403533 0.265430 0.274962
H100  H     H_    0.461996 0.096779 0.751709 0.200950
H101  H     H_    0.310312 0.736806 0.869378 0.166778
H102  H     H_    0.402694 0.113203 0.765792 0.073316
H103  H     H_    0.493587 0.176483 0.758070 0.250763
H104  H     H_    0.435005 0.202013 0.763362 0.193321
H105  H     H_    0.422403 0.159680 0.841561 0.265329
H106  H     H_    0.474936 0.196838 0.843066 0.288271
H107  H     H_    0.481317 0.133157 0.836386 0.272586
H108  H     H_    0.506623 0.815877 0.365625 0.163622
H109  H     H_    0.563310 0.806698 0.393311 0.062625
H110  H     H_    0.527071 0.753223 0.302477 0.214948
H111  H     H_    0.581505 0.741082 0.334958 0.189725
H112  H     H_    0.205764 0.728008 0.624113 0.162198
H113  H     H_    0.626334 0.274782 0.200755 0.156827
H114  H     H_    0.517947 0.683717 0.357139 0.275234
H115  H     H_    0.478971 0.731763 0.375199 0.263819
H116  H     H_    0.533476 0.720096 0.408451 0.271853
H117  H     H_    0.377427 0.243726 0.089051 0.061916
H118  H     H_    0.404435 0.262176 0.034606 0.209788
H119  H     H_    0.295768 0.248450 0.045051 0.204233
H120  H     H_    0.327530 0.264866 0.991149 0.242254
H121  H     H_    0.372514 0.187667 0.993568 0.279571
H122  H     H_    0.308730 0.178384 0.991939 0.276512
H123  H     H_    0.340685 0.171103 0.047997 0.268004
H124  H     H_    0.359629 0.177787 0.749239 0.150704
H125  H     H_    0.567540 0.610784 0.794853 0.080380
H126  H     H_    0.570003 0.668755 0.765761 0.098265
H127  H     H_    0.483621 0.624316 0.817534 0.203122
H128  H     H_    0.485803 0.684610 0.795155 0.220195
H129  H     H_    0.502203 0.653117 0.711583 0.279099
H130  H     H_    0.446285 0.632608 0.735989 0.274273
H131  H     H_    0.497138 0.592921 0.734713 0.271706
H132  H     H_    0.523484 0.880474 0.747761 0.194065
H133  H     H_    0.583315 0.871421 0.764715 0.075477
H134  H     H_    0.503156 0.798498 0.741354 0.248603
H135  H     H_    0.622461 0.796724 0.266170 0.165224
H136  H     H_    0.564070 0.778886 0.742129 0.206281
H137  H     H_    0.572694 0.806649 0.827362 0.261109
H138  H     H_    0.524390 0.764679 0.820959 0.299895
H139  H     H_    0.511285 0.827395 0.826766 0.272495
H140  H     H_    0.493070 0.193028 0.367303 0.165881
H141  H     H_    0.437597 0.192275 0.398717 0.056620
H142  H     H_    0.461868 0.257846 0.311924 0.212063
H143  H     H_    0.407350 0.259176 0.346499 0.194991
H144  H     H_    0.462623 0.322692 0.373039 0.276094
H145  H     H_    0.508522 0.279280 0.385775 0.264186
H146  H     H_    0.308343 0.262369 0.127819 0.149981
H147  H     H_    0.453786 0.279903 0.420798 0.268369
H148  H     H_    0.662969 0.681383 0.001790 0.177201
H149  H     H_    0.701731 0.714869 0.041140 0.050002
H150  H     H_    0.615677 0.756351 0.985764 0.268535
H151  H     H_    0.655161 0.788575 0.025287 0.195279
H152  H     H_    0.724635 0.767375 0.971199 0.264839
H153  H     H_    0.678586 0.800414 0.940141 0.282957
H154  H     H_    0.683476 0.737104 0.931226 0.280572
H155  H     H_    0.465668 0.369828 0.832596 0.121683
H156  H     H_    0.418459 0.351763 0.792764 0.038412
H157  H     H_    0.625939 0.722262 0.793146 0.155829
H158  H     H_    0.506281 0.289084 0.815209 0.248322
H159  H     H_    0.460025 0.278667 0.771419 0.171215
H160  H     H_    0.483870 0.352402 0.726904 0.269516
H161  H     H_    0.532838 0.310875 0.732558 0.273573
H162  H     H_    0.530674 0.362852 0.770833 0.267798
H163  H     H_    0.522393 0.120965 0.256108 0.197974
H164  H     H_    0.582049 0.131251 0.239058 0.080970
H165  H     H_    0.498919 0.201957 0.257912 0.247078
H166  H     H_    0.558945 0.223961 0.258897 0.207370
H167  H     H_    0.571941 0.194025 0.174884 0.265106
H168  H     H_    0.636979 0.818358 0.746945 0.155546
H169  H     H_    0.521807 0.234296 0.178223 0.298308
H170  H     H_    0.511426 0.170981 0.173923 0.270593
H171  H     H_    0.492497 0.806714 0.629949 0.156006
H172  H     H_    0.436190 0.806184 0.600001 0.055948
H173  H     H_    0.464673 0.741796 0.686422 0.212607
H174  H     H_    0.408743 0.739415 0.654303 0.195053
H175  H     H_    0.452337 0.718775 0.578145 0.269051
H176  H     H_    0.463823 0.676447 0.625742 0.275750
H177  H     H_    0.508473 0.720358 0.610736 0.263041
H178  H     H_    0.606266 0.236865 0.898605 0.062031
H179  H     H_    0.376845 0.204032 0.267976 0.165205
H180  H     H_    0.578158 0.248419 0.954581 0.203815
H181  H     H_    0.684216 0.219817 0.947622 0.206937
H182  H     H_    0.649636 0.228600 0.001527 0.243587
H183  H     H_    0.595271 0.161706 0.977387 0.276585
H184  H     H_    0.656765 0.142645 0.981421 0.278790
H185  H     H_    0.630201 0.152897 0.923026 0.268349
H186  H     H_    0.464242 0.625238 0.165291 0.111691
H187  H     H_    0.422012 0.646519 0.209353 0.042064
H188  H     H_    0.511372 0.704004 0.181138 0.258315
H189  H     H_    0.471477 0.713036 0.231045 0.170934
H190  H     H_    0.679804 0.751343 0.128749 0.168281
H191  H     H_    0.496624 0.634842 0.266392 0.269729
H192  H     H_    0.546917 0.674039 0.257173 0.274323
H193  H     H_    0.536742 0.625549 0.215853 0.266530
H194  H     H_    0.242906 0.450524 0.922674 0.191510
H195  H     H_    0.229745 0.391308 0.905738 0.062513
H196  H     H_    0.232517 0.482577 0.842703 0.245907
H197  H     H_    0.227006 0.425003 0.815867 0.203005
H198  H     H_    0.152261 0.409861 0.863490 0.271359
H199  H     H_    0.147436 0.462070 0.825978 0.285602
H200  H     H_    0.157294 0.468658 0.890017 0.266375
H201  H     H_    0.365760 0.257733 0.819501 0.164548
H202  H     H_    0.602226 0.543224 0.203978 0.128955
H203  H     H_    0.627292 0.595870 0.229892 0.058614
H204  H     H_    0.675566 0.496666 0.225252 0.241934
H205  H     H_    0.702106 0.549427 0.250520 0.179144
H206  H     H_    0.636142 0.554869 0.311137 0.275177
H207  H     H_    0.666750 0.498340 0.314245 0.276042
H208  H     H_    0.608919 0.501968 0.285658 0.270922
H209  H     H_    0.882158 0.475049 0.747768 0.193455
H210  H     H_    0.872627 0.415263 0.763879 0.077538
H211  H     H_    0.800519 0.497336 0.745574 0.244387
H212  H     H_    0.633199 0.188055 0.256391 0.154406
H213  H     H_    0.779375 0.437138 0.744009 0.208064
H214  H     H_    0.809317 0.423997 0.828016 0.265923
H215  H     H_    0.767885 0.473112 0.824949 0.302862
H216  H     H_    0.831163 0.484772 0.829661 0.264890
H217  H     H_    0.193699 0.559132 0.397338 0.095306
H218  H     H_    0.238583 0.568649 0.350789 0.096954
H219  H     H_    0.178688 0.477718 0.365644 0.219730
H220  H     H_    0.223195 0.486750 0.319365 0.202884
H221  H     H_    0.285521 0.498821 0.383733 0.282839
H222  H     H_    0.257232 0.441248 0.387403 0.267311
H223  H     H_    0.747673 0.830176 0.346355 0.157441
H224  H     H_    0.377050 0.794884 0.730451 0.168820
H225  H     H_    0.240514 0.487553 0.429369 0.275793
H226  H     H_    0.751246 0.416868 0.129147 0.071772
H227  H     H_    0.740381 0.452217 0.077039 0.210369
H228  H     H_    0.801480 0.361005 0.074905 0.203075
H229  H     H_    0.791117 0.401671 0.025868 0.246186
H230  H     H_    0.830162 0.467257 0.073339 0.278210
H231  H     H_    0.869568 0.417020 0.064699 0.281038
H232  H     H_    0.840879 0.425880 0.122320 0.270830
H233  H     H_    0.399033 0.535766 0.748234 0.114259
H234  H     H_    0.371319 0.590229 0.734577 0.020008
H235  H     H_    0.681598 0.249242 0.869390 0.154065
H236  H     H_    0.290036 0.549667 0.757314 0.202820
H237  H     H_    0.319944 0.525729 0.705325 0.166556
H238  H     H_    0.289031 0.461368 0.757860 0.223786
H239  H     H_    0.322870 0.483862 0.808336 0.320135
H240  H     H_    0.353446 0.459620 0.756218 0.226855
H241  H     H_    0.110439 0.464165 0.241165 0.172168
H242  H     H_    0.112641 0.402495 0.230333 0.086896
H243  H     H_    0.192143 0.478604 0.234301 0.225239
H244  H     H_    0.209350 0.419672 0.251062 0.213186
H245  H     H_    0.178738 0.388006 0.172042 0.262822
H246  H     H_    0.367156 0.741033 0.182998 0.166052
H247  H     H_    0.224626 0.432088 0.164581 0.293786
H248  H     H_    0.162719 0.447958 0.154480 0.272780
H249  H     H_    0.811186 0.506278 0.628461 0.154298
H250  H     H_    0.805169 0.563256 0.600827 0.051667
H251  H     H_    0.744313 0.524998 0.685856 0.209875
H252  H     H_    0.737010 0.582402 0.657681 0.193752
H253  H     H_    0.678355 0.523962 0.626036 0.272211
H254  H     H_    0.726122 0.484844 0.607342 0.261697
H255  H     H_    0.718839 0.542550 0.578950 0.271628
H256  H     H_    0.767279 0.604234 0.896930 0.074033
H257  H     H_    0.246370 0.350799 0.837517 0.158233
H258  H     H_    0.757067 0.576805 0.953230 0.186979
H259  H     H_    0.773212 0.685044 0.945118 0.209842
H260  H     H_    0.766888 0.650458 0.999168 0.226453
H261  H     H_    0.840971 0.604470 0.978114 0.270916
H262  H     H_    0.852235 0.667657 0.981727 0.275268
H263  H     H_    0.847249 0.639373 0.923481 0.267451
H264  H     H_    0.400371 0.459062 0.248774 0.114629
H265  H     H_    0.371188 0.405137 0.262241 0.015376
H266  H     H_    0.290556 0.449467 0.249598 0.197870
H267  H     H_    0.326119 0.470548 0.299084 0.164938
H268  H     H_    0.713338 0.627694 0.213980 0.151867
H269  H     H_    0.292164 0.537629 0.251773 0.222749
H270  H     H_    0.320921 0.516088 0.197743 0.317509
H271  H     H_    0.356535 0.537510 0.247739 0.229716
H272  H     H_    0.109224 0.536475 0.758277 0.173984
H273  H     H_    0.112411 0.598182 0.768710 0.087438
H274  H     H_    0.190446 0.520342 0.766995 0.224866
H275  H     H_    0.209069 0.578790 0.749887 0.212605
H276  H     H_    0.177737 0.611887 0.827996 0.262451
H277  H     H_    0.222441 0.566744 0.836826 0.290966
H278  H     H_    0.160001 0.552541 0.845868 0.275539
H279  H     H_    0.817427 0.363327 0.746346 0.157733
H280  H     H_    0.805989 0.437689 0.403305 0.098448
H281  H     H_    0.759780 0.430461 0.357707 0.101565
H282  H     H_    0.818872 0.521126 0.376730 0.216623
H283  H     H_    0.772993 0.514493 0.331382 0.207172
H284  H     H_    0.713253 0.496607 0.397409 0.284588
H285  H     H_    0.739954 0.554783 0.402622 0.277675
H286  H     H_    0.759719 0.507207 0.441653 0.268053
H287  H     H_    0.243842 0.547293 0.081962 0.191550
H288  H     H_    0.230916 0.606773 0.097997 0.053005
H289  H     H_    0.234005 0.516289 0.161836 0.243509
H290  H     H_    0.205373 0.624236 0.268390 0.157118
H291  H     H_    0.231234 0.573906 0.188896 0.204028
H292  H     H_    0.155350 0.591726 0.144350 0.271115
H293  H     H_    0.150157 0.539329 0.181500 0.286696
H294  H     H_    0.157623 0.533092 0.117084 0.265458
H295  H     H_    0.595711 0.460315 0.816901 0.096032
H296  H     H_    0.609821 0.406729 0.785113 0.003476
H297  H     H_    0.676587 0.449603 0.741659 0.188274
H298  H     H_    0.617672 0.472379 0.729610 0.151110
H299  H     H_    0.631880 0.538082 0.790878 0.239214
H300  H     H_    0.672629 0.539320 0.740535 0.211498
H301  H     H_    0.754704 0.331241 0.138336 0.154574
H302  H     H_    0.692654 0.516559 0.797752 0.301103
H303  H     H_    0.893748 0.531670 0.250615 0.199636
H304  H     H_    0.878371 0.590478 0.234929 0.072743
H305  H     H_    0.812630 0.502656 0.251695 0.249892
H306  H     H_    0.788123 0.561412 0.245434 0.194721
H307  H     H_    0.825100 0.568888 0.163718 0.270340
H308  H     H_    0.786780 0.517374 0.167652 0.289879
H309  H     H_    0.850836 0.509923 0.170008 0.269402
H310  H     H_    0.193499 0.439393 0.603174 0.094583
H311  H     H_    0.237615 0.430800 0.650617 0.098409
H312  H     H_    0.308796 0.630079 0.759630 0.140655
H313  H     H_    0.177602 0.521299 0.633044 0.217865
H314  H     H_    0.221151 0.513193 0.680398 0.204638
H315  H     H_    0.284873 0.500087 0.617487 0.281857
H316  H     H_    0.256496 0.557560 0.612318 0.268014
H317  H     H_    0.240772 0.510577 0.570793 0.276469
H318  H     H_    0.165364 0.348075 0.248562 0.163755
H319  H     H_    0.268351 0.201309 0.628438 0.165014
H320  H     H_    0.793075 0.621561 0.731167 0.162836
H321  H     H_    0.752571 0.674504 0.864587 0.160331
H322  H     H_    0.304602 0.369080 0.236826 0.139835
H323  H     H_    0.166753 0.651266 0.750486 0.163413
H324  H     H_    0.790662 0.379624 0.271556 0.161498
H325  H     H_    0.247743 0.648233 0.165048 0.162024
H326  H     H_    0.712193 0.373681 0.785363 0.155120
H327  H     H_    0.818022 0.637070 0.252882 0.154245
H328  H     H_    0.204730 0.375920 0.731970 0.156126
H329  H     H_    0.902900 0.243240 0.453730 0.184759
H330  H     H_    0.167984 0.747970 0.348748 0.159993
H331  H     H_    0.892879 0.235026 0.391547 0.078767
H332  H     H_    0.822063 0.234142 0.477611 0.233535
H333  H     H_    0.799013 0.240542 0.418118 0.206793
H334  H     H_    0.838848 0.164102 0.393169 0.265714
H335  H     H_    0.797733 0.155791 0.442388 0.295068
H336  H     H_    0.861262 0.156943 0.454055 0.268719
H337  H     H_    0.193567 0.600187 0.559946 0.095323
H338  H     H_    0.238555 0.646067 0.569135 0.097794
H339  H     H_    0.178786 0.630669 0.477084 0.217872
H340  H     H_    0.223584 0.676130 0.485733 0.206639
H341  H     H_    0.796288 0.270489 0.626581 0.166344
H342  H     H_    0.285203 0.611450 0.499466 0.281307
H343  H     H_    0.257649 0.608296 0.440769 0.270427
H344  H     H_    0.239654 0.567225 0.487467 0.271820
H345  H     H_    0.755543 0.905435 0.452526 0.190321
H346  H     H_    0.764651 0.893457 0.390760 0.080043
H347  H     H_    0.766847 0.825856 0.479023 0.236175
H348  H     H_    0.763196 0.801038 0.420049 0.205754
H349  H     H_    0.838680 0.843266 0.396160 0.266653
H350  H     H_    0.847500 0.804348 0.447012 0.291506
H351  H     H_    0.842977 0.867868 0.456442 0.267917
H352  H     H_    0.252518 0.169206 0.349434 0.160897
H353  H     H_    0.362399 0.183481 0.506982 0.157465
H354  H     H_    0.390242 0.197778 0.562959 0.056676
H355  H     H_    0.296405 0.243243 0.524789 0.209673
H356  H     H_    0.328230 0.260409 0.578543 0.189950
H357  H     H_    0.346112 0.315426 0.510989 0.274932
H358  H     H_    0.366534 0.266481 0.474148 0.265605
H359  H     H_    0.399270 0.283048 0.527968 0.271662
H360  H     H_    0.103799 0.753180 0.462174 0.183712
H361  H     H_    0.109137 0.763464 0.399712 0.086297
H362  H     H_    0.184714 0.763845 0.480951 0.229847
H363  H     H_    0.730929 0.797775 0.627702 0.167699
H364  H     H_    0.205445 0.754275 0.421149 0.209385
H365  H     H_    0.166300 0.830429 0.393780 0.264343
H366  H     H_    0.209811 0.840079 0.440363 0.297860
H367  H     H_    0.146842 0.841272 0.455091 0.272767
H368  H     H_    0.800114 0.394668 0.556228 0.076486
H369  H     H_    0.758946 0.345306 0.565272 0.097131
H370  H     H_    0.821025 0.363053 0.475187 0.217929
H371  H     H_    0.780440 0.313801 0.483775 0.204517
H372  H     H_    0.712244 0.371935 0.491992 0.281274
H373  H     H_    0.742442 0.376688 0.434747 0.270718
H374  H     H_    0.827511 0.745590 0.649859 0.159970
H375  H     H_    0.753448 0.420453 0.481191 0.273291
H376  H     H_    0.247447 0.108508 0.464605 0.183581
H377  H     H_    0.236618 0.112433 0.402132 0.088286
H378  H     H_    0.237978 0.189586 0.481502 0.227245
H379  H     H_    0.248197 0.208765 0.421346 0.214039
H380  H     H_    0.170951 0.171750 0.394489 0.265170
H381  H     H_    0.162115 0.215561 0.440922 0.299136
H382  H     H_    0.159567 0.152916 0.455848 0.271865
H383  H     H_    0.607730 0.800439 0.557743 0.077068
H384  H     H_    0.658852 0.760736 0.563792 0.101117
N1    N     N_R   0.755972 0.247278 0.298095 -0.120799
N2    N     N_R   0.700121 0.241494 0.766523 -0.110455
N3    N     N_R   0.301353 0.756507 0.761568 -0.106366
N4    N     N_R   0.700472 0.240638 0.236052 -0.115793
N5    N     N_R   0.296686 0.237989 0.765634 -0.119262
N6    N     N_R   0.701062 0.759633 0.231740 -0.107281
N7    N     N_R   0.300310 0.242362 0.236317 -0.111628
N8    N     N_R   0.701405 0.761335 0.764711 -0.116513
N9    N     N_R   0.237546 0.296976 0.767614 -0.114859
N10   N     N_R   0.761216 0.701541 0.234888 -0.114507
N11   N     N_R   0.760400 0.299313 0.763795 -0.114683
N12   N     N_R   0.241903 0.760784 0.702275 -0.116972
N13   N     N_R   0.238153 0.702981 0.233592 -0.114741
N14   N     N_R   0.759239 0.299955 0.232556 -0.111731
N15   N     N_R   0.240989 0.699097 0.758525 -0.114086
N16   N     N_R   0.239256 0.299331 0.238992 -0.112279
N17   N     N_R   0.758656 0.700355 0.766585 -0.111236
N18   N     N_R   0.456710 0.054070 0.423820 -0.138459
N19   N     N_R   0.543290 0.945930 0.576180 -0.147299
N20   N     N_R   0.945930 0.456710 0.423820 -0.139577
N21   N     N_R   0.054070 0.543290 0.576180 -0.146211
N22   N     N_R   0.543290 0.945930 0.423820 -0.140178
N23   N     N_R   0.755060 0.757505 0.296392 -0.120550
N24   N     N_R   0.456710 0.054070 0.576180 -0.146421
N25   N     N_R   0.054070 0.543290 0.423820 -0.137879
N26   N     N_R   0.945930 0.456710 0.576180 -0.146511
N27   N     N_R   0.456710 0.945930 0.576180 -0.137449
N28   N     N_R   0.543290 0.054070 0.423820 -0.144130
N29   N     N_R   0.945930 0.543290 0.576180 -0.137072
N30   N     N_R   0.054070 0.456710 0.423820 -0.147167
N31   N     N_R   0.543290 0.054070 0.576180 -0.139933
N32   N     N_R   0.456710 0.945930 0.423820 -0.144242
N33   N     N_R   0.054070 0.456710 0.576180 -0.139637
N34   N     N_R   0.240985 0.243356 0.703249 -0.120304
N35   N     N_R   0.945930 0.543290 0.423820 -0.146110
N36   N     N_R   0.423820 0.456710 0.054070 -0.131975
N37   N     N_R   0.576180 0.543290 0.945930 -0.140159
N38   N     N_R   0.423820 0.945930 0.456710 -0.135766
N39   N     N_R   0.576180 0.054070 0.543290 -0.146220
N40   N     N_R   0.423820 0.543290 0.945930 -0.128663
N41   N     N_R   0.576180 0.456710 0.054070 -0.136302
N42   N     N_R   0.423820 0.054070 0.543290 -0.136875
N43   N     N_R   0.576180 0.945930 0.456710 -0.145294
N44   N     N_R   0.576180 0.456710 0.945930 -0.153119
N45   N     N_R   0.241380 0.756665 0.297850 -0.120481
N46   N     N_R   0.423820 0.543290 0.054070 -0.149732
N47   N     N_R   0.576180 0.945930 0.543290 -0.136638
N48   N     N_R   0.423820 0.054070 0.456710 -0.145999
N49   N     N_R   0.576180 0.543290 0.054070 -0.142462
N50   N     N_R   0.423820 0.456710 0.945930 -0.153070
N51   N     N_R   0.576180 0.054070 0.456710 -0.132954
N52   N     N_R   0.423820 0.945930 0.543290 -0.146178
N53   N     N_R   0.054070 0.423820 0.456710 -0.137008
N54   N     N_R   0.945930 0.576180 0.543290 -0.145429
N55   N     N_R   0.456710 0.423820 0.945930 -0.146256
N56   N     N_R   0.754567 0.243361 0.702225 -0.119818
N57   N     N_R   0.543290 0.576180 0.054070 -0.139288
N58   N     N_R   0.945930 0.423820 0.543290 -0.135976
N59   N     N_R   0.054070 0.576180 0.456710 -0.144884
N60   N     N_R   0.543290 0.423820 0.054070 -0.150508
N61   N     N_R   0.456710 0.576180 0.945930 -0.127190
N62   N     N_R   0.945930 0.576180 0.456710 -0.135786
N63   N     N_R   0.054070 0.423820 0.543290 -0.146316
N64   N     N_R   0.543290 0.576180 0.945930 -0.152075
N65   N     N_R   0.456710 0.423820 0.054070 -0.120965
N66   N     N_R   0.054070 0.576180 0.543290 -0.137523
N67   N     N_R   0.241643 0.238832 0.296504 -0.117127
N68   N     N_R   0.945930 0.423820 0.456710 -0.147221
N69   N     N_R   0.456710 0.576180 0.054070 -0.143631
N70   N     N_R   0.543290 0.423820 0.945930 -0.135406
N71   N     N_R   0.756963 0.754917 0.702644 -0.119517
N72   N     N_R   0.297464 0.761563 0.235752 -0.118947
Ni1   Ni    Ni4+2 0.500000 1.000000 0.424470 0.334118
Ni2   Ni    Ni4+2 0.000000 0.575530 0.500000 0.333734
Ni3   Ni    Ni4+2 0.500000 0.424470 0.000000 0.325741
Ni4   Ni    Ni4+2 0.500000 0.575530 0.000000 0.325394
Ni5   Ni    Ni4+2 0.500000 0.000000 0.575530 0.332510
Ni6   Ni    Ni4+2 0.000000 0.500000 0.424470 0.331509
Ni7   Ni    Ni4+2 1.000000 0.500000 0.575530 0.332675
Ni8   Ni    Ni4+2 0.424470 0.500000 0.000000 0.327316
Ni9   Ni    Ni4+2 0.575530 0.500000 0.000000 0.302292
Ni10  Ni    Ni4+2 0.424470 0.000000 0.500000 0.334441
Ni11  Ni    Ni4+2 0.575530 0.000000 0.500000 0.334827
Ni12  Ni    Ni4+2 1.000000 0.424470 0.500000 0.332527
O1    O     O_3   0.870221 0.300431 0.421897 -0.643403
O2    O     O_3   0.168688 0.328998 0.435924 -0.617589
O3    O     O_3   0.696705 0.134815 0.574662 -0.641547
O4    O     O_3   0.321161 0.837152 0.435948 -0.618845
O5    O     O_3   0.130623 0.301558 0.576340 -0.644042
O6    O     O_3   0.835529 0.677830 0.435561 -0.616188
O7    O     O_3   0.302859 0.865790 0.573509 -0.642477
O8    O     O_3   0.678134 0.165600 0.437349 -0.617510
O9    O     O_3   0.433164 0.858531 0.307250 -0.651536
O10   O     O_3   0.561379 0.167992 0.671914 -0.617318
O11   O     O_3   0.355958 0.684739 0.934330 -0.587132
O12   O     O_3   0.168340 0.670134 0.563183 -0.615830
O13   O     O_3   0.566818 0.329857 0.154340 -0.613678
O14   O     O_3   0.429763 0.134636 0.697456 -0.651601
O15   O     O_3   0.562391 0.836973 0.323102 -0.619655
O16   O     O_3   0.362636 0.314312 0.064510 -0.610523
O17   O     O_3   0.565575 0.669319 0.841035 -0.617431
O18   O     O_3   0.565453 0.857835 0.691809 -0.643809
O19   O     O_3   0.437830 0.167677 0.326416 -0.625592
O20   O     O_3   0.629467 0.705092 0.063424 -0.583562
O21   O     O_3   0.427477 0.312321 0.858289 -0.599182
O22   O     O_3   0.563271 0.147039 0.311404 -0.652693
O23   O     O_3   0.699590 0.869583 0.421674 -0.648960
O24   O     O_3   0.437792 0.831251 0.672155 -0.622575
O25   O     O_3   0.629591 0.297590 0.938282 -0.600973
O26   O     O_3   0.429041 0.686495 0.144191 -0.601018
O27   O     O_3   0.295781 0.420395 0.881418 -0.629646
O28   O     O_3   0.659796 0.568186 0.165758 -0.600772
O29   O     O_3   0.856885 0.434723 0.691803 -0.644818
O30   O     O_3   0.168286 0.563294 0.326665 -0.614538
O31   O     O_3   0.709216 0.386331 0.072687 -0.611634
O32   O     O_3   0.369747 0.567783 0.807672 -0.634756
O33   O     O_3   0.132085 0.425508 0.299882 -0.641520
O34   O     O_3   0.322544 0.163493 0.565322 -0.618209
O35   O     O_3   0.830856 0.560983 0.672996 -0.622977
O36   O     O_3   0.702963 0.621494 0.933583 -0.632381
O37   O     O_3   0.364499 0.431670 0.190619 -0.629389
O38   O     O_3   0.132871 0.574172 0.699693 -0.644223
O39   O     O_3   0.829184 0.438297 0.331693 -0.621032
O40   O     O_3   0.297458 0.578232 0.121457 -0.625705
O41   O     O_3   0.661564 0.432854 0.835354 -0.593615
O42   O     O_3   0.861064 0.567526 0.305880 -0.651897
O43   O     O_3   0.166883 0.436371 0.673487 -0.614528
O44   O     O_3   0.133553 0.697049 0.425658 -0.647857
O45   O     O_3   0.831092 0.327221 0.563059 -0.614963
O46   O     O_3   0.303919 0.136067 0.426784 -0.642935
O47   O     O_3   0.674672 0.833095 0.563927 -0.616277
O48   O     O_3   0.862954 0.695199 0.573207 -0.643724

loop_
_geom_bond_atom_site_label_1
_geom_bond_atom_site_label_2
_ccdc_geom_bond_type
C29   O34   S    
N19   N47   A    
C134  C353  A    
C339  N54   A    
C297  H269  S    
C130  C146  S    
C148  C348  A    
C171  H357  S    
C189  H19   S    
C302  H280  S    
C10   C63   A    
C305  H288  S    
C161  H335  S    
C40   C93   A    
C194  H28   S    
C133  C332  A    
C372  H68   S    
C255  H171  S    
C108  C319  S    
C204  H51   S    
C383  H179  S    
C15   H318  S    
C282  C283  S    
C364  H363  S    
C58   O24   S    
C43   C373  A    
C313  H306  S    
C238  H131  S    
C347  N62   A    
C381  H157  S    
N69   Ni4   S    
C167  H351  S    
C169  H353  S    
C162  C163  S    
C315  O43   S    
C214  H76   S    
C218  H86   S    
N52   Ni10  S    
C282  H234  S    
C115  C365  A    
C355  Cl43  S    
C265  O27   S    
C38   C368  A    
C174  H366  S    
C251  H162  S    
C163  H339  S    
C239  H133  S    
C353  Cl41  S    
C309  H298  S    
C63   O29   S    
C194  H29   S    
C288  H250  S    
C374  N71   A    
C41   C94   A    
C291  H254  S    
C225  H97   S    
C348  Cl37  S    
C275  C276  S    
C162  H337  S    
C272  C273  S    
C177  H372  S    
C228  H105  S    
C147  C312  A    
C341  N11   A    
C114  C364  A    
C237  H127  S    
C283  H237  S    
C269  O28   S    
C198  H39   S    
C294  H262  S    
C281  H231  S    
C243  H143  S    
C76   O42   S    
N31   Ni5   S    
N55   Ni3   S    
C199  C200  S    
C197  H36   S    
C301  N31   A    
C24   N45   A    
C4    C56   A    
C75   C103  A    
C330  N45   A    
C275  H218  S    
C170  H355  S    
C25   C119  A    
C151  C322  A    
C363  N71   A    
C161  H334  S    
C71   C98   A    
C350  N65   A    
C274  H214  S    
C49   C379  A    
C41   O7    S    
C9    C128  A    
C202  C203  S    
C207  H61   S    
C352  N7    A    
C42   C95   A    
C295  H265  S    
C298  H272  S    
C336  Cl25  S    
C159  H329  S    
C126  C380  A    
C90   N14   A    
C333  Cl21  S    
C37   C89   A    
C53   O19   S    
C200  H43   S    
C206  C207  S    
C17   C127  A    
C149  C320  A    
C339  Cl28  S    
C137  C212  A    
C331  Cl19  S    
C267  H198  S    
C47   O13   S    
C337  Cl26  S    
C238  H129  S    
C26   C356  A    
C316  C317  S    
C185  O48   S    
C215  C216  S    
C39   O5    S    
C320  N35   A    
C362  H352  S    
C229  C230  S    
C235  Cl46  S    
C141  C337  A    
C33   O47   S    
N24   N42   A    
C178  C180  S    
N26   Ni7   S    
C55   C102  A    
C286  H244  S    
C192  H25   S    
C236  H125  S    
C334  N49   A    
C306  C307  S    
C46   N23   A    
N35   N62   A    
C4    C122  A    
C310  H299  S    
C261  H185  S    
C280  C281  S    
C213  H73   S    
C78   C134  S    
C217  H84   S    
N20   N68   A    
C172  H361  S    
C359  H319  S    
C296  C297  S    
C210  H67   S    
C245  O20   S    
C252  O22   S    
C165  H346  S    
C268  N28   A    
C139  C235  A    
C239  H132  S    
C269  H203  S    
C207  H59   S    
C342  N57   A    
C176  H370  S    
C298  C299  S    
N30   Ni6   S    
C16   C115  A    
C125  C377  A    
C308  H296  S    
C171  H359  S    
C228  H107  S    
C98   C150  S    
C107  C358  A    
C18   C71   A    
C224  N24   A    
C187  H14   S    
C229  H109  S    
C232  H117  S    
C3    C129  A    
C74   O40   S    
C259  H180  S    
C68   N4    A    
C185  H8    S    
C167  H349  S    
C258  H177  S    
C196  C197  S    
C5    H224  S    
C57   C121  S    
C48   O14   S    
C230  H111  S    
C214  H74   S    
C28   O23   S    
C262  H187  S    
C309  C310  S    
C373  H79   S    
C252  H163  S    
N46   Ni8   S    
C73   O39   S    
C272  H210  S    
C183  H4    S    
C329  Cl18  S    
C254  H169  S    
C72   O38   S    
C63   C84   A    
C159  O1    S    
C222  H96   S    
C52   C86   A    
N44   Ni9   S    
C29   C82   A    
C82   C138  S    
C175  C176  S    
C179  N19   A    
N62   Ni2   S    
C225  H99   S    
C162  O12   S    
C205  H54   S    
C79   C123  S    
C216  H81   S    
C317  H315  S    
C158  C335  A    
C282  O32   S    
C248  H152  S    
C207  H60   S    
C90   N4    A    
C34   C87   A    
C23   H327  S    
C79   N3    A    
C300  H276  S    
C184  H5    S    
C208  H63   S    
C195  C196  S    
C265  H195  S    
C19   C106  A    
C202  H48   S    
C219  H87   S    
C16   H320  S    
C95   C142  S    
C64   O30   S    
C193  C194  S    
C288  O35   S    
C8    C129  A    
C259  O25   S    
C340  N55   A    
C166  H348  S    
C53   C85   A    
C186  C187  S    
C308  O41   S    
C27   C357  A    
C161  H336  S    
C290  N30   A    
C193  H26   S    
C233  H119  S    
C1    C105  S    
C252  C253  S    
C220  H92   S    
N36   Ni8   S    
C56   C95   A    
C69   O35   S    
C177  H373  S    
C114  C363  S    
C247  H150  S    
C234  H122  S    
C160  H332  S    
N22   N43   A    
C23   C76   A    
C6    C130  A    
C9    H268  S    
C241  H137  S    
C260  H181  S    
C102  C158  S    
C91   C147  S    
C313  C314  S    
C314  H308  S    
C173  H364  S    
C36   C88   A    
N28   N51   A    
C89   C145  S    
C249  C250  S    
C26   C78   A    
C268  Cl2   S    
C5    C58   A    
C140  C246  A    
N28   Ni1   S    
C142  C268  A    
C292  H256  S    
C271  H208  S    
C11   H290  S    
C111  C383  A    
C253  C254  S    
N59   Ni2   S    
N66   Ni2   S    
N43   Ni11  S    
C170  C171  S    
N39   Ni11  S    
N25   Ni6   S    
C96   C152  S    
C292  O36   S    
N41   Ni9   S    
C236  C237  S    
C180  H379  S    
C228  H106  S    
C189  C191  S    
C293  H260  S    
C208  H62   S    
N32   N38   A    
C182  C183  S    
C3    C55   A    
C250  H159  S    
C316  H313  S    
C191  H21   S    
C249  H156  S    
C164  H342  S    
C181  H382  S    
C191  H22   S    
C352  N67   A    
C201  Cl34  S    
C233  C234  S    
C346  Cl35  S    
C6    H235  S    
N29   Ni7   S    
C137  C328  A    
C19   H323  S    
C259  C260  S    
C35   N9    A    
C321  Cl9   S    
C169  O34   S    
C276  H220  S    
C118  C373  A    
C290  Cl4   S    
C187  H12   S    
C245  H148  S    
C237  C238  S    
N33   Ni7   S    
C248  H153  S    
C119  C369  A    
C259  H178  S    
C2    C116  S    
C356  H1    S    
C285  H242  S    
C136  C201  A    
C262  O26   S    
C206  H56   S    
C145  C301  A    
C246  Cl47  S    
C209  C210  S    
N32   Ni1   S    
C276  H219  S    
N21   N66   A    
C50   C98   A    
C379  H135  S    
C254  H167  S    
C319  N34   A    
C13   N2    A    
C175  H369  S    
C239  O18   S    
C28   C358  A    
C195  H31   S    
C287  H248  S    
C51   O17   S    
C44   O10   S    
C27   C80   A    
C34   C365  A    
N38   Ni10  S    
C321  N36   A    
C222  C225  S    
C144  C290  A    
C289  H252  S    
C203  H50   S    
C31   C84   A    
C205  O7    S    
C36   O2    S    
C311  H304  S    
C255  O24   S    
C51   C381  A    
C160  H333  S    
C124  N10   A    
C25   H328  S    
C147  C323  A    
C293  C294  S    
C184  H7    S    
C116  C366  A    
C342  Cl30  S    
C103  C154  S    
C376  H101  S    
N65   Ni3   S    
C209  H64   S    
C154  C355  A    
C15   C67   A    
C195  O4    S    
C46   C120  S    
C324  Cl13  S    
C175  O45   S    
C168  N18   A    
C150  C350  A    
C210  H66   S    
C153  C345  A    
C136  C351  A    
C244  H145  S    
C258  H175  S    
C60   O26   S    
C277  H222  S    
C177  H375  S    
C111  C352  S    
C311  C313  S    
C48   C378  A    
C157  N13   A    
C347  Cl36  S    
C264  H191  S    
C212  N22   A    
C238  H130  S    
N60   Ni3   S    
C236  O17   S    
C241  H139  S    
C284  H240  S    
C110  C341  S    
C70   C99   A    
C29   C359  A    
C354  N69   A    
C121  C371  A    
C192  H23   S    
C324  N39   A    
C191  H20   S    
C323  N38   A    
C122  C372  A    
C15   C116  A    
C189  H18   S    
C302  H281  S    
C40   C370  A    
C169  H354  S    
C305  H287  S    
C341  N56   A    
C260  C261  S    
C271  H206  S    
C69   C87   A    
C350  Cl39  S    
C152  C325  A    
C305  O40   S    
C240  H134  S    
C340  Cl29  S    
C37   O3    S    
C150  C321  A    
C262  C263  S    
C319  N5    A    
C186  H10   S    
C330  N13   A    
C227  H104  S    
C187  H15   S    
C295  H264  S    
C47   C97   A    
C59   C103  A    
C117  C375  A    
C72   C80   A    
C32   C362  A    
C18   C126  A    
C32   O46   S    
C343  N58   A    
C249  O21   S    
C220  H89   S    
C164  H344  S    
N41   N60   A    
C30   O44   S    
C240  C241  S    
C338  N53   A    
C343  Cl31  S    
C49   C81   A    
C175  H368  S    
C344  Cl32  S    
C104  C155  S    
C156  C342  A    
C194  H30   S    
C198  H40   S    
C163  C164  S    
C310  H302  S    
C135  N5    A    
C349  N64   A    
C384  H190  S    
N42   Ni10  S    
C285  H241  S    
C111  C362  A    
C276  C277  S    
C162  H338  S    
C382  H168  S    
C226  C227  S    
C149  C347  A    
C283  C284  S    
C314  H309  S    
C141  C257  A    
C204  H53   S    
C44   C375  A    
C60   C104  A    
C368  H24   S    
C215  H78   S    
C22   C130  A    
C294  H263  S    
C3    H201  S    
C152  C346  A    
C281  H230  S    
C112  N12   A    
C213  H72   S    
C320  Cl8   S    
C257  Cl48  S    
C221  O13   S    
C295  O37   S    
C92   C148  S    
C253  H166  S    
C93   C149  S    
C218  O11   S    
C106  C357  A    
C215  H77   S    
C275  H217  S    
C170  H356  S    
C179  Cl12  S    
C322  N37   A    
C83   C139  S    
C242  H140  S    
C274  H215  S    
C4    H212  S    
C213  C214  S    
C172  C173  S    
C13   N56   A    
C81   C137  S    
C10   H279  S    
C334  Cl22  S    
C67   C88   A    
N36   N65   A    
C242  O19   S    
C198  O5    S    
C247  H151  S    
C375  H90   S    
C45   C376  A    
C42   C372  A    
C239  C240  S    
C66   O32   S    
C306  H291  S    
N19   Ni5   S    
C332  N47   A    
C148  C318  A    
C200  H44   S    
N46   N69   A    
C358  H223  S    
C366  H2    S    
C328  Cl17  S    
C113  C127  S    
C266  H196  S    
C221  H94   S    
C169  C170  S    
C50   O16   S    
C30   C83   A    
C131  C157  S    
C21   C131  A    
N37   Ni9   S    
C300  H278  S    
C208  O8    S    
C244  H147  S    
C35   C119  S    
C135  N9    A    
N33   N63   A    
C108  C378  A    
C208  C209  S    
C236  H126  S    
C155  C354  A    
C310  H300  S    
C97   C153  S    
C53   C383  A    
C304  H284  S    
C7    C131  A    
C217  H83   S    
C124  C128  S    
C101  N16   A    
C317  H317  S    
C100  C156  S    
C244  H144  S    
C315  C316  S    
C26   O1    S    
C165  H345  S    
C269  C270  S    
N30   N53   A    
N47   Ni11  S    
C269  H202  S    
C65   O31   S    
N29   N54   A    
C6    C59   A    
C284  H238  S    
C255  H172  S    
C158  C340  A    
C174  H365  S    
C288  C289  S    
C195  H32   S    
C232  H118  S    
C113  N8    A    
C278  H226  S    
C68   N1    A    
C154  C329  A    
C331  N46   A    
C52   O18   S    
C280  H229  S    
C68   C122  S    
C219  C220  S    
C22   H326  S    
C218  H85   S    
C229  O15   S    
C282  H233  S    
C21   H325  S    
C12   C125  A    
C252  H164  S    
C210  H69   S    
C325  Cl14  S    
C205  C206  S    
C197  H37   S    
C1    N1    A    
C163  H340  S    
C108  C359  A    
C314  H307  S    
C254  H170  S    
C357  H112  S    
C40   O6    S    
N27   Ni5   S    
C257  N27   A    
C318  Cl7   S    
C256  H173  S    
C288  H249  S    
C64   C83   A    
C285  C286  S    
C377  H113  S    
N26   N58   A    
C234  H123  S    
C156  C334  A    
C225  H98   S    
C86   C133  S    
C34   O48   S    
C159  C160  S    
N68   Ni12  S    
C168  Cl1   S    
C242  C243  S    
C237  H128  S    
C279  Cl3   S    
N61   Ni4   S    
C296  H267  S    
C279  N29   A    
C353  N68   A    
C172  H360  S    
C294  H261  S    
C184  H6    S    
C31   O45   S    
C299  H274  S    
C62   C100  A    
C338  Cl27  S    
N49   N57   A    
C211  H70   S    
C128  C384  A    
C318  N33   A    
C235  N25   A    
C245  C247  S    
C215  O10   S    
C272  O29   S    
C157  N72   A    
C200  H45   S    
C326  N41   A    
C204  H52   S    
C365  H374  S    
C196  H33   S    
C57   N3    A    
C30   C360  A    
C7    C60   A    
C295  C296  S    
C180  C181  S    
C49   O15   S    
C132  C333  A    
C20   C105  A    
C226  H102  S    
C380  H146  S    
C317  H316  S    
C231  H114  S    
C143  C339  A    
C181  H380  S    
C263  H188  S    
C231  H115  S    
C307  H292  S    
C306  H289  S    
C260  H182  S    
C304  H285  S    
C13   C117  S    
N64   Ni4   S    
C173  H362  S    
C337  N52   A    
C226  H100  S    
C151  C349  A    
C12   C65   A    
C165  O23   S    
C333  N48   A    
C301  Cl5   S    
C80   C136  S    
N51   Ni11  S    
C139  C344  A    
C196  H34   S    
C361  H341  S    
C250  C251  S    
N49   Ni9   S    
N40   Ni8   S    
C127  C381  A    
C67   O33   S    
C46   N10   A    
C273  H213  S    
C220  H91   S    
C134  C190  A    
C185  C186  S    
C33   C364  A    
C183  H3    S    
C286  H243  S    
C32   C85   A    
C38   C91   A    
C345  N60   A    
C144  C338  A    
C232  C233  S    
C178  O46   S    
C90   C125  S    
C48   C82   A    
C10   C110  A    
C178  H377  S    
C378  H124  S    
N70   Ni3   S    
C271  H207  S    
C1    N14   A    
C230  C231  S    
C293  H259  S    
C12   H301  S    
C24   N72   A    
C360  H330  S    
C197  H38   S    
C221  H93   S    
C159  H331  S    
C354  Cl42  S    
N53   Ni12  S    
C172  O44   S    
C316  H314  S    
C332  Cl20  S    
C50   C380  A    
C216  H80   S    
C305  C306  S    
C224  Cl45  S    
C209  H65   S    
C242  H141  S    
C374  N17   A    
C52   C382  A    
C270  C271  S    
C145  C324  A    
C140  C343  A    
N54   Ni2   S    
C113  N17   A    
C308  H295  S    
N50   N55   A    
C335  Cl24  S    
C277  H225  S    
C39   C92   A    
C203  C204  S    
C77   C92   A    
C165  C166  S    
C70   O36   S    
C11   C109  A    
C188  O2    S    
C248  H154  S    
C2    N67   A    
C266  H197  S    
C335  N50   A    
C185  H9    S    
C20   C73   A    
C167  H350  S    
C190  N20   A    
C363  N8    A    
C299  C300  S    
N37   N64   A    
C230  H110  S    
N31   N39   A    
C27   O12   S    
C262  H186  S    
C192  O3    S    
C245  H149  S    
C311  O42   S    
C106  C112  S    
C173  C174  S    
C302  O39   S    
C112  N15   A    
N58   Ni12  S    
C272  H209  S    
C199  H42   S    
C117  C367  A    
C326  Cl15  S    
C264  H193  S    
C25   C77   A    
C222  H95   S    
C292  C293  S    
C287  H247  S    
C188  H17   S    
C85   C132  S    
C36   C366  A    
C286  C287  S    
C76   C93   A    
C234  H121  S    
C62   O28   S    
N25   N59   A    
C273  H211  S    
C190  Cl23  S    
C174  H367  S    
C351  N66   A    
C182  H384  S    
C101  N7    A    
C289  H251  S    
C251  H161  S    
C146  N11   A    
C203  H49   S    
C307  H294  S    
C311  H303  S    
C344  N59   A    
C283  H236  S    
C55   O21   S    
C227  C228  S    
N44   N70   A    
C153  C326  A    
C226  O14   S    
C243  H142  S    
C8    H257  S    
C35   N34   A    
C243  C244  S    
C219  H88   S    
C303  C304  S    
N18   N48   A    
C322  Cl10  S    
C74   C104  A    
C73   C78   A    
C223  N6    A    
C231  H116  S    
C198  C199  S    
C164  H343  S    
C138  C224  A    
C298  O38   S    
C265  C266  S    
C14   H312  S    
C193  H27   S    
C233  H120  S    
C8    C61   A    
C206  H58   S    
C171  H358  S    
C258  H176  S    
C277  H221  S    
C17   C70   A    
C129  C135  S    
C229  H108  S    
C309  H297  S    
C59   O25   S    
C54   C100  A    
C19   C72   A    
C246  N26   A    
C22   C75   A    
C241  H138  S    
C202  H47   S    
C345  Cl33  S    
C109  C330  S    
C107  C223  S    
C51   C99   A    
C109  C360  A    
C351  Cl40  S    
C37   C367  A    
C181  H381  S    
C9    C62   A    
C249  H155  S    
C270  H204  S    
C216  C217  S    
C369  H35   S    
C223  N23   A    
C11   C64   A    
C105  C356  A    
C256  H174  S    
C23   C120  A    
C45   O11   S    
C297  H271  S    
C66   C96   A    
C133  C179  A    
C79   N15   A    
C43   O9    S    
C186  H11   S    
C303  H283  S    
C227  H103  S    
C21   C74   A    
C107  C379  A    
C43   C91   A    
C278  H227  S    
N57   Ni4   S    
C256  C258  S    
C188  C189  S    
C212  Cl44  S    
C275  O30   S    
C291  H253  S    
C182  H383  S    
C328  N43   A    
C33   C86   A    
C183  C184  S    
C202  O6    S    
C142  C336  A    
C75   O41   S    
C221  C222  S    
C250  H158  S    
C199  H41   S    
C110  C361  A    
C312  N32   A    
C166  H347  S    
C315  H311  S    
C138  C327  A    
C143  C279  A    
C101  C126  S    
C14   C66   A    
N18   Ni1   S    
C214  H75   S    
C176  H371  S    
C370  H46   S    
C124  N6    A    
C146  N2    A    
C325  N40   A    
C297  H270  S    
C155  C331  A    
N40   N61   A    
C270  H205  S    
C56   O22   S    
C176  C177  S    
C211  C213  S    
C7    H246  S    
C349  Cl38  S    
C312  Cl6   S    
C261  H183  S    
C281  H232  S    
C336  N51   A    
C178  H376  S    
C166  C167  S    
C114  C382  A    
C278  C280  S    
C47   C377  A    
C296  H266  S    
C265  H194  S    
N35   Ni6   S    
C180  H378  S    
C255  C256  S    
N20   Ni6   S    
C371  H57   S    
C323  Cl11  S    
C308  C309  S    
N48   Ni10  S    
C299  H275  S    
C211  H71   S    
C205  H55   S    
C20   H324  S    
C302  C303  S    
C5    C121  A    
C14   C123  A    
C267  H199  S    
C28   C81   A    
C94   C141  S    
C253  H165  S    
C99   C151  S    
C16   C69   A    
C287  H245  S    
C329  N44   A    
C39   C369  A    
C201  N21   A    
C54   O20   S    
C247  C248  S    
C71   O37   S    
C348  N63   A    
C274  H216  S    
C315  H310  S    
C38   O4    S    
C313  H305  S    
C240  H136  S    
C211  O9    S    
C298  H273  S    
C232  O16   S    
C24   C118  S    
C346  N61   A    
C61   O27   S    
C188  H16   S    
N24   Ni5   S    
C192  C193  S    
C307  H293  S    
C264  H192  S    
C61   C102  A    
C58   C94   A    
C261  H184  S    
C291  H255  S    
C300  H277  S    
C77   O43   S    
C132  C168  A    
C304  H286  S    
C355  N70   A    
C278  O31   S    
C31   C361  A    
N22   Ni1   S    
C18   H322  S    
C218  C219  S    
C327  N42   A    
C41   C371  A    
C367  H13   S    
C263  C264  S    
C267  H200  S    
N50   Ni8   S    
N27   N52   A    
C289  C291  S    
C42   O8    S    
C2    N16   A    
C251  H160  S    
C285  O33   S    
C123  C376  A    
C160  C161  S    
C266  C267  S    
C44   C89   A    
C17   H321  S    
C65   C97   A    
N63   Ni12  S    
C292  H258  S    
C182  O47   S    
C84   C140  S    
N21   Ni7   S    
C280  H228  S    
C118  C368  A    
C57   N12   A    
C120  C370  A    
C115  C374  S    
C87   C143  S    
C45   C96   A    
C54   C384  A    
C88   C144  S    
C284  H239  S    
C217  H82   S    
C263  H189  S    
C303  H282  S    
C327  Cl16  S    
C273  C274  S    
